MODEL 1
REMARK VINA RESULT:    -9.991      0.000      0.000
REMARK INTER + INTRA:         -14.582
REMARK INTER:                 -12.974
REMARK INTRA:                  -1.608
REMARK CONF_INDEPENDENT:        2.983
REMARK UNBOUND:                -1.608
REMARK  10 active torsions:
REMARK  status: ('A' for Active; 'I' for Inactive)
REMARK    1  A    between atoms: O_2  and  C_3 
REMARK    2  A    between atoms: C_3  and  C_4 
REMARK    3  A    between atoms: C_4  and  N_5 
REMARK       I    between atoms: N_5  and  C_6 
REMARK    4  A    between atoms: C_6  and  C_8 
REMARK    5  A    between atoms: C_12  and  N_13 
REMARK       I    between atoms: N_13  and  C_14 
REMARK    6  A    between atoms: C_14  and  C_16 
REMARK    7  A    between atoms: C_16  and  N_17 
REMARK    8  A    between atoms: N_17  and  C_18 
REMARK    9  A    between atoms: C_23  and  C_24 
REMARK       I    between atoms: C_24  and  N_26 
REMARK   10  A    between atoms: N_26  and  C_27 
ROOT
ATOM      1  C   UNL d   1      25.796 -12.494  -3.097  0.00  0.00     0.223 C 
ENDROOT
BRANCH   1   2
ATOM      2  C   UNL d   1      25.422 -13.943  -2.807  0.00  0.00     0.239 C 
ATOM      3  N   UNL d   1      25.882 -14.486  -1.607  0.00  0.00    -0.326 N 
ATOM      4  H   UNL d   1      26.416 -13.903  -0.971  0.00  0.00     0.169 HD
ATOM      5  O   UNL d   1      24.762 -14.535  -3.665  0.00  0.00    -0.271 OA
BRANCH   3   6
ATOM      6  C   UNL d   1      25.591 -15.812  -1.183  0.00  0.00     0.035 A 
ATOM      7  C   UNL d   1      26.611 -16.707  -0.840  0.00  0.00     0.029 A 
ATOM      8  C   UNL d   1      26.284 -17.987  -0.348  0.00  0.00     0.003 A 
ATOM      9  C   UNL d   1      24.947 -18.405  -0.260  0.00  0.00     0.017 A 
ATOM     10  C   UNL d   1      23.936 -17.526  -0.626  0.00  0.00     0.034 A 
ATOM     11  C   UNL d   1      24.272 -16.251  -1.060  0.00  0.00     0.046 A 
BRANCH  10  12
ATOM     12  C   UNL d   1      22.490 -17.841  -0.474  0.00  0.00     0.251 C 
ATOM     13  N   UNL d   1      22.194 -19.095   0.029  0.00  0.00    -0.355 N 
ATOM     14  H   UNL d   1      22.946 -19.722   0.289  0.00  0.00     0.162 HD
ATOM     15  O   UNL d   1      21.649 -17.018  -0.815  0.00  0.00    -0.268 OA
BRANCH  13  16
ATOM     16  C   UNL d   1      20.821 -19.548   0.195  0.00  0.00     0.149 C 
BRANCH  16  17
ATOM     17  C   UNL d   1      20.032 -19.538  -1.114  0.00  0.00     0.186 C 
BRANCH  17  18
ATOM     18  O   UNL d   1      18.767 -20.181  -0.941  0.00  0.00    -0.394 OA
ATOM     19  C   UNL d   1      18.556 -20.534   0.422  0.00  0.00     0.201 C 
ENDBRANCH  17  18
ENDBRANCH  16  17
ENDBRANCH  13  16
ENDBRANCH  10  12
ENDBRANCH   3   6
ENDBRANCH   1   2
BRANCH   1  20
ATOM     20  N   UNL d   1      25.854 -12.335  -4.553  0.00  0.00    -0.381 N 
ATOM     21  H   UNL d   1      24.941 -12.279  -5.017  0.00  0.00     0.160 HD
BRANCH  20  22
ATOM     22  C   UNL d   1      26.942 -12.634  -5.329  0.00  0.00     0.029 A 
ATOM     23  C   UNL d   1      27.292 -11.778  -6.375  0.00  0.00     0.031 A 
ATOM     24  C   UNL d   1      28.397 -12.045  -7.178  0.00  0.00     0.027 A 
ATOM     25  C   UNL d   1      29.202 -13.150  -6.915  0.00  0.00     0.049 A 
ATOM     26 CL   UNL d   1      30.631 -13.245  -7.895  0.00  0.00    -0.083 Cl
ATOM     27  C   UNL d   1      28.846 -14.047  -5.887  0.00  0.00     0.055 A 
ATOM     28  C   UNL d   1      27.730 -13.756  -5.093  0.00  0.00     0.048 A 
BRANCH  27  29
ATOM     29  C   UNL d   1      29.581 -15.314  -5.681  0.00  0.00     0.253 C 
ATOM     30  O   UNL d   1      29.783 -15.665  -4.519  0.00  0.00    -0.268 OA
ATOM     31  N   UNL d   1      30.045 -16.051  -6.762  0.00  0.00    -0.352 N 
ATOM     32  H   UNL d   1      30.014 -15.684  -7.701  0.00  0.00     0.163 HD
BRANCH  31  33
ATOM     33  C   UNL d   1      30.765 -17.319  -6.601  0.00  0.00     0.084 C 
ATOM     34  C   UNL d   1      30.080 -18.250  -5.591  0.00  0.00     0.025 C 
ATOM     35  C   UNL d   1      30.794 -19.603  -5.500  0.00  0.00     0.002 C 
ATOM     36  C   UNL d   1      30.943 -20.259  -6.869  0.00  0.00     0.000 C 
ATOM     37  C   UNL d   1      31.709 -19.350  -7.826  0.00  0.00     0.002 C 
ATOM     38  C   UNL d   1      31.004 -18.020  -7.946  0.00  0.00     0.025 C 
ENDBRANCH  31  33
ENDBRANCH  27  29
ENDBRANCH  20  22
ENDBRANCH   1  20
TORSDOF 10
ENDMDL
MODEL 2
REMARK VINA RESULT:    -9.788      4.326      6.893
REMARK INTER + INTRA:         -14.429
REMARK INTER:                 -12.771
REMARK INTRA:                  -1.658
REMARK CONF_INDEPENDENT:        2.983
REMARK UNBOUND:                -1.658
REMARK  10 active torsions:
REMARK  status: ('A' for Active; 'I' for Inactive)
REMARK    1  A    between atoms: O_2  and  C_3 
REMARK    2  A    between atoms: C_3  and  C_4 
REMARK    3  A    between atoms: C_4  and  N_5 
REMARK       I    between atoms: N_5  and  C_6 
REMARK    4  A    between atoms: C_6  and  C_8 
REMARK    5  A    between atoms: C_12  and  N_13 
REMARK       I    between atoms: N_13  and  C_14 
REMARK    6  A    between atoms: C_14  and  C_16 
REMARK    7  A    between atoms: C_16  and  N_17 
REMARK    8  A    between atoms: N_17  and  C_18 
REMARK    9  A    between atoms: C_23  and  C_24 
REMARK       I    between atoms: C_24  and  N_26 
REMARK   10  A    between atoms: N_26  and  C_27 
ROOT
ATOM      1  C   UNL d   1      25.693 -13.357  -3.886  0.00  0.00     0.223 C 
ENDROOT
BRANCH   1   2
ATOM      2  C   UNL d   1      25.433 -14.768  -3.373  0.00  0.00     0.239 C 
ATOM      3  N   UNL d   1      25.174 -14.907  -2.009  0.00  0.00    -0.326 N 
ATOM      4  H   UNL d   1      25.142 -14.080  -1.423  0.00  0.00     0.169 HD
ATOM      5  O   UNL d   1      25.495 -15.685  -4.196  0.00  0.00    -0.271 OA
BRANCH   3   6
ATOM      6  C   UNL d   1      24.883 -16.153  -1.387  0.00  0.00     0.035 A 
ATOM      7  C   UNL d   1      25.891 -16.927  -0.801  0.00  0.00     0.029 A 
ATOM      8  C   UNL d   1      25.556 -18.117  -0.125  0.00  0.00     0.003 A 
ATOM      9  C   UNL d   1      24.231 -18.578  -0.089  0.00  0.00     0.017 A 
ATOM     10  C   UNL d   1      23.234 -17.823  -0.694  0.00  0.00     0.034 A 
ATOM     11  C   UNL d   1      23.573 -16.626  -1.312  0.00  0.00     0.046 A 
BRANCH  10  12
ATOM     12  C   UNL d   1      21.791 -18.175  -0.624  0.00  0.00     0.251 C 
ATOM     13  N   UNL d   1      21.473 -19.265   0.168  0.00  0.00    -0.355 N 
ATOM     14  H   UNL d   1      22.205 -19.751   0.670  0.00  0.00     0.162 HD
ATOM     15  O   UNL d   1      20.974 -17.527  -1.267  0.00  0.00    -0.268 OA
BRANCH  13  16
ATOM     16  C   UNL d   1      20.104 -19.742   0.298  0.00  0.00     0.149 C 
BRANCH  16  17
ATOM     17  C   UNL d   1      19.742 -20.117   1.735  0.00  0.00     0.186 C 
BRANCH  17  18
ATOM     18  O   UNL d   1      18.353 -20.441   1.833  0.00  0.00    -0.394 OA
ATOM     19  C   UNL d   1      18.019 -21.525   0.973  0.00  0.00     0.201 C 
ENDBRANCH  17  18
ENDBRANCH  16  17
ENDBRANCH  13  16
ENDBRANCH  10  12
ENDBRANCH   3   6
ENDBRANCH   1   2
BRANCH   1  20
ATOM     20  N   UNL d   1      26.998 -12.932  -3.371  0.00  0.00    -0.381 N 
ATOM     21  H   UNL d   1      27.799 -13.452  -3.745  0.00  0.00     0.160 HD
BRANCH  20  22
ATOM     22  C   UNL d   1      27.189 -12.219  -2.216  0.00  0.00     0.029 A 
ATOM     23  C   UNL d   1      27.617 -10.893  -2.296  0.00  0.00     0.031 A 
ATOM     24  C   UNL d   1      27.812 -10.136  -1.144  0.00  0.00     0.027 A 
ATOM     25  C   UNL d   1      27.532 -10.679   0.106  0.00  0.00     0.049 A 
ATOM     26 CL   UNL d   1      27.661  -9.554   1.422  0.00  0.00    -0.083 Cl
ATOM     27  C   UNL d   1      27.133 -12.028   0.210  0.00  0.00     0.055 A 
ATOM     28  C   UNL d   1      26.944 -12.769  -0.962  0.00  0.00     0.048 A 
BRANCH  27  29
ATOM     29  C   UNL d   1      26.981 -12.687   1.526  0.00  0.00     0.253 C 
ATOM     30  O   UNL d   1      25.874 -13.146   1.801  0.00  0.00    -0.268 OA
ATOM     31  N   UNL d   1      28.045 -12.751   2.416  0.00  0.00    -0.352 N 
ATOM     32  H   UNL d   1      28.900 -12.241   2.252  0.00  0.00     0.163 HD
BRANCH  31  33
ATOM     33  C   UNL d   1      27.941 -13.409   3.723  0.00  0.00     0.084 C 
ATOM     34  C   UNL d   1      29.065 -14.428   3.950  0.00  0.00     0.025 C 
ATOM     35  C   UNL d   1      28.993 -15.041   5.352  0.00  0.00     0.002 C 
ATOM     36  C   UNL d   1      28.965 -13.972   6.439  0.00  0.00     0.000 C 
ATOM     37  C   UNL d   1      27.783 -13.028   6.241  0.00  0.00     0.002 C 
ATOM     38  C   UNL d   1      27.853 -12.395   4.872  0.00  0.00     0.025 C 
ENDBRANCH  31  33
ENDBRANCH  27  29
ENDBRANCH  20  22
ENDBRANCH   1  20
TORSDOF 10
ENDMDL
MODEL 3
REMARK VINA RESULT:    -9.384      2.652      9.232
REMARK INTER + INTRA:         -14.910
REMARK INTER:                 -12.367
REMARK INTRA:                  -2.544
REMARK CONF_INDEPENDENT:        2.983
REMARK UNBOUND:                -2.544
REMARK  10 active torsions:
REMARK  status: ('A' for Active; 'I' for Inactive)
REMARK    1  A    between atoms: O_2  and  C_3 
REMARK    2  A    between atoms: C_3  and  C_4 
REMARK    3  A    between atoms: C_4  and  N_5 
REMARK       I    between atoms: N_5  and  C_6 
REMARK    4  A    between atoms: C_6  and  C_8 
REMARK    5  A    between atoms: C_12  and  N_13 
REMARK       I    between atoms: N_13  and  C_14 
REMARK    6  A    between atoms: C_14  and  C_16 
REMARK    7  A    between atoms: C_16  and  N_17 
REMARK    8  A    between atoms: N_17  and  C_18 
REMARK    9  A    between atoms: C_23  and  C_24 
REMARK       I    between atoms: C_24  and  N_26 
REMARK   10  A    between atoms: N_26  and  C_27 
ROOT
ATOM      1  C   UNL d   1      24.898 -13.569  -4.290  0.00  0.00     0.223 C 
ENDROOT
BRANCH   1   2
ATOM      2  C   UNL d   1      25.946 -14.531  -4.837  0.00  0.00     0.239 C 
ATOM      3  N   UNL d   1      27.235 -14.027  -5.013  0.00  0.00    -0.326 N 
ATOM      4  H   UNL d   1      27.433 -13.067  -4.752  0.00  0.00     0.169 HD
ATOM      5  O   UNL d   1      25.571 -15.675  -5.108  0.00  0.00    -0.271 OA
BRANCH   3   6
ATOM      6  C   UNL d   1      28.326 -14.809  -5.485  0.00  0.00     0.035 A 
ATOM      7  C   UNL d   1      29.005 -14.475  -6.662  0.00  0.00     0.029 A 
ATOM      8  C   UNL d   1      30.131 -15.224  -7.058  0.00  0.00     0.003 A 
ATOM      9  C   UNL d   1      30.543 -16.348  -6.325  0.00  0.00     0.017 A 
ATOM     10  C   UNL d   1      29.852 -16.696  -5.171  0.00  0.00     0.034 A 
ATOM     11  C   UNL d   1      28.776 -15.917  -4.766  0.00  0.00     0.046 A 
BRANCH  10  12
ATOM     12  C   UNL d   1      30.271 -17.807  -4.276  0.00  0.00     0.251 C 
ATOM     13  N   UNL d   1      30.611 -18.993  -4.903  0.00  0.00    -0.355 N 
ATOM     14  H   UNL d   1      30.585 -19.052  -5.913  0.00  0.00     0.162 HD
ATOM     15  O   UNL d   1      30.272 -17.643  -3.062  0.00  0.00    -0.268 OA
BRANCH  13  16
ATOM     16  C   UNL d   1      31.004 -20.173  -4.146  0.00  0.00     0.149 C 
BRANCH  16  17
ATOM     17  C   UNL d   1      31.174 -21.411  -5.026  0.00  0.00     0.186 C 
BRANCH  17  18
ATOM     18  O   UNL d   1      31.115 -21.053  -6.409  0.00  0.00    -0.394 OA
ATOM     19  C   UNL d   1      32.268 -21.512  -7.105  0.00  0.00     0.201 C 
ENDBRANCH  17  18
ENDBRANCH  16  17
ENDBRANCH  13  16
ENDBRANCH  10  12
ENDBRANCH   3   6
ENDBRANCH   1   2
BRANCH   1  20
ATOM     20  N   UNL d   1      24.873 -13.724  -2.833  0.00  0.00    -0.381 N 
ATOM     21  H   UNL d   1      24.919 -12.845  -2.305  0.00  0.00     0.160 HD
BRANCH  20  22
ATOM     22  C   UNL d   1      25.174 -14.881  -2.164  0.00  0.00     0.029 A 
ATOM     23  C   UNL d   1      26.486 -15.105  -1.744  0.00  0.00     0.031 A 
ATOM     24  C   UNL d   1      26.827 -16.265  -1.052  0.00  0.00     0.027 A 
ATOM     25  C   UNL d   1      25.847 -17.198  -0.727  0.00  0.00     0.049 A 
ATOM     26 CL   UNL d   1      26.402 -18.497   0.281  0.00  0.00    -0.083 Cl
ATOM     27  C   UNL d   1      24.523 -17.008  -1.174  0.00  0.00     0.055 A 
ATOM     28  C   UNL d   1      24.206 -15.834  -1.866  0.00  0.00     0.048 A 
BRANCH  27  29
ATOM     29  C   UNL d   1      23.490 -18.050  -0.987  0.00  0.00     0.253 C 
ATOM     30  O   UNL d   1      23.442 -18.951  -1.823  0.00  0.00    -0.268 OA
ATOM     31  N   UNL d   1      22.598 -17.986   0.075  0.00  0.00    -0.352 N 
ATOM     32  H   UNL d   1      22.540 -17.170   0.665  0.00  0.00     0.163 HD
BRANCH  31  33
ATOM     33  C   UNL d   1      21.570 -19.007   0.305  0.00  0.00     0.084 C 
ATOM     34  C   UNL d   1      21.005 -18.950   1.730  0.00  0.00     0.025 C 
ATOM     35  C   UNL d   1      19.872 -19.963   1.927  0.00  0.00     0.002 C 
ATOM     36  C   UNL d   1      18.780 -19.805   0.873  0.00  0.00     0.000 C 
ATOM     37  C   UNL d   1      19.355 -19.959  -0.531  0.00  0.00     0.002 C 
ATOM     38  C   UNL d   1      20.456 -18.949  -0.750  0.00  0.00     0.025 C 
ENDBRANCH  31  33
ENDBRANCH  27  29
ENDBRANCH  20  22
ENDBRANCH   1  20
TORSDOF 10
ENDMDL
MODEL 4
REMARK VINA RESULT:    -9.318      2.855      9.258
REMARK INTER + INTRA:         -14.542
REMARK INTER:                 -12.301
REMARK INTRA:                  -2.242
REMARK CONF_INDEPENDENT:        2.983
REMARK UNBOUND:                -2.242
REMARK  10 active torsions:
REMARK  status: ('A' for Active; 'I' for Inactive)
REMARK    1  A    between atoms: O_2  and  C_3 
REMARK    2  A    between atoms: C_3  and  C_4 
REMARK    3  A    between atoms: C_4  and  N_5 
REMARK       I    between atoms: N_5  and  C_6 
REMARK    4  A    between atoms: C_6  and  C_8 
REMARK    5  A    between atoms: C_12  and  N_13 
REMARK       I    between atoms: N_13  and  C_14 
REMARK    6  A    between atoms: C_14  and  C_16 
REMARK    7  A    between atoms: C_16  and  N_17 
REMARK    8  A    between atoms: N_17  and  C_18 
REMARK    9  A    between atoms: C_23  and  C_24 
REMARK       I    between atoms: C_24  and  N_26 
REMARK   10  A    between atoms: N_26  and  C_27 
ROOT
ATOM      1  C   UNL d   1      25.742 -13.664  -4.158  0.00  0.00     0.223 C 
ENDROOT
BRANCH   1   2
ATOM      2  C   UNL d   1      26.664 -14.614  -4.913  0.00  0.00     0.239 C 
ATOM      3  N   UNL d   1      28.023 -14.299  -4.924  0.00  0.00    -0.326 N 
ATOM      4  H   UNL d   1      28.347 -13.481  -4.419  0.00  0.00     0.169 HD
ATOM      5  O   UNL d   1      26.138 -15.576  -5.479  0.00  0.00    -0.271 OA
BRANCH   3   6
ATOM      6  C   UNL d   1      29.010 -15.103  -5.559  0.00  0.00     0.035 A 
ATOM      7  C   UNL d   1      29.675 -14.666  -6.710  0.00  0.00     0.029 A 
ATOM      8  C   UNL d   1      30.703 -15.452  -7.266  0.00  0.00     0.003 A 
ATOM      9  C   UNL d   1      31.026 -16.706  -6.724  0.00  0.00     0.017 A 
ATOM     10  C   UNL d   1      30.348 -17.151  -5.596  0.00  0.00     0.034 A 
ATOM     11  C   UNL d   1      29.373 -16.342  -5.029  0.00  0.00     0.046 A 
BRANCH  10  12
ATOM     12  C   UNL d   1      30.686 -18.416  -4.890  0.00  0.00     0.251 C 
ATOM     13  N   UNL d   1      30.848 -18.318  -3.520  0.00  0.00    -0.355 N 
ATOM     14  H   UNL d   1      30.714 -17.426  -3.061  0.00  0.00     0.162 HD
ATOM     15  O   UNL d   1      30.828 -19.451  -5.530  0.00  0.00    -0.268 OA
BRANCH  13  16
ATOM     16  C   UNL d   1      31.216 -19.470  -2.709  0.00  0.00     0.149 C 
BRANCH  16  17
ATOM     17  C   UNL d   1      31.951 -19.081  -1.426  0.00  0.00     0.186 C 
BRANCH  17  18
ATOM     18  O   UNL d   1      31.870 -17.670  -1.213  0.00  0.00    -0.394 OA
ATOM     19  C   UNL d   1      30.943 -17.362  -0.178  0.00  0.00     0.201 C 
ENDBRANCH  17  18
ENDBRANCH  16  17
ENDBRANCH  13  16
ENDBRANCH  10  12
ENDBRANCH   3   6
ENDBRANCH   1   2
BRANCH   1  20
ATOM     20  N   UNL d   1      24.809 -14.481  -3.376  0.00  0.00    -0.381 N 
ATOM     21  H   UNL d   1      23.847 -14.125  -3.345  0.00  0.00     0.160 HD
BRANCH  20  22
ATOM     22  C   UNL d   1      25.177 -15.395  -2.426  0.00  0.00     0.029 A 
ATOM     23  C   UNL d   1      26.484 -15.382  -1.936  0.00  0.00     0.031 A 
ATOM     24  C   UNL d   1      26.891 -16.290  -0.962  0.00  0.00     0.027 A 
ATOM     25  C   UNL d   1      25.980 -17.196  -0.426  0.00  0.00     0.049 A 
ATOM     26 CL   UNL d   1      26.599 -18.137   0.894  0.00  0.00    -0.083 Cl
ATOM     27  C   UNL d   1      24.665 -17.250  -0.933  0.00  0.00     0.055 A 
ATOM     28  C   UNL d   1      24.280 -16.326  -1.912  0.00  0.00     0.048 A 
BRANCH  27  29
ATOM     29  C   UNL d   1      23.717 -18.301  -0.504  0.00  0.00     0.253 C 
ATOM     30  O   UNL d   1      24.192 -19.387  -0.175  0.00  0.00    -0.268 OA
ATOM     31  N   UNL d   1      22.349 -18.068  -0.506  0.00  0.00    -0.352 N 
ATOM     32  H   UNL d   1      21.957 -17.236  -0.921  0.00  0.00     0.163 HD
BRANCH  31  33
ATOM     33  C   UNL d   1      21.376 -19.078  -0.074  0.00  0.00     0.084 C 
ATOM     34  C   UNL d   1      21.030 -18.949   1.415  0.00  0.00     0.025 C 
ATOM     35  C   UNL d   1      19.949 -19.953   1.830  0.00  0.00     0.002 C 
ATOM     36  C   UNL d   1      18.710 -19.851   0.946  0.00  0.00     0.000 C 
ATOM     37  C   UNL d   1      19.069 -20.075  -0.520  0.00  0.00     0.002 C 
ATOM     38  C   UNL d   1      20.116 -19.077  -0.951  0.00  0.00     0.025 C 
ENDBRANCH  31  33
ENDBRANCH  27  29
ENDBRANCH  20  22
ENDBRANCH   1  20
TORSDOF 10
ENDMDL
MODEL 5
REMARK VINA RESULT:    -8.801      2.836     10.100
REMARK INTER + INTRA:         -14.049
REMARK INTER:                 -11.784
REMARK INTRA:                  -2.265
REMARK CONF_INDEPENDENT:        2.983
REMARK UNBOUND:                -2.265
REMARK  10 active torsions:
REMARK  status: ('A' for Active; 'I' for Inactive)
REMARK    1  A    between atoms: O_2  and  C_3 
REMARK    2  A    between atoms: C_3  and  C_4 
REMARK    3  A    between atoms: C_4  and  N_5 
REMARK       I    between atoms: N_5  and  C_6 
REMARK    4  A    between atoms: C_6  and  C_8 
REMARK    5  A    between atoms: C_12  and  N_13 
REMARK       I    between atoms: N_13  and  C_14 
REMARK    6  A    between atoms: C_14  and  C_16 
REMARK    7  A    between atoms: C_16  and  N_17 
REMARK    8  A    between atoms: N_17  and  C_18 
REMARK    9  A    between atoms: C_23  and  C_24 
REMARK       I    between atoms: C_24  and  N_26 
REMARK   10  A    between atoms: N_26  and  C_27 
ROOT
ATOM      1  C   UNL d   1      25.738 -13.514  -4.292  0.00  0.00     0.223 C 
ENDROOT
BRANCH   1   2
ATOM      2  C   UNL d   1      26.672 -14.671  -4.627  0.00  0.00     0.239 C 
ATOM      3  N   UNL d   1      28.032 -14.473  -4.391  0.00  0.00    -0.326 N 
ATOM      4  H   UNL d   1      28.344 -13.595  -3.989  0.00  0.00     0.169 HD
ATOM      5  O   UNL d   1      26.159 -15.686  -5.105  0.00  0.00    -0.271 OA
BRANCH   3   6
ATOM      6  C   UNL d   1      29.023 -15.467  -4.624  0.00  0.00     0.035 A 
ATOM      7  C   UNL d   1      29.158 -16.573  -3.778  0.00  0.00     0.029 A 
ATOM      8  C   UNL d   1      30.096 -17.579  -4.084  0.00  0.00     0.003 A 
ATOM      9  C   UNL d   1      30.951 -17.456  -5.190  0.00  0.00     0.017 A 
ATOM     10  C   UNL d   1      30.835 -16.344  -6.016  0.00  0.00     0.034 A 
ATOM     11  C   UNL d   1      29.870 -15.387  -5.730  0.00  0.00     0.046 A 
BRANCH  10  12
ATOM     12  C   UNL d   1      31.624 -16.173  -7.265  0.00  0.00     0.251 C 
ATOM     13  N   UNL d   1      31.779 -14.871  -7.707  0.00  0.00    -0.355 N 
ATOM     14  H   UNL d   1      31.384 -14.108  -7.171  0.00  0.00     0.162 HD
ATOM     15  O   UNL d   1      32.065 -17.157  -7.846  0.00  0.00    -0.268 OA
BRANCH  13  16
ATOM     16  C   UNL d   1      32.497 -14.561  -8.935  0.00  0.00     0.149 C 
BRANCH  16  17
ATOM     17  C   UNL d   1      32.597 -13.058  -9.198  0.00  0.00     0.186 C 
BRANCH  17  18
ATOM     18  O   UNL d   1      31.594 -12.354  -8.464  0.00  0.00    -0.394 OA
ATOM     19  C   UNL d   1      30.372 -12.299  -9.191  0.00  0.00     0.201 C 
ENDBRANCH  17  18
ENDBRANCH  16  17
ENDBRANCH  13  16
ENDBRANCH  10  12
ENDBRANCH   3   6
ENDBRANCH   1   2
BRANCH   1  20
ATOM     20  N   UNL d   1      24.911 -13.928  -3.155  0.00  0.00    -0.381 N 
ATOM     21  H   UNL d   1      24.270 -13.208  -2.804  0.00  0.00     0.160 HD
BRANCH  20  22
ATOM     22  C   UNL d   1      25.188 -14.986  -2.330  0.00  0.00     0.029 A 
ATOM     23  C   UNL d   1      26.459 -15.095  -1.764  0.00  0.00     0.031 A 
ATOM     24  C   UNL d   1      26.774 -16.151  -0.912  0.00  0.00     0.027 A 
ATOM     25  C   UNL d   1      25.803 -17.089  -0.575  0.00  0.00     0.049 A 
ATOM     26 CL   UNL d   1      26.304 -18.238   0.626  0.00  0.00    -0.083 Cl
ATOM     27  C   UNL d   1      24.524 -17.017  -1.164  0.00  0.00     0.055 A 
ATOM     28  C   UNL d   1      24.232 -15.946  -2.016  0.00  0.00     0.048 A 
BRANCH  27  29
ATOM     29  C   UNL d   1      23.519 -18.083  -0.956  0.00  0.00     0.253 C 
ATOM     30  O   UNL d   1      23.556 -19.048  -1.718  0.00  0.00    -0.268 OA
ATOM     31  N   UNL d   1      22.560 -17.971   0.042  0.00  0.00    -0.352 N 
ATOM     32  H   UNL d   1      22.437 -17.114   0.559  0.00  0.00     0.163 HD
BRANCH  31  33
ATOM     33  C   UNL d   1      21.557 -19.012   0.291  0.00  0.00     0.084 C 
ATOM     34  C   UNL d   1      20.997 -18.947   1.719  0.00  0.00     0.025 C 
ATOM     35  C   UNL d   1      19.888 -19.982   1.935  0.00  0.00     0.002 C 
ATOM     36  C   UNL d   1      18.788 -19.864   0.885  0.00  0.00     0.000 C 
ATOM     37  C   UNL d   1      19.359 -20.024  -0.520  0.00  0.00     0.002 C 
ATOM     38  C   UNL d   1      20.437 -18.994  -0.759  0.00  0.00     0.025 C 
ENDBRANCH  31  33
ENDBRANCH  27  29
ENDBRANCH  20  22
ENDBRANCH   1  20
TORSDOF 10
ENDMDL
MODEL 6
REMARK VINA RESULT:    -8.555      3.995      6.625
REMARK INTER + INTRA:         -14.193
REMARK INTER:                 -11.538
REMARK INTRA:                  -2.655
REMARK CONF_INDEPENDENT:        2.983
REMARK UNBOUND:                -2.655
REMARK  10 active torsions:
REMARK  status: ('A' for Active; 'I' for Inactive)
REMARK    1  A    between atoms: O_2  and  C_3 
REMARK    2  A    between atoms: C_3  and  C_4 
REMARK    3  A    between atoms: C_4  and  N_5 
REMARK       I    between atoms: N_5  and  C_6 
REMARK    4  A    between atoms: C_6  and  C_8 
REMARK    5  A    between atoms: C_12  and  N_13 
REMARK       I    between atoms: N_13  and  C_14 
REMARK    6  A    between atoms: C_14  and  C_16 
REMARK    7  A    between atoms: C_16  and  N_17 
REMARK    8  A    between atoms: N_17  and  C_18 
REMARK    9  A    between atoms: C_23  and  C_24 
REMARK       I    between atoms: C_24  and  N_26 
REMARK   10  A    between atoms: N_26  and  C_27 
ROOT
ATOM      1  C   UNL d   1      25.440 -13.586  -3.760  0.00  0.00     0.223 C 
ENDROOT
BRANCH   1   2
ATOM      2  C   UNL d   1      25.320 -14.998  -3.199  0.00  0.00     0.239 C 
ATOM      3  N   UNL d   1      25.015 -15.114  -1.843  0.00  0.00    -0.326 N 
ATOM      4  H   UNL d   1      24.862 -14.275  -1.294  0.00  0.00     0.169 HD
ATOM      5  O   UNL d   1      25.525 -15.931  -3.980  0.00  0.00    -0.271 OA
BRANCH   3   6
ATOM      6  C   UNL d   1      24.841 -16.362  -1.182  0.00  0.00     0.035 A 
ATOM      7  C   UNL d   1      25.822 -16.876  -0.325  0.00  0.00     0.029 A 
ATOM      8  C   UNL d   1      25.582 -18.075   0.374  0.00  0.00     0.003 A 
ATOM      9  C   UNL d   1      24.399 -18.804   0.173  0.00  0.00     0.017 A 
ATOM     10  C   UNL d   1      23.437 -18.307  -0.697  0.00  0.00     0.034 A 
ATOM     11  C   UNL d   1      23.666 -17.098  -1.341  0.00  0.00     0.046 A 
BRANCH  10  12
ATOM     12  C   UNL d   1      22.113 -18.953  -0.901  0.00  0.00     0.251 C 
ATOM     13  N   UNL d   1      21.340 -19.117   0.235  0.00  0.00    -0.355 N 
ATOM     14  H   UNL d   1      21.683 -18.784   1.128  0.00  0.00     0.162 HD
ATOM     15  O   UNL d   1      21.782 -19.325  -2.020  0.00  0.00    -0.268 OA
BRANCH  13  16
ATOM     16  C   UNL d   1      20.039 -19.767   0.188  0.00  0.00     0.149 C 
BRANCH  16  17
ATOM     17  C   UNL d   1      19.303 -19.718   1.527  0.00  0.00     0.186 C 
BRANCH  17  18
ATOM     18  O   UNL d   1      20.232 -19.565   2.602  0.00  0.00    -0.394 OA
ATOM     19  C   UNL d   1      19.925 -20.451   3.673  0.00  0.00     0.201 C 
ENDBRANCH  17  18
ENDBRANCH  16  17
ENDBRANCH  13  16
ENDBRANCH  10  12
ENDBRANCH   3   6
ENDBRANCH   1   2
BRANCH   1  20
ATOM     20  N   UNL d   1      26.673 -13.001  -3.227  0.00  0.00    -0.381 N 
ATOM     21  H   UNL d   1      27.024 -12.188  -3.745  0.00  0.00     0.160 HD
BRANCH  20  22
ATOM     22  C   UNL d   1      27.549 -13.646  -2.394  0.00  0.00     0.029 A 
ATOM     23  C   UNL d   1      28.414 -14.605  -2.923  0.00  0.00     0.031 A 
ATOM     24  C   UNL d   1      29.324 -15.274  -2.108  0.00  0.00     0.027 A 
ATOM     25  C   UNL d   1      29.416 -14.956  -0.757  0.00  0.00     0.049 A 
ATOM     26 CL   UNL d   1      30.712 -15.753   0.079  0.00  0.00    -0.083 Cl
ATOM     27  C   UNL d   1      28.527 -14.017  -0.195  0.00  0.00     0.055 A 
ATOM     28  C   UNL d   1      27.621 -13.358  -1.035  0.00  0.00     0.048 A 
BRANCH  27  29
ATOM     29  C   UNL d   1      28.486 -13.770   1.263  0.00  0.00     0.253 C 
ATOM     30  O   UNL d   1      28.327 -12.608   1.633  0.00  0.00    -0.268 OA
ATOM     31  N   UNL d   1      28.653 -14.812   2.165  0.00  0.00    -0.352 N 
ATOM     32  H   UNL d   1      28.937 -15.731   1.861  0.00  0.00     0.163 HD
BRANCH  31  33
ATOM     33  C   UNL d   1      28.604 -14.613   3.618  0.00  0.00     0.084 C 
ATOM     34  C   UNL d   1      29.955 -14.162   4.187  0.00  0.00     0.025 C 
ATOM     35  C   UNL d   1      29.865 -13.874   5.689  0.00  0.00     0.002 C 
ATOM     36  C   UNL d   1      28.751 -12.882   6.011  0.00  0.00     0.000 C 
ATOM     37  C   UNL d   1      27.404 -13.399   5.515  0.00  0.00     0.002 C 
ATOM     38  C   UNL d   1      27.470 -13.664   4.030  0.00  0.00     0.025 C 
ENDBRANCH  31  33
ENDBRANCH  27  29
ENDBRANCH  20  22
ENDBRANCH   1  20
TORSDOF 10
ENDMDL
MODEL 7
REMARK VINA RESULT:    -7.716      3.196      6.912
REMARK INTER + INTRA:         -14.330
REMARK INTER:                 -10.699
REMARK INTRA:                  -3.631
REMARK CONF_INDEPENDENT:        2.983
REMARK UNBOUND:                -3.631
REMARK  10 active torsions:
REMARK  status: ('A' for Active; 'I' for Inactive)
REMARK    1  A    between atoms: O_2  and  C_3 
REMARK    2  A    between atoms: C_3  and  C_4 
REMARK    3  A    between atoms: C_4  and  N_5 
REMARK       I    between atoms: N_5  and  C_6 
REMARK    4  A    between atoms: C_6  and  C_8 
REMARK    5  A    between atoms: C_12  and  N_13 
REMARK       I    between atoms: N_13  and  C_14 
REMARK    6  A    between atoms: C_14  and  C_16 
REMARK    7  A    between atoms: C_16  and  N_17 
REMARK    8  A    between atoms: N_17  and  C_18 
REMARK    9  A    between atoms: C_23  and  C_24 
REMARK       I    between atoms: C_24  and  N_26 
REMARK   10  A    between atoms: N_26  and  C_27 
ROOT
ATOM      1  C   UNL d   1      30.386 -15.395  -6.986  0.00  0.00     0.223 C 
ENDROOT
BRANCH   1   2
ATOM      2  C   UNL d   1      30.532 -15.483  -5.471  0.00  0.00     0.239 C 
ATOM      3  N   UNL d   1      29.865 -16.529  -4.833  0.00  0.00    -0.326 N 
ATOM      4  H   UNL d   1      29.339 -17.196  -5.388  0.00  0.00     0.169 HD
ATOM      5  O   UNL d   1      31.207 -14.610  -4.920  0.00  0.00    -0.271 OA
BRANCH   3   6
ATOM      6  C   UNL d   1      29.929 -16.762  -3.430  0.00  0.00     0.035 A 
ATOM      7  C   UNL d   1      30.663 -17.829  -2.902  0.00  0.00     0.029 A 
ATOM      8  C   UNL d   1      30.770 -17.983  -1.505  0.00  0.00     0.003 A 
ATOM      9  C   UNL d   1      30.092 -17.119  -0.631  0.00  0.00     0.017 A 
ATOM     10  C   UNL d   1      29.342 -16.075  -1.156  0.00  0.00     0.034 A 
ATOM     11  C   UNL d   1      29.288 -15.906  -2.534  0.00  0.00     0.046 A 
BRANCH  10  12
ATOM     12  C   UNL d   1      28.671 -15.050  -0.312  0.00  0.00     0.251 C 
ATOM     13  N   UNL d   1      28.517 -15.375   1.024  0.00  0.00    -0.355 N 
ATOM     14  H   UNL d   1      28.873 -16.257   1.371  0.00  0.00     0.162 HD
ATOM     15  O   UNL d   1      28.272 -14.009  -0.820  0.00  0.00    -0.268 OA
BRANCH  13  16
ATOM     16  C   UNL d   1      27.845 -14.480   1.956  0.00  0.00     0.149 C 
BRANCH  16  17
ATOM     17  C   UNL d   1      28.623 -14.290   3.258  0.00  0.00     0.186 C 
BRANCH  17  18
ATOM     18  O   UNL d   1      27.765 -14.482   4.385  0.00  0.00    -0.394 OA
ATOM     19  C   UNL d   1      28.516 -14.807   5.550  0.00  0.00     0.201 C 
ENDBRANCH  17  18
ENDBRANCH  16  17
ENDBRANCH  13  16
ENDBRANCH  10  12
ENDBRANCH   3   6
ENDBRANCH   1   2
BRANCH   1  20
ATOM     20  N   UNL d   1      29.106 -14.739  -7.270  0.00  0.00    -0.381 N 
ATOM     21  H   UNL d   1      28.976 -14.454  -8.247  0.00  0.00     0.160 HD
BRANCH  20  22
ATOM     22  C   UNL d   1      28.298 -14.160  -6.327  0.00  0.00     0.029 A 
ATOM     23  C   UNL d   1      28.249 -12.768  -6.232  0.00  0.00     0.031 A 
ATOM     24  C   UNL d   1      27.432 -12.144  -5.293  0.00  0.00     0.027 A 
ATOM     25  C   UNL d   1      26.611 -12.905  -4.466  0.00  0.00     0.049 A 
ATOM     26 CL   UNL d   1      25.531 -11.974  -3.476  0.00  0.00    -0.083 Cl
ATOM     27  C   UNL d   1      26.672 -14.313  -4.522  0.00  0.00     0.055 A 
ATOM     28  C   UNL d   1      27.502 -14.916  -5.474  0.00  0.00     0.048 A 
BRANCH  27  29
ATOM     29  C   UNL d   1      25.937 -15.154  -3.552  0.00  0.00     0.253 C 
ATOM     30  O   UNL d   1      25.170 -16.000  -4.010  0.00  0.00    -0.268 OA
ATOM     31  N   UNL d   1      26.093 -14.967  -2.186  0.00  0.00    -0.352 N 
ATOM     32  H   UNL d   1      26.600 -14.176  -1.817  0.00  0.00     0.163 HD
BRANCH  31  33
ATOM     33  C   UNL d   1      25.395 -15.790  -1.192  0.00  0.00     0.084 C 
ATOM     34  C   UNL d   1      23.904 -15.952  -1.517  0.00  0.00     0.025 C 
ATOM     35  C   UNL d   1      23.209 -16.885  -0.520  0.00  0.00     0.002 C 
ATOM     36  C   UNL d   1      23.919 -18.231  -0.413  0.00  0.00     0.000 C 
ATOM     37  C   UNL d   1      25.375 -18.045   0.003  0.00  0.00     0.002 C 
ATOM     38  C   UNL d   1      26.081 -17.148  -0.985  0.00  0.00     0.025 C 
ENDBRANCH  31  33
ENDBRANCH  27  29
ENDBRANCH  20  22
ENDBRANCH   1  20
TORSDOF 10
ENDMDL
MODEL 8
REMARK VINA RESULT:    -7.462      4.046      7.914
REMARK INTER + INTRA:         -14.004
REMARK INTER:                 -10.445
REMARK INTRA:                  -3.559
REMARK CONF_INDEPENDENT:        2.983
REMARK UNBOUND:                -3.559
REMARK  10 active torsions:
REMARK  status: ('A' for Active; 'I' for Inactive)
REMARK    1  A    between atoms: O_2  and  C_3 
REMARK    2  A    between atoms: C_3  and  C_4 
REMARK    3  A    between atoms: C_4  and  N_5 
REMARK       I    between atoms: N_5  and  C_6 
REMARK    4  A    between atoms: C_6  and  C_8 
REMARK    5  A    between atoms: C_12  and  N_13 
REMARK       I    between atoms: N_13  and  C_14 
REMARK    6  A    between atoms: C_14  and  C_16 
REMARK    7  A    between atoms: C_16  and  N_17 
REMARK    8  A    between atoms: N_17  and  C_18 
REMARK    9  A    between atoms: C_23  and  C_24 
REMARK       I    between atoms: C_24  and  N_26 
REMARK   10  A    between atoms: N_26  and  C_27 
ROOT
ATOM      1  C   UNL d   1      26.108  -9.298  -5.044  0.00  0.00     0.223 C 
ENDROOT
BRANCH   1   2
ATOM      2  C   UNL d   1      25.800  -9.031  -3.575  0.00  0.00     0.239 C 
ATOM      3  N   UNL d   1      26.277  -7.835  -3.038  0.00  0.00    -0.326 N 
ATOM      4  H   UNL d   1      26.778  -7.187  -3.635  0.00  0.00     0.169 HD
ATOM      5  O   UNL d   1      25.174  -9.902  -2.965  0.00  0.00    -0.271 OA
BRANCH   3   6
ATOM      6  C   UNL d   1      26.045  -7.431  -1.693  0.00  0.00     0.035 A 
ATOM      7  C   UNL d   1      25.511  -6.173  -1.393  0.00  0.00     0.029 A 
ATOM      8  C   UNL d   1      25.220  -5.837  -0.055  0.00  0.00     0.003 A 
ATOM      9  C   UNL d   1      25.524  -6.720   0.993  0.00  0.00     0.017 A 
ATOM     10  C   UNL d   1      26.079  -7.958   0.696  0.00  0.00     0.034 A 
ATOM     11  C   UNL d   1      26.312  -8.295  -0.631  0.00  0.00     0.046 A 
BRANCH  10  12
ATOM     12  C   UNL d   1      26.342  -8.999   1.726  0.00  0.00     0.251 C 
ATOM     13  N   UNL d   1      26.626 -10.265   1.245  0.00  0.00    -0.355 N 
ATOM     14  H   UNL d   1      26.665 -10.426   0.246  0.00  0.00     0.162 HD
ATOM     15  O   UNL d   1      26.273  -8.711   2.914  0.00  0.00    -0.268 OA
BRANCH  13  16
ATOM     16  C   UNL d   1      26.869 -11.387   2.142  0.00  0.00     0.149 C 
BRANCH  16  17
ATOM     17  C   UNL d   1      27.144 -12.692   1.395  0.00  0.00     0.186 C 
BRANCH  17  18
ATOM     18  O   UNL d   1      26.707 -12.593   0.038  0.00  0.00    -0.394 OA
ATOM     19  C   UNL d   1      27.806 -12.362  -0.837  0.00  0.00     0.201 C 
ENDBRANCH  17  18
ENDBRANCH  16  17
ENDBRANCH  13  16
ENDBRANCH  10  12
ENDBRANCH   3   6
ENDBRANCH   1   2
BRANCH   1  20
ATOM     20  N   UNL d   1      25.533 -10.602  -5.387  0.00  0.00    -0.381 N 
ATOM     21  H   UNL d   1      24.509 -10.619  -5.443  0.00  0.00     0.160 HD
BRANCH  20  22
ATOM     22  C   UNL d   1      26.181 -11.801  -5.255  0.00  0.00     0.029 A 
ATOM     23  C   UNL d   1      27.295 -12.066  -6.052  0.00  0.00     0.031 A 
ATOM     24  C   UNL d   1      27.985 -13.271  -5.938  0.00  0.00     0.027 A 
ATOM     25  C   UNL d   1      27.599 -14.210  -4.987  0.00  0.00     0.049 A 
ATOM     26 CL   UNL d   1      28.662 -15.576  -4.857  0.00  0.00    -0.083 Cl
ATOM     27  C   UNL d   1      26.454 -13.977  -4.197  0.00  0.00     0.055 A 
ATOM     28  C   UNL d   1      25.778 -12.759  -4.331  0.00  0.00     0.048 A 
BRANCH  27  29
ATOM     29  C   UNL d   1      25.919 -15.017  -3.291  0.00  0.00     0.253 C 
ATOM     30  O   UNL d   1      25.530 -16.065  -3.804  0.00  0.00    -0.268 OA
ATOM     31  N   UNL d   1      25.838 -14.795  -1.923  0.00  0.00    -0.352 N 
ATOM     32  H   UNL d   1      26.011 -13.883  -1.527  0.00  0.00     0.163 HD
BRANCH  31  33
ATOM     33  C   UNL d   1      25.328 -15.805  -0.989  0.00  0.00     0.084 C 
ATOM     34  C   UNL d   1      23.903 -16.253  -1.339  0.00  0.00     0.025 C 
ATOM     35  C   UNL d   1      23.420 -17.369  -0.409  0.00  0.00     0.002 C 
ATOM     36  C   UNL d   1      24.394 -18.543  -0.376  0.00  0.00     0.000 C 
ATOM     37  C   UNL d   1      25.781 -18.084   0.066  0.00  0.00     0.002 C 
ATOM     38  C   UNL d   1      26.283 -17.000  -0.858  0.00  0.00     0.025 C 
ENDBRANCH  31  33
ENDBRANCH  27  29
ENDBRANCH  20  22
ENDBRANCH   1  20
TORSDOF 10
ENDMDL
