MODEL 1
REMARK VINA RESULT:   -10.214      0.000      0.000
REMARK INTER + INTRA:         -16.734
REMARK INTER:                 -13.197
REMARK INTRA:                  -3.537
REMARK CONF_INDEPENDENT:        2.983
REMARK UNBOUND:                -3.537
REMARK  10 active torsions:
REMARK  status: ('A' for Active; 'I' for Inactive)
REMARK    1  A    between atoms: C_2  and  C_3 
REMARK    2  A    between atoms: C_3  and  C_4 
REMARK    3  A    between atoms: C_4  and  C_5 
REMARK    4  A    between atoms: C_4  and  N_13 
REMARK       I    between atoms: C_5  and  N_7 
REMARK    5  A    between atoms: N_7  and  C_8 
REMARK       I    between atoms: N_13  and  C_14 
REMARK    6  A    between atoms: N_13  and  C_31 
REMARK    7  A    between atoms: C_14  and  C_16 
REMARK    8  A    between atoms: C_19  and  C_20 
REMARK       I    between atoms: C_20  and  N_22 
REMARK    9  A    between atoms: N_22  and  C_23 
REMARK   10  A    between atoms: C_29  and  N_30 
ROOT
ATOM      1  N   UNL d   1      27.282 -15.212  -2.121  0.00  0.00    -0.299 N 
ATOM      2  C   UNL d   1      27.018 -16.006  -0.924  0.00  0.00     0.269 C 
ATOM      3  O   UNL d   1      27.773 -15.940   0.049  0.00  0.00    -0.266 OA
ENDROOT
BRANCH   1   4
ATOM      4  C   UNL d   1      26.301 -14.912  -3.257  0.00  0.00     0.185 C 
BRANCH   4   5
ATOM      5  C   UNL d   1      25.884 -13.463  -3.408  0.00  0.00     0.035 C 
BRANCH   5   6
ATOM      6  C   UNL d   1      25.155 -12.954  -4.633  0.00  0.00    -0.002 C 
ATOM      7  C   UNL d   1      25.908 -11.811  -5.254  0.00  0.00     0.005 C 
ENDBRANCH   5   6
ENDBRANCH   4   5
BRANCH   4   8
ATOM      8  C   UNL d   1      26.830 -15.060  -4.658  0.00  0.00     0.241 C 
ATOM      9  O   UNL d   1      26.421 -15.950  -5.398  0.00  0.00    -0.271 OA
ATOM     10  N   UNL d   1      27.882 -14.213  -4.973  0.00  0.00    -0.355 N 
ATOM     11  H   UNL d   1      28.417 -13.760  -4.242  0.00  0.00     0.162 HD
BRANCH  10  12
ATOM     12  C   UNL d   1      28.556 -14.377  -6.229  0.00  0.00     0.084 C 
ATOM     13  C   UNL d   1      29.464 -13.186  -6.459  0.00  0.00     0.025 C 
ATOM     14  C   UNL d   1      30.526 -13.679  -7.393  0.00  0.00     0.002 C 
ATOM     15  C   UNL d   1      30.650 -15.172  -7.118  0.00  0.00     0.002 C 
ATOM     16  C   UNL d   1      29.520 -15.551  -6.170  0.00  0.00     0.025 C 
ENDBRANCH  10  12
ENDBRANCH   4   8
ENDBRANCH   1   4
BRANCH   1  17
ATOM     17  C   UNL d   1      28.606 -14.556  -2.243  0.00  0.00     0.038 A 
ATOM     18  C   UNL d   1      29.786 -15.249  -2.590  0.00  0.00     0.033 A 
ATOM     19  C   UNL d   1      31.030 -14.627  -2.751  0.00  0.00     0.044 A 
ATOM     20  C   UNL d   1      31.141 -13.280  -2.507  0.00  0.00     0.116 A 
ATOM     21  F   UNL d   1      32.331 -12.681  -2.646  0.00  0.00    -0.206 F 
ATOM     22  C   UNL d   1      30.026 -12.555  -2.112  0.00  0.00     0.044 A 
ATOM     23  C   UNL d   1      28.768 -13.184  -1.990  0.00  0.00     0.033 A 
ENDBRANCH   1  17
BRANCH   2  24
ATOM     24  C   UNL d   1      25.866 -16.920  -0.841  0.00  0.00     0.115 C 
ATOM     25  S   UNL d   1      26.065 -18.461  -0.115  0.00  0.00     0.019 SA
ATOM     26  N   UNL d   1      24.451 -18.798   0.031  0.00  0.00    -0.203 NA
ATOM     27  C   UNL d   1      23.716 -17.839  -0.563  0.00  0.00     0.155 C 
ATOM     28  C   UNL d   1      24.517 -16.788  -1.180  0.00  0.00     0.065 C 
BRANCH  27  29
ATOM     29  C   UNL d   1      22.224 -17.894  -0.368  0.00  0.00     0.273 C 
ATOM     30  O   UNL d   1      21.505 -17.136  -0.975  0.00  0.00    -0.266 OA
ATOM     31  N   UNL d   1      21.727 -18.967   0.429  0.00  0.00    -0.351 N 
ATOM     32  H   UNL d   1      22.373 -19.534   0.926  0.00  0.00     0.163 HD
BRANCH  31  33
ATOM     33  C   UNL d   1      20.326 -19.332   0.663  0.00  0.00     0.084 C 
ATOM     34  C   UNL d   1      19.770 -20.136  -0.494  0.00  0.00     0.025 C 
ATOM     35  C   UNL d   1      18.308 -20.450  -0.352  0.00  0.00     0.002 C 
ATOM     36  C   UNL d   1      18.038 -21.198   0.938  0.00  0.00     0.000 C 
ATOM     37  C   UNL d   1      18.558 -20.414   2.142  0.00  0.00     0.002 C 
ATOM     38  C   UNL d   1      20.057 -20.087   2.003  0.00  0.00     0.025 C 
ENDBRANCH  31  33
ENDBRANCH  27  29
BRANCH  28  39
ATOM     39  N   UNL d   1      24.008 -15.597  -1.666  0.00  0.00    -0.299 NA
ATOM     40  H   UNL d   1      23.875 -15.580  -2.676  0.00  0.00     0.124 HD
ATOM     41  H   UNL d   1      23.076 -15.363  -1.321  0.00  0.00     0.124 HD
ENDBRANCH  28  39
ENDBRANCH   2  24
TORSDOF 10
ENDMDL
MODEL 2
REMARK VINA RESULT:    -9.536      4.954      8.083
REMARK INTER + INTRA:         -15.066
REMARK INTER:                 -12.519
REMARK INTRA:                  -2.547
REMARK CONF_INDEPENDENT:        2.983
REMARK UNBOUND:                -2.547
REMARK  10 active torsions:
REMARK  status: ('A' for Active; 'I' for Inactive)
REMARK    1  A    between atoms: C_2  and  C_3 
REMARK    2  A    between atoms: C_3  and  C_4 
REMARK    3  A    between atoms: C_4  and  C_5 
REMARK    4  A    between atoms: C_4  and  N_13 
REMARK       I    between atoms: C_5  and  N_7 
REMARK    5  A    between atoms: N_7  and  C_8 
REMARK       I    between atoms: N_13  and  C_14 
REMARK    6  A    between atoms: N_13  and  C_31 
REMARK    7  A    between atoms: C_14  and  C_16 
REMARK    8  A    between atoms: C_19  and  C_20 
REMARK       I    between atoms: C_20  and  N_22 
REMARK    9  A    between atoms: N_22  and  C_23 
REMARK   10  A    between atoms: C_29  and  N_30 
ROOT
ATOM      1  N   UNL d   1      28.308 -15.097  -1.587  0.00  0.00    -0.299 N 
ATOM      2  C   UNL d   1      29.141 -14.416  -0.599  0.00  0.00     0.269 C 
ATOM      3  O   UNL d   1      30.341 -14.230  -0.816  0.00  0.00    -0.266 OA
ENDROOT
BRANCH   1   4
ATOM      4  C   UNL d   1      26.778 -15.112  -1.642  0.00  0.00     0.185 C 
BRANCH   4   5
ATOM      5  C   UNL d   1      26.167 -15.615  -2.935  0.00  0.00     0.035 C 
BRANCH   5   6
ATOM      6  C   UNL d   1      25.834 -14.690  -4.085  0.00  0.00    -0.002 C 
ATOM      7  C   UNL d   1      24.654 -13.826  -3.738  0.00  0.00     0.005 C 
ENDBRANCH   5   6
ENDBRANCH   4   5
BRANCH   4   8
ATOM      8  C   UNL d   1      26.084 -16.109  -0.753  0.00  0.00     0.241 C 
ATOM      9  O   UNL d   1      26.724 -16.925  -0.097  0.00  0.00    -0.271 OA
ATOM     10  N   UNL d   1      24.700 -16.105  -0.849  0.00  0.00    -0.355 N 
ATOM     11  H   UNL d   1      24.239 -15.682  -1.645  0.00  0.00     0.162 HD
BRANCH  10  12
ATOM     12  C   UNL d   1      23.952 -17.116  -0.158  0.00  0.00     0.084 C 
ATOM     13  C   UNL d   1      22.487 -16.979  -0.523  0.00  0.00     0.025 C 
ATOM     14  C   UNL d   1      21.900 -18.338  -0.297  0.00  0.00     0.002 C 
ATOM     15  C   UNL d   1      23.044 -19.319  -0.518  0.00  0.00     0.002 C 
ATOM     16  C   UNL d   1      24.318 -18.499  -0.674  0.00  0.00     0.025 C 
ENDBRANCH  10  12
ENDBRANCH   4   8
ENDBRANCH   1   4
BRANCH   1  17
ATOM     17  C   UNL d   1      28.985 -15.795  -2.705  0.00  0.00     0.038 A 
ATOM     18  C   UNL d   1      29.642 -17.036  -2.560  0.00  0.00     0.033 A 
ATOM     19  C   UNL d   1      30.245 -17.723  -3.622  0.00  0.00     0.044 A 
ATOM     20  C   UNL d   1      30.257 -17.147  -4.870  0.00  0.00     0.116 A 
ATOM     21  F   UNL d   1      30.842 -17.791  -5.887  0.00  0.00    -0.206 F 
ATOM     22  C   UNL d   1      29.672 -15.903  -5.062  0.00  0.00     0.044 A 
ATOM     23  C   UNL d   1      29.034 -15.237  -3.993  0.00  0.00     0.033 A 
ENDBRANCH   1  17
BRANCH   2  24
ATOM     24  C   UNL d   1      28.592 -13.949   0.685  0.00  0.00     0.115 C 
ATOM     25  S   UNL d   1      27.067 -13.164   0.714  0.00  0.00     0.019 SA
ATOM     26  N   UNL d   1      26.850 -13.259   2.352  0.00  0.00    -0.203 NA
ATOM     27  C   UNL d   1      27.950 -13.761   2.943  0.00  0.00     0.155 C 
ATOM     28  C   UNL d   1      29.027 -14.067   2.008  0.00  0.00     0.065 C 
BRANCH  27  29
ATOM     29  C   UNL d   1      27.856 -14.084   4.410  0.00  0.00     0.273 C 
ATOM     30  O   UNL d   1      27.724 -15.231   4.771  0.00  0.00    -0.266 OA
ATOM     31  N   UNL d   1      28.086 -13.006   5.315  0.00  0.00    -0.351 N 
ATOM     32  H   UNL d   1      28.155 -12.083   4.953  0.00  0.00     0.163 HD
BRANCH  31  33
ATOM     33  C   UNL d   1      28.191 -13.071   6.776  0.00  0.00     0.084 C 
ATOM     34  C   UNL d   1      29.245 -14.070   7.204  0.00  0.00     0.025 C 
ATOM     35  C   UNL d   1      29.323 -14.251   8.693  0.00  0.00     0.002 C 
ATOM     36  C   UNL d   1      29.592 -12.930   9.385  0.00  0.00     0.000 C 
ATOM     37  C   UNL d   1      28.537 -11.891   9.005  0.00  0.00     0.002 C 
ATOM     38  C   UNL d   1      28.450 -11.702   7.479  0.00  0.00     0.025 C 
ENDBRANCH  31  33
ENDBRANCH  27  29
BRANCH  28  39
ATOM     39  N   UNL d   1      30.168 -14.779   2.332  0.00  0.00    -0.299 NA
ATOM     40  H   UNL d   1      30.145 -15.208   3.255  0.00  0.00     0.124 HD
ATOM     41  H   UNL d   1      30.353 -15.580   1.726  0.00  0.00     0.124 HD
ENDBRANCH  28  39
ENDBRANCH   2  24
TORSDOF 10
ENDMDL
MODEL 3
REMARK VINA RESULT:    -9.462      1.449      2.512
REMARK INTER + INTRA:         -16.562
REMARK INTER:                 -12.445
REMARK INTRA:                  -4.117
REMARK CONF_INDEPENDENT:        2.983
REMARK UNBOUND:                -4.117
REMARK  10 active torsions:
REMARK  status: ('A' for Active; 'I' for Inactive)
REMARK    1  A    between atoms: C_2  and  C_3 
REMARK    2  A    between atoms: C_3  and  C_4 
REMARK    3  A    between atoms: C_4  and  C_5 
REMARK    4  A    between atoms: C_4  and  N_13 
REMARK       I    between atoms: C_5  and  N_7 
REMARK    5  A    between atoms: N_7  and  C_8 
REMARK       I    between atoms: N_13  and  C_14 
REMARK    6  A    between atoms: N_13  and  C_31 
REMARK    7  A    between atoms: C_14  and  C_16 
REMARK    8  A    between atoms: C_19  and  C_20 
REMARK       I    between atoms: C_20  and  N_22 
REMARK    9  A    between atoms: N_22  and  C_23 
REMARK   10  A    between atoms: C_29  and  N_30 
ROOT
ATOM      1  N   UNL d   1      27.616 -15.420  -2.097  0.00  0.00    -0.299 N 
ATOM      2  C   UNL d   1      27.711 -16.699  -1.399  0.00  0.00     0.269 C 
ATOM      3  O   UNL d   1      28.805 -17.246  -1.244  0.00  0.00    -0.266 OA
ENDROOT
BRANCH   1   4
ATOM      4  C   UNL d   1      26.427 -14.455  -2.084  0.00  0.00     0.185 C 
BRANCH   4   5
ATOM      5  C   UNL d   1      26.709 -13.064  -1.549  0.00  0.00     0.035 C 
BRANCH   5   6
ATOM      6  C   UNL d   1      27.636 -12.820  -0.378  0.00  0.00    -0.002 C 
ATOM      7  C   UNL d   1      26.952 -13.169   0.913  0.00  0.00     0.005 C 
ENDBRANCH   5   6
ENDBRANCH   4   5
BRANCH   4   8
ATOM      8  C   UNL d   1      25.919 -13.997  -3.425  0.00  0.00     0.241 C 
ATOM      9  O   UNL d   1      24.962 -14.547  -3.959  0.00  0.00    -0.271 OA
ATOM     10  N   UNL d   1      26.692 -13.021  -4.035  0.00  0.00    -0.355 N 
ATOM     11  H   UNL d   1      27.646 -12.857  -3.739  0.00  0.00     0.162 HD
BRANCH  10  12
ATOM     12  C   UNL d   1      26.380 -12.625  -5.378  0.00  0.00     0.084 C 
ATOM     13  C   UNL d   1      25.651 -11.296  -5.343  0.00  0.00     0.025 C 
ATOM     14  C   UNL d   1      25.899 -10.678  -6.685  0.00  0.00     0.002 C 
ATOM     15  C   UNL d   1      27.240 -11.232  -7.147  0.00  0.00     0.002 C 
ATOM     16  C   UNL d   1      27.650 -12.312  -6.153  0.00  0.00     0.025 C 
ENDBRANCH  10  12
ENDBRANCH   4   8
ENDBRANCH   1   4
BRANCH   1  17
ATOM     17  C   UNL d   1      28.803 -14.946  -2.847  0.00  0.00     0.038 A 
ATOM     18  C   UNL d   1      29.858 -14.222  -2.250  0.00  0.00     0.033 A 
ATOM     19  C   UNL d   1      31.004 -13.811  -2.943  0.00  0.00     0.044 A 
ATOM     20  C   UNL d   1      31.099 -14.066  -4.290  0.00  0.00     0.116 A 
ATOM     21  F   UNL d   1      32.186 -13.664  -4.962  0.00  0.00    -0.206 F 
ATOM     22  C   UNL d   1      30.068 -14.729  -4.942  0.00  0.00     0.044 A 
ATOM     23  C   UNL d   1      28.936 -15.173  -4.227  0.00  0.00     0.033 A 
ENDBRANCH   1  17
BRANCH   2  24
ATOM     24  C   UNL d   1      26.517 -17.386  -0.878  0.00  0.00     0.115 C 
ATOM     25  S   UNL d   1      26.618 -18.240   0.607  0.00  0.00     0.019 SA
ATOM     26  N   UNL d   1      24.987 -18.411   0.824  0.00  0.00    -0.203 NA
ATOM     27  C   UNL d   1      24.319 -17.953  -0.251  0.00  0.00     0.155 C 
ATOM     28  C   UNL d   1      25.190 -17.453  -1.310  0.00  0.00     0.065 C 
BRANCH  27  29
ATOM     29  C   UNL d   1      22.820 -17.867  -0.147  0.00  0.00     0.273 C 
ATOM     30  O   UNL d   1      22.223 -16.980  -0.710  0.00  0.00    -0.266 OA
ATOM     31  N   UNL d   1      22.164 -18.952   0.505  0.00  0.00    -0.351 N 
ATOM     32  H   UNL d   1      22.716 -19.632   0.976  0.00  0.00     0.163 HD
BRANCH  31  33
ATOM     33  C   UNL d   1      20.721 -19.187   0.622  0.00  0.00     0.084 C 
ATOM     34  C   UNL d   1      20.185 -19.907  -0.597  0.00  0.00     0.025 C 
ATOM     35  C   UNL d   1      18.693 -20.082  -0.576  0.00  0.00     0.002 C 
ATOM     36  C   UNL d   1      18.254 -20.830   0.666  0.00  0.00     0.000 C 
ATOM     37  C   UNL d   1      18.749 -20.127   1.929  0.00  0.00     0.002 C 
ATOM     38  C   UNL d   1      20.279 -19.942   1.914  0.00  0.00     0.025 C 
ENDBRANCH  31  33
ENDBRANCH  27  29
BRANCH  28  39
ATOM     39  N   UNL d   1      24.754 -16.746  -2.415  0.00  0.00    -0.299 NA
ATOM     40  H   UNL d   1      24.320 -15.851  -2.194  0.00  0.00     0.124 HD
ATOM     41  H   UNL d   1      25.496 -16.472  -3.062  0.00  0.00     0.124 HD
ENDBRANCH  28  39
ENDBRANCH   2  24
TORSDOF 10
ENDMDL
MODEL 4
REMARK VINA RESULT:    -8.785      1.963      2.992
REMARK INTER + INTRA:         -15.298
REMARK INTER:                 -11.768
REMARK INTRA:                  -3.530
REMARK CONF_INDEPENDENT:        2.983
REMARK UNBOUND:                -3.530
REMARK  10 active torsions:
REMARK  status: ('A' for Active; 'I' for Inactive)
REMARK    1  A    between atoms: C_2  and  C_3 
REMARK    2  A    between atoms: C_3  and  C_4 
REMARK    3  A    between atoms: C_4  and  C_5 
REMARK    4  A    between atoms: C_4  and  N_13 
REMARK       I    between atoms: C_5  and  N_7 
REMARK    5  A    between atoms: N_7  and  C_8 
REMARK       I    between atoms: N_13  and  C_14 
REMARK    6  A    between atoms: N_13  and  C_31 
REMARK    7  A    between atoms: C_14  and  C_16 
REMARK    8  A    between atoms: C_19  and  C_20 
REMARK       I    between atoms: C_20  and  N_22 
REMARK    9  A    between atoms: N_22  and  C_23 
REMARK   10  A    between atoms: C_29  and  N_30 
ROOT
ATOM      1  N   UNL d   1      27.934 -16.269  -1.385  0.00  0.00    -0.299 N 
ATOM      2  C   UNL d   1      26.997 -17.176  -0.729  0.00  0.00     0.269 C 
ATOM      3  O   UNL d   1      27.405 -18.190  -0.158  0.00  0.00    -0.266 OA
ENDROOT
BRANCH   1   4
ATOM      4  C   UNL d   1      27.657 -14.832  -1.834  0.00  0.00     0.185 C 
BRANCH   4   5
ATOM      5  C   UNL d   1      28.526 -13.761  -1.204  0.00  0.00     0.035 C 
BRANCH   5   6
ATOM      6  C   UNL d   1      28.961 -13.821   0.245  0.00  0.00    -0.002 C 
ATOM      7  C   UNL d   1      27.913 -13.208   1.131  0.00  0.00     0.005 C 
ENDBRANCH   5   6
ENDBRANCH   4   5
BRANCH   4   8
ATOM      8  C   UNL d   1      28.013 -14.491  -3.256  0.00  0.00     0.241 C 
ATOM      9  O   UNL d   1      28.987 -13.791  -3.514  0.00  0.00    -0.271 OA
ATOM     10  N   UNL d   1      27.090 -14.914  -4.202  0.00  0.00    -0.355 N 
ATOM     11  H   UNL d   1      26.147 -15.161  -3.928  0.00  0.00     0.162 HD
BRANCH  10  12
ATOM     12  C   UNL d   1      27.258 -14.509  -5.568  0.00  0.00     0.084 C 
ATOM     13  C   UNL d   1      27.272 -12.995  -5.634  0.00  0.00     0.025 C 
ATOM     14  C   UNL d   1      28.027 -12.665  -6.885  0.00  0.00     0.002 C 
ATOM     15  C   UNL d   1      28.990 -13.826  -7.098  0.00  0.00     0.002 C 
ATOM     16  C   UNL d   1      28.637 -14.899  -6.076  0.00  0.00     0.025 C 
ENDBRANCH  10  12
ENDBRANCH   4   8
ENDBRANCH   1   4
BRANCH   1  17
ATOM     17  C   UNL d   1      29.327 -16.733  -1.587  0.00  0.00     0.038 A 
ATOM     18  C   UNL d   1      29.902 -16.931  -2.862  0.00  0.00     0.033 A 
ATOM     19  C   UNL d   1      31.231 -17.327  -3.059  0.00  0.00     0.044 A 
ATOM     20  C   UNL d   1      32.018 -17.596  -1.965  0.00  0.00     0.116 A 
ATOM     21  F   UNL d   1      33.286 -17.988  -2.147  0.00  0.00    -0.206 F 
ATOM     22  C   UNL d   1      31.492 -17.470  -0.687  0.00  0.00     0.044 A 
ATOM     23  C   UNL d   1      30.163 -17.034  -0.499  0.00  0.00     0.033 A 
ENDBRANCH   1  17
BRANCH   2  24
ATOM     24  C   UNL d   1      25.545 -16.930  -0.743  0.00  0.00     0.115 C 
ATOM     25  S   UNL d   1      24.894 -15.790  -1.847  0.00  0.00     0.019 SA
ATOM     26  N   UNL d   1      23.314 -16.248  -1.663  0.00  0.00    -0.203 NA
ATOM     27  C   UNL d   1      23.203 -17.172  -0.691  0.00  0.00     0.155 C 
ATOM     28  C   UNL d   1      24.473 -17.508  -0.056  0.00  0.00     0.065 C 
BRANCH  27  29
ATOM     29  C   UNL d   1      21.861 -17.831  -0.516  0.00  0.00     0.273 C 
ATOM     30  O   UNL d   1      20.906 -17.439  -1.146  0.00  0.00    -0.266 OA
ATOM     31  N   UNL d   1      21.829 -19.005   0.292  0.00  0.00    -0.351 N 
ATOM     32  H   UNL d   1      22.641 -19.253   0.809  0.00  0.00     0.163 HD
BRANCH  31  33
ATOM     33  C   UNL d   1      20.696 -19.909   0.513  0.00  0.00     0.084 C 
ATOM     34  C   UNL d   1      20.220 -19.848   1.950  0.00  0.00     0.025 C 
ATOM     35  C   UNL d   1      19.126 -20.830   2.256  0.00  0.00     0.002 C 
ATOM     36  C   UNL d   1      17.939 -20.621   1.339  0.00  0.00     0.000 C 
ATOM     37  C   UNL d   1      18.362 -20.700  -0.127  0.00  0.00     0.002 C 
ATOM     38  C   UNL d   1      19.485 -19.695  -0.449  0.00  0.00     0.025 C 
ENDBRANCH  31  33
ENDBRANCH  27  29
BRANCH  28  39
ATOM     39  N   UNL d   1      24.660 -18.566   0.814  0.00  0.00    -0.299 NA
ATOM     40  H   UNL d   1      24.132 -19.403   0.574  0.00  0.00     0.124 HD
ATOM     41  H   UNL d   1      25.618 -18.919   0.852  0.00  0.00     0.124 HD
ENDBRANCH  28  39
ENDBRANCH   2  24
TORSDOF 10
ENDMDL
MODEL 5
REMARK VINA RESULT:    -8.778      2.050      2.669
REMARK INTER + INTRA:         -15.126
REMARK INTER:                 -11.761
REMARK INTRA:                  -3.365
REMARK CONF_INDEPENDENT:        2.983
REMARK UNBOUND:                -3.365
REMARK  10 active torsions:
REMARK  status: ('A' for Active; 'I' for Inactive)
REMARK    1  A    between atoms: C_2  and  C_3 
REMARK    2  A    between atoms: C_3  and  C_4 
REMARK    3  A    between atoms: C_4  and  C_5 
REMARK    4  A    between atoms: C_4  and  N_13 
REMARK       I    between atoms: C_5  and  N_7 
REMARK    5  A    between atoms: N_7  and  C_8 
REMARK       I    between atoms: N_13  and  C_14 
REMARK    6  A    between atoms: N_13  and  C_31 
REMARK    7  A    between atoms: C_14  and  C_16 
REMARK    8  A    between atoms: C_19  and  C_20 
REMARK       I    between atoms: C_20  and  N_22 
REMARK    9  A    between atoms: N_22  and  C_23 
REMARK   10  A    between atoms: C_29  and  N_30 
ROOT
ATOM      1  N   UNL d   1      28.938 -15.800  -1.764  0.00  0.00    -0.299 N 
ATOM      2  C   UNL d   1      28.170 -16.021  -0.542  0.00  0.00     0.269 C 
ATOM      3  O   UNL d   1      28.548 -15.539   0.529  0.00  0.00    -0.266 OA
ENDROOT
BRANCH   1   4
ATOM      4  C   UNL d   1      28.459 -16.022  -3.201  0.00  0.00     0.185 C 
BRANCH   4   5
ATOM      5  C   UNL d   1      27.907 -14.802  -3.912  0.00  0.00     0.035 C 
BRANCH   5   6
ATOM      6  C   UNL d   1      26.750 -14.887  -4.884  0.00  0.00    -0.002 C 
ATOM      7  C   UNL d   1      25.682 -13.897  -4.512  0.00  0.00     0.005 C 
ENDBRANCH   5   6
ENDBRANCH   4   5
BRANCH   4   8
ATOM      8  C   UNL d   1      29.520 -16.322  -4.225  0.00  0.00     0.241 C 
ATOM      9  O   UNL d   1      29.768 -15.531  -5.129  0.00  0.00    -0.271 OA
ATOM     10  N   UNL d   1      30.073 -17.591  -4.131  0.00  0.00    -0.355 N 
ATOM     11  H   UNL d   1      29.600 -18.324  -3.618  0.00  0.00     0.162 HD
BRANCH  10  12
ATOM     12  C   UNL d   1      30.983 -18.030  -5.151  0.00  0.00     0.084 C 
ATOM     13  C   UNL d   1      31.092 -19.541  -5.095  0.00  0.00     0.025 C 
ATOM     14  C   UNL d   1      31.517 -19.953  -6.471  0.00  0.00     0.002 C 
ATOM     15  C   UNL d   1      30.969 -18.882  -7.405  0.00  0.00     0.002 C 
ATOM     16  C   UNL d   1      30.406 -17.767  -6.532  0.00  0.00     0.025 C 
ENDBRANCH  10  12
ENDBRANCH   4   8
ENDBRANCH   1   4
BRANCH   1  17
ATOM     17  C   UNL d   1      30.302 -15.235  -1.636  0.00  0.00     0.038 A 
ATOM     18  C   UNL d   1      30.656 -13.949  -2.100  0.00  0.00     0.033 A 
ATOM     19  C   UNL d   1      31.931 -13.392  -1.942  0.00  0.00     0.044 A 
ATOM     20  C   UNL d   1      32.921 -14.144  -1.357  0.00  0.00     0.116 A 
ATOM     21  F   UNL d   1      34.147 -13.623  -1.214  0.00  0.00    -0.206 F 
ATOM     22  C   UNL d   1      32.647 -15.435  -0.928  0.00  0.00     0.044 A 
ATOM     23  C   UNL d   1      31.348 -15.973  -1.057  0.00  0.00     0.033 A 
ENDBRANCH   1  17
BRANCH   2  24
ATOM     24  C   UNL d   1      26.942 -16.833  -0.537  0.00  0.00     0.115 C 
ATOM     25  S   UNL d   1      26.944 -18.358   0.248  0.00  0.00     0.019 SA
ATOM     26  N   UNL d   1      25.301 -18.556   0.257  0.00  0.00    -0.203 NA
ATOM     27  C   UNL d   1      24.705 -17.562  -0.428  0.00  0.00     0.155 C 
ATOM     28  C   UNL d   1      25.643 -16.603  -1.000  0.00  0.00     0.065 C 
BRANCH  27  29
ATOM     29  C   UNL d   1      23.203 -17.487  -0.366  0.00  0.00     0.273 C 
ATOM     30  O   UNL d   1      22.620 -16.559  -0.877  0.00  0.00    -0.266 OA
ATOM     31  N   UNL d   1      22.531 -18.622   0.175  0.00  0.00    -0.351 N 
ATOM     32  H   UNL d   1      23.070 -19.336   0.609  0.00  0.00     0.163 HD
BRANCH  31  33
ATOM     33  C   UNL d   1      21.086 -18.868   0.225  0.00  0.00     0.084 C 
ATOM     34  C   UNL d   1      20.599 -19.519  -1.052  0.00  0.00     0.025 C 
ATOM     35  C   UNL d   1      19.109 -19.700  -1.096  0.00  0.00     0.002 C 
ATOM     36  C   UNL d   1      18.628 -20.519   0.084  0.00  0.00     0.000 C 
ATOM     37  C   UNL d   1      19.073 -19.888   1.403  0.00  0.00     0.002 C 
ATOM     38  C   UNL d   1      20.601 -19.698   1.455  0.00  0.00     0.025 C 
ENDBRANCH  31  33
ENDBRANCH  27  29
BRANCH  28  39
ATOM     39  N   UNL d   1      25.282 -15.392  -1.563  0.00  0.00    -0.299 NA
ATOM     40  H   UNL d   1      25.587 -15.273  -2.528  0.00  0.00     0.124 HD
ATOM     41  H   UNL d   1      24.275 -15.243  -1.636  0.00  0.00     0.124 HD
ENDBRANCH  28  39
ENDBRANCH   2  24
TORSDOF 10
ENDMDL
MODEL 6
REMARK VINA RESULT:    -8.590      6.479      9.034
REMARK INTER + INTRA:         -15.031
REMARK INTER:                 -11.573
REMARK INTRA:                  -3.458
REMARK CONF_INDEPENDENT:        2.983
REMARK UNBOUND:                -3.458
REMARK  10 active torsions:
REMARK  status: ('A' for Active; 'I' for Inactive)
REMARK    1  A    between atoms: C_2  and  C_3 
REMARK    2  A    between atoms: C_3  and  C_4 
REMARK    3  A    between atoms: C_4  and  C_5 
REMARK    4  A    between atoms: C_4  and  N_13 
REMARK       I    between atoms: C_5  and  N_7 
REMARK    5  A    between atoms: N_7  and  C_8 
REMARK       I    between atoms: N_13  and  C_14 
REMARK    6  A    between atoms: N_13  and  C_31 
REMARK    7  A    between atoms: C_14  and  C_16 
REMARK    8  A    between atoms: C_19  and  C_20 
REMARK       I    between atoms: C_20  and  N_22 
REMARK    9  A    between atoms: N_22  and  C_23 
REMARK   10  A    between atoms: C_29  and  N_30 
ROOT
ATOM      1  N   UNL d   1      28.646 -14.920   0.764  0.00  0.00    -0.299 N 
ATOM      2  C   UNL d   1      29.667 -14.589   1.754  0.00  0.00     0.269 C 
ATOM      3  O   UNL d   1      30.860 -14.581   1.441  0.00  0.00    -0.266 OA
ENDROOT
BRANCH   1   4
ATOM      4  C   UNL d   1      27.142 -14.655   0.875  0.00  0.00     0.185 C 
BRANCH   4   5
ATOM      5  C   UNL d   1      26.696 -13.235   0.588  0.00  0.00     0.035 C 
BRANCH   5   6
ATOM      6  C   UNL d   1      26.277 -12.282   1.687  0.00  0.00    -0.002 C 
ATOM      7  C   UNL d   1      27.465 -11.518   2.200  0.00  0.00     0.005 C 
ENDBRANCH   5   6
ENDBRANCH   4   5
BRANCH   4   8
ATOM      8  C   UNL d   1      26.267 -15.297  -0.168  0.00  0.00     0.241 C 
ATOM      9  O   UNL d   1      25.885 -14.666  -1.148  0.00  0.00    -0.271 OA
ATOM     10  N   UNL d   1      25.840 -16.579   0.144  0.00  0.00    -0.355 N 
ATOM     11  H   UNL d   1      25.875 -16.918   1.097  0.00  0.00     0.162 HD
BRANCH  10  12
ATOM     12  C   UNL d   1      24.882 -17.220  -0.711  0.00  0.00     0.084 C 
ATOM     13  C   UNL d   1      24.551 -18.585  -0.142  0.00  0.00     0.025 C 
ATOM     14  C   UNL d   1      23.191 -18.912  -0.677  0.00  0.00     0.002 C 
ATOM     15  C   UNL d   1      22.504 -17.570  -0.895  0.00  0.00     0.002 C 
ATOM     16  C   UNL d   1      23.551 -16.487  -0.669  0.00  0.00     0.025 C 
ENDBRANCH  10  12
ENDBRANCH   4   8
ENDBRANCH   1   4
BRANCH   1  17
ATOM     17  C   UNL d   1      29.087 -15.511  -0.522  0.00  0.00     0.038 A 
ATOM     18  C   UNL d   1      29.085 -14.801  -1.742  0.00  0.00     0.033 A 
ATOM     19  C   UNL d   1      29.543 -15.338  -2.952  0.00  0.00     0.044 A 
ATOM     20  C   UNL d   1      29.969 -16.645  -2.984  0.00  0.00     0.116 A 
ATOM     21  F   UNL d   1      30.397 -17.170  -4.140  0.00  0.00    -0.206 F 
ATOM     22  C   UNL d   1      29.945 -17.408  -1.826  0.00  0.00     0.044 A 
ATOM     23  C   UNL d   1      29.518 -16.845  -0.604  0.00  0.00     0.033 A 
ENDBRANCH   1  17
BRANCH   2  24
ATOM     24  C   UNL d   1      29.319 -14.275   3.150  0.00  0.00     0.115 C 
ATOM     25  S   UNL d   1      27.821 -14.818   3.786  0.00  0.00     0.019 SA
ATOM     26  N   UNL d   1      28.189 -14.530   5.374  0.00  0.00    -0.203 NA
ATOM     27  C   UNL d   1      29.380 -13.911   5.476  0.00  0.00     0.155 C 
ATOM     28  C   UNL d   1      30.012 -13.646   4.187  0.00  0.00     0.065 C 
BRANCH  27  29
ATOM     29  C   UNL d   1      29.952 -13.738   6.857  0.00  0.00     0.273 C 
ATOM     30  O   UNL d   1      30.868 -12.971   7.043  0.00  0.00    -0.266 OA
ATOM     31  N   UNL d   1      29.261 -14.394   7.918  0.00  0.00    -0.351 N 
ATOM     32  H   UNL d   1      28.536 -15.037   7.693  0.00  0.00     0.163 HD
BRANCH  31  33
ATOM     33  C   UNL d   1      29.517 -14.283   9.357  0.00  0.00     0.084 C 
ATOM     34  C   UNL d   1      28.277 -13.833  10.100  0.00  0.00     0.025 C 
ATOM     35  C   UNL d   1      28.511 -13.603  11.565  0.00  0.00     0.002 C 
ATOM     36  C   UNL d   1      29.051 -14.854  12.229  0.00  0.00     0.000 C 
ATOM     37  C   UNL d   1      30.322 -15.336  11.531  0.00  0.00     0.002 C 
ATOM     38  C   UNL d   1      30.089 -15.572  10.026  0.00  0.00     0.025 C 
ENDBRANCH  31  33
ENDBRANCH  27  29
BRANCH  28  39
ATOM     39  N   UNL d   1      31.316 -13.215   4.027  0.00  0.00    -0.299 NA
ATOM     40  H   UNL d   1      31.748 -12.863   4.880  0.00  0.00     0.124 HD
ATOM     41  H   UNL d   1      31.971 -13.945   3.740  0.00  0.00     0.124 HD
ENDBRANCH  28  39
ENDBRANCH   2  24
TORSDOF 10
ENDMDL
MODEL 7
REMARK VINA RESULT:    -7.749      5.514      8.230
REMARK INTER + INTRA:         -14.953
REMARK INTER:                 -10.732
REMARK INTRA:                  -4.221
REMARK CONF_INDEPENDENT:        2.983
REMARK UNBOUND:                -4.221
REMARK  10 active torsions:
REMARK  status: ('A' for Active; 'I' for Inactive)
REMARK    1  A    between atoms: C_2  and  C_3 
REMARK    2  A    between atoms: C_3  and  C_4 
REMARK    3  A    between atoms: C_4  and  C_5 
REMARK    4  A    between atoms: C_4  and  N_13 
REMARK       I    between atoms: C_5  and  N_7 
REMARK    5  A    between atoms: N_7  and  C_8 
REMARK       I    between atoms: N_13  and  C_14 
REMARK    6  A    between atoms: N_13  and  C_31 
REMARK    7  A    between atoms: C_14  and  C_16 
REMARK    8  A    between atoms: C_19  and  C_20 
REMARK       I    between atoms: C_20  and  N_22 
REMARK    9  A    between atoms: N_22  and  C_23 
REMARK   10  A    between atoms: C_29  and  N_30 
ROOT
ATOM      1  N   UNL d   1      27.180 -14.825  -0.509  0.00  0.00    -0.299 N 
ATOM      2  C   UNL d   1      27.270 -13.489   0.073  0.00  0.00     0.269 C 
ATOM      3  O   UNL d   1      27.068 -12.490  -0.622  0.00  0.00    -0.266 OA
ENDROOT
BRANCH   1   4
ATOM      4  C   UNL d   1      27.064 -16.149   0.249  0.00  0.00     0.185 C 
BRANCH   4   5
ATOM      5  C   UNL d   1      25.828 -16.977  -0.047  0.00  0.00     0.035 C 
BRANCH   5   6
ATOM      6  C   UNL d   1      24.532 -16.354  -0.518  0.00  0.00    -0.002 C 
ATOM      7  C   UNL d   1      23.509 -17.420  -0.794  0.00  0.00     0.005 C 
ENDBRANCH   5   6
ENDBRANCH   4   5
BRANCH   4   8
ATOM      8  C   UNL d   1      28.052 -17.224  -0.118  0.00  0.00     0.241 C 
ATOM      9  O   UNL d   1      27.729 -18.408  -0.115  0.00  0.00    -0.271 OA
ATOM     10  N   UNL d   1      29.348 -16.774  -0.320  0.00  0.00    -0.355 N 
ATOM     11  H   UNL d   1      29.643 -15.872   0.033  0.00  0.00     0.162 HD
BRANCH  10  12
ATOM     12  C   UNL d   1      30.394 -17.735  -0.525  0.00  0.00     0.084 C 
ATOM     13  C   UNL d   1      30.591 -17.937  -2.014  0.00  0.00     0.025 C 
ATOM     14  C   UNL d   1      32.001 -18.422  -2.160  0.00  0.00     0.002 C 
ATOM     15  C   UNL d   1      32.759 -17.832  -0.978  0.00  0.00     0.002 C 
ATOM     16  C   UNL d   1      31.731 -17.179  -0.063  0.00  0.00     0.025 C 
ENDBRANCH  10  12
ENDBRANCH   4   8
ENDBRANCH   1   4
BRANCH   1  17
ATOM     17  C   UNL d   1      27.122 -14.938  -1.986  0.00  0.00     0.038 A 
ATOM     18  C   UNL d   1      25.943 -14.726  -2.734  0.00  0.00     0.033 A 
ATOM     19  C   UNL d   1      25.891 -14.787  -4.132  0.00  0.00     0.044 A 
ATOM     20  C   UNL d   1      27.026 -15.127  -4.829  0.00  0.00     0.116 A 
ATOM     21  F   UNL d   1      26.981 -15.200  -6.166  0.00  0.00    -0.206 F 
ATOM     22  C   UNL d   1      28.202 -15.398  -4.144  0.00  0.00     0.044 A 
ATOM     23  C   UNL d   1      28.253 -15.296  -2.738  0.00  0.00     0.033 A 
ENDBRANCH   1  17
BRANCH   2  24
ATOM     24  C   UNL d   1      27.621 -13.284   1.488  0.00  0.00     0.115 C 
ATOM     25  S   UNL d   1      26.655 -12.246   2.454  0.00  0.00     0.019 SA
ATOM     26  N   UNL d   1      27.273 -12.732   3.910  0.00  0.00    -0.203 NA
ATOM     27  C   UNL d   1      28.298 -13.585   3.724  0.00  0.00     0.155 C 
ATOM     28  C   UNL d   1      28.598 -13.839   2.319  0.00  0.00     0.065 C 
BRANCH  27  29
ATOM     29  C   UNL d   1      28.858 -14.266   4.944  0.00  0.00     0.273 C 
ATOM     30  O   UNL d   1      29.665 -15.158   4.824  0.00  0.00    -0.266 OA
ATOM     31  N   UNL d   1      28.507 -13.700   6.205  0.00  0.00    -0.351 N 
ATOM     32  H   UNL d   1      27.813 -12.990   6.235  0.00  0.00     0.163 HD
BRANCH  31  33
ATOM     33  C   UNL d   1      29.018 -14.075   7.528  0.00  0.00     0.084 C 
ATOM     34  C   UNL d   1      30.532 -14.075   7.548  0.00  0.00     0.025 C 
ATOM     35  C   UNL d   1      31.109 -14.551   8.851  0.00  0.00     0.002 C 
ATOM     36  C   UNL d   1      30.604 -13.710  10.006  0.00  0.00     0.000 C 
ATOM     37  C   UNL d   1      29.076 -13.699  10.045  0.00  0.00     0.002 C 
ATOM     38  C   UNL d   1      28.477 -13.213   8.711  0.00  0.00     0.025 C 
ENDBRANCH  31  33
ENDBRANCH  27  29
BRANCH  28  39
ATOM     39  N   UNL d   1      29.455 -14.825   1.866  0.00  0.00    -0.299 NA
ATOM     40  H   UNL d   1      30.070 -15.206   2.583  0.00  0.00     0.124 HD
ATOM     41  H   UNL d   1      28.989 -15.663   1.515  0.00  0.00     0.124 HD
ENDBRANCH  28  39
ENDBRANCH   2  24
TORSDOF 10
ENDMDL
MODEL 8
REMARK VINA RESULT:    -7.523      4.069      6.999
REMARK INTER + INTRA:         -15.174
REMARK INTER:                 -10.506
REMARK INTRA:                  -4.667
REMARK CONF_INDEPENDENT:        2.983
REMARK UNBOUND:                -4.667
REMARK  10 active torsions:
REMARK  status: ('A' for Active; 'I' for Inactive)
REMARK    1  A    between atoms: C_2  and  C_3 
REMARK    2  A    between atoms: C_3  and  C_4 
REMARK    3  A    between atoms: C_4  and  C_5 
REMARK    4  A    between atoms: C_4  and  N_13 
REMARK       I    between atoms: C_5  and  N_7 
REMARK    5  A    between atoms: N_7  and  C_8 
REMARK       I    between atoms: N_13  and  C_14 
REMARK    6  A    between atoms: N_13  and  C_31 
REMARK    7  A    between atoms: C_14  and  C_16 
REMARK    8  A    between atoms: C_19  and  C_20 
REMARK       I    between atoms: C_20  and  N_22 
REMARK    9  A    between atoms: N_22  and  C_23 
REMARK   10  A    between atoms: C_29  and  N_30 
ROOT
ATOM      1  N   UNL d   1      26.170  -9.986  -5.023  0.00  0.00    -0.299 N 
ATOM      2  C   UNL d   1      25.916 -11.171  -5.838  0.00  0.00     0.269 C 
ATOM      3  O   UNL d   1      25.334 -11.071  -6.921  0.00  0.00    -0.266 OA
ENDROOT
BRANCH   1   4
ATOM      4  C   UNL d   1      27.149  -9.871  -3.852  0.00  0.00     0.185 C 
BRANCH   4   5
ATOM      5  C   UNL d   1      26.926  -8.702  -2.913  0.00  0.00     0.035 C 
BRANCH   5   6
ATOM      6  C   UNL d   1      25.682  -8.575  -2.061  0.00  0.00    -0.002 C 
ATOM      7  C   UNL d   1      26.026  -8.005  -0.713  0.00  0.00     0.005 C 
ENDBRANCH   5   6
ENDBRANCH   4   5
BRANCH   4   8
ATOM      8  C   UNL d   1      27.053 -10.933  -2.789  0.00  0.00     0.241 C 
ATOM      9  O   UNL d   1      26.006 -11.544  -2.599  0.00  0.00    -0.271 OA
ATOM     10  N   UNL d   1      28.178 -11.052  -1.986  0.00  0.00    -0.355 N 
ATOM     11  H   UNL d   1      28.860 -10.306  -1.939  0.00  0.00     0.162 HD
BRANCH  10  12
ATOM     12  C   UNL d   1      28.132 -11.928  -0.850  0.00  0.00     0.084 C 
ATOM     13  C   UNL d   1      27.055 -11.444   0.101  0.00  0.00     0.025 C 
ATOM     14  C   UNL d   1      26.654 -12.655   0.885  0.00  0.00     0.002 C 
ATOM     15  C   UNL d   1      26.915 -13.841  -0.033  0.00  0.00     0.002 C 
ATOM     16  C   UNL d   1      27.647 -13.310  -1.259  0.00  0.00     0.025 C 
ENDBRANCH  10  12
ENDBRANCH   4   8
ENDBRANCH   1   4
BRANCH   1  17
ATOM     17  C   UNL d   1      25.476  -8.728  -5.388  0.00  0.00     0.038 A 
ATOM     18  C   UNL d   1      24.110  -8.491  -5.122  0.00  0.00     0.033 A 
ATOM     19  C   UNL d   1      23.460  -7.288  -5.424  0.00  0.00     0.044 A 
ATOM     20  C   UNL d   1      24.158  -6.293  -6.065  0.00  0.00     0.116 A 
ATOM     21  F   UNL d   1      23.539  -5.144  -6.369  0.00  0.00    -0.206 F 
ATOM     22  C   UNL d   1      25.491  -6.489  -6.400  0.00  0.00     0.044 A 
ATOM     23  C   UNL d   1      26.147  -7.690  -6.056  0.00  0.00     0.033 A 
ENDBRANCH   1  17
BRANCH   2  24
ATOM     24  C   UNL d   1      26.320 -12.516  -5.394  0.00  0.00     0.115 C 
ATOM     25  S   UNL d   1      27.921 -13.055  -5.693  0.00  0.00     0.019 SA
ATOM     26  N   UNL d   1      27.864 -14.355  -4.671  0.00  0.00    -0.203 NA
ATOM     27  C   UNL d   1      26.623 -14.505  -4.170  0.00  0.00     0.155 C 
ATOM     28  C   UNL d   1      25.672 -13.514  -4.662  0.00  0.00     0.065 C 
BRANCH  27  29
ATOM     29  C   UNL d   1      26.438 -15.529  -3.082  0.00  0.00     0.273 C 
ATOM     30  O   UNL d   1      27.353 -16.254  -2.770  0.00  0.00    -0.266 OA
ATOM     31  N   UNL d   1      25.206 -15.479  -2.365  0.00  0.00    -0.351 N 
ATOM     32  H   UNL d   1      24.483 -14.882  -2.695  0.00  0.00     0.163 HD
BRANCH  31  33
ATOM     33  C   UNL d   1      24.827 -16.259  -1.183  0.00  0.00     0.084 C 
ATOM     34  C   UNL d   1      23.386 -16.716  -1.270  0.00  0.00     0.025 C 
ATOM     35  C   UNL d   1      22.914 -17.433  -0.037  0.00  0.00     0.002 C 
ATOM     36  C   UNL d   1      23.790 -18.633   0.259  0.00  0.00     0.000 C 
ATOM     37  C   UNL d   1      25.256 -18.220   0.383  0.00  0.00     0.002 C 
ATOM     38  C   UNL d   1      25.747 -17.482  -0.878  0.00  0.00     0.025 C 
ENDBRANCH  31  33
ENDBRANCH  27  29
BRANCH  28  39
ATOM     39  N   UNL d   1      24.402 -13.323  -4.149  0.00  0.00    -0.299 NA
ATOM     40  H   UNL d   1      24.266 -12.420  -3.697  0.00  0.00     0.124 HD
ATOM     41  H   UNL d   1      23.657 -13.328  -4.847  0.00  0.00     0.124 HD
ENDBRANCH  28  39
ENDBRANCH   2  24
TORSDOF 10
ENDMDL
