MODEL 1
REMARK VINA RESULT:    -8.717      0.000      0.000
REMARK INTER + INTRA:         -13.529
REMARK INTER:                 -12.296
REMARK INTRA:                  -1.233
REMARK CONF_INDEPENDENT:        3.580
REMARK UNBOUND:                -1.233
REMARK  12 active torsions:
REMARK  status: ('A' for Active; 'I' for Inactive)
REMARK    1  A    between atoms: C_2  and  C_3 
REMARK    2  A    between atoms: C_3  and  C_4 
REMARK    3  A    between atoms: C_4  and  N_5 
REMARK       I    between atoms: N_5  and  C_6 
REMARK    4  A    between atoms: C_6  and  C_8 
REMARK    5  A    between atoms: C_8  and  C_9 
REMARK    6  A    between atoms: C_9  and  C_10 
REMARK    7  A    between atoms: C_10  and  C_11 
REMARK    8  A    between atoms: C_11  and  C_12 
REMARK       I    between atoms: C_12  and  N_14 
REMARK    9  A    between atoms: N_14  and  N_15 
REMARK   10  A    between atoms: C_16  and  C_17 
REMARK   11  A    between atoms: C_19  and  N_20 
REMARK   12  A    between atoms: C_25  and  O_26 
ROOT
ATOM      1  C   UNL d   1      26.843 -15.529   0.290  0.00  0.00     0.237 C 
ATOM      2  O   UNL d   1      25.997 -14.682   0.001  0.00  0.00    -0.272 OA
ATOM      3  N   UNL d   1      27.672 -15.440   1.412  0.00  0.00    -0.247 N 
ATOM      4  H   UNL d   1      28.342 -16.161   1.649  0.00  0.00     0.192 HD
ENDROOT
BRANCH   3   5
ATOM      5  N   UNL d   1      27.512 -14.351   2.239  0.00  0.00    -0.184 NA
ATOM      6  C   UNL d   1      27.592 -13.154   1.752  0.00  0.00     0.153 C 
BRANCH   6   7
ATOM      7  C   UNL d   1      27.441 -11.952   2.628  0.00  0.00     0.018 A 
ATOM      8  C   UNL d   1      26.812 -10.802   2.125  0.00  0.00     0.051 A 
ATOM      9  C   UNL d   1      26.647  -9.678   2.960  0.00  0.00     0.103 A 
ATOM     10  C   UNL d   1      27.125  -9.687   4.278  0.00  0.00     0.039 A 
ATOM     11  C   UNL d   1      27.769 -10.827   4.767  0.00  0.00     0.040 A 
ATOM     12  C   UNL d   1      27.926 -11.949   3.945  0.00  0.00     0.077 A 
BRANCH   9  13
ATOM     13  N   UNL d   1      25.956  -8.479   2.456  0.00  0.00    -0.116 N 
ATOM     14  O   UNL d   1      25.084  -8.637   1.593  0.00  0.00    -0.532 OA
ATOM     15  O   UNL d   1      26.292  -7.379   2.923  0.00  0.00    -0.532 OA
ENDBRANCH   9  13
BRANCH  12  16
ATOM     16  O   UNL d   1      28.623 -13.028   4.408  0.00  0.00    -0.360 OA
ATOM     17  H   UNL d   1      28.877 -13.618   3.681  0.00  0.00     0.217 HD
ENDBRANCH  12  16
ENDBRANCH   6   7
ENDBRANCH   3   5
BRANCH   1  18
ATOM     18  C   UNL d   1      27.051 -16.763  -0.596  0.00  0.00     0.105 C 
BRANCH  18  19
ATOM     19  C   UNL d   1      26.078 -17.895  -0.191  0.00  0.00     0.010 C 
BRANCH  19  20
ATOM     20  C   UNL d   1      24.617 -17.447  -0.126  0.00  0.00     0.010 C 
BRANCH  20  21
ATOM     21  C   UNL d   1      23.716 -18.173  -1.145  0.00  0.00     0.103 C 
BRANCH  21  22
ATOM     22  C   UNL d   1      22.271 -18.195  -0.663  0.00  0.00     0.217 C 
ATOM     23  N   UNL d   1      21.898 -19.310   0.060  0.00  0.00    -0.361 N 
ATOM     24  H   UNL d   1      22.565 -20.049   0.241  0.00  0.00     0.162 HD
ATOM     25  O   UNL d   1      21.482 -17.279  -0.898  0.00  0.00    -0.274 OA
BRANCH  23  26
ATOM     26  C   UNL d   1      20.538 -19.419   0.563  0.00  0.00     0.122 C 
BRANCH  26  27
ATOM     27  C   UNL d   1      19.569 -20.016  -0.451  0.00  0.00     0.019 C 
BRANCH  27  28
ATOM     28  C   UNL d   1      18.473 -20.833   0.239  0.00  0.00    -0.003 C 
ATOM     29  C   UNL d   1      18.560 -20.699   1.751  0.00  0.00     0.005 C 
ENDBRANCH  27  28
ENDBRANCH  26  27
ENDBRANCH  23  26
ENDBRANCH  21  22
ENDBRANCH  20  21
ENDBRANCH  19  20
ENDBRANCH  18  19
ENDBRANCH   1  18
TORSDOF 12
ENDMDL
MODEL 2
REMARK VINA RESULT:    -7.787      1.072      1.257
REMARK INTER + INTRA:         -12.477
REMARK INTER:                 -11.366
REMARK INTRA:                  -1.111
REMARK CONF_INDEPENDENT:        3.580
REMARK UNBOUND:                -1.111
REMARK  12 active torsions:
REMARK  status: ('A' for Active; 'I' for Inactive)
REMARK    1  A    between atoms: C_2  and  C_3 
REMARK    2  A    between atoms: C_3  and  C_4 
REMARK    3  A    between atoms: C_4  and  N_5 
REMARK       I    between atoms: N_5  and  C_6 
REMARK    4  A    between atoms: C_6  and  C_8 
REMARK    5  A    between atoms: C_8  and  C_9 
REMARK    6  A    between atoms: C_9  and  C_10 
REMARK    7  A    between atoms: C_10  and  C_11 
REMARK    8  A    between atoms: C_11  and  C_12 
REMARK       I    between atoms: C_12  and  N_14 
REMARK    9  A    between atoms: N_14  and  N_15 
REMARK   10  A    between atoms: C_16  and  C_17 
REMARK   11  A    between atoms: C_19  and  N_20 
REMARK   12  A    between atoms: C_25  and  O_26 
ROOT
ATOM      1  C   UNL d   1      27.165 -16.009  -0.019  0.00  0.00     0.237 C 
ATOM      2  O   UNL d   1      26.993 -15.036  -0.755  0.00  0.00    -0.272 OA
ATOM      3  N   UNL d   1      27.713 -15.919   1.263  0.00  0.00    -0.247 N 
ATOM      4  H   UNL d   1      27.820 -16.727   1.865  0.00  0.00     0.192 HD
ENDROOT
BRANCH   3   5
ATOM      5  N   UNL d   1      28.060 -14.669   1.723  0.00  0.00    -0.184 NA
ATOM      6  C   UNL d   1      27.324 -13.646   1.428  0.00  0.00     0.153 C 
BRANCH   6   7
ATOM      7  C   UNL d   1      27.685 -12.273   1.898  0.00  0.00     0.018 A 
ATOM      8  C   UNL d   1      26.684 -11.296   2.017  0.00  0.00     0.051 A 
ATOM      9  C   UNL d   1      27.021 -10.008   2.485  0.00  0.00     0.103 A 
ATOM     10  C   UNL d   1      28.347  -9.688   2.808  0.00  0.00     0.039 A 
ATOM     11  C   UNL d   1      29.342 -10.658   2.668  0.00  0.00     0.040 A 
ATOM     12  C   UNL d   1      29.011 -11.940   2.214  0.00  0.00     0.077 A 
BRANCH   9  13
ATOM     13  N   UNL d   1      25.974  -8.986   2.649  0.00  0.00    -0.116 N 
ATOM     14  O   UNL d   1      26.280  -7.937   3.230  0.00  0.00    -0.532 OA
ATOM     15  O   UNL d   1      24.845  -9.237   2.199  0.00  0.00    -0.532 OA
ENDBRANCH   9  13
BRANCH  12  16
ATOM     16  O   UNL d   1      30.002 -12.856   2.008  0.00  0.00    -0.360 OA
ATOM     17  H   UNL d   1      29.721 -13.541   1.381  0.00  0.00     0.217 HD
ENDBRANCH  12  16
ENDBRANCH   6   7
ENDBRANCH   3   5
BRANCH   1  18
ATOM     18  C   UNL d   1      26.785 -17.420  -0.484  0.00  0.00     0.105 C 
BRANCH  18  19
ATOM     19  C   UNL d   1      25.476 -17.884   0.196  0.00  0.00     0.010 C 
BRANCH  19  20
ATOM     20  C   UNL d   1      24.232 -17.157  -0.318  0.00  0.00     0.010 C 
BRANCH  20  21
ATOM     21  C   UNL d   1      23.373 -18.022  -1.261  0.00  0.00     0.103 C 
BRANCH  21  22
ATOM     22  C   UNL d   1      21.976 -18.217  -0.684  0.00  0.00     0.217 C 
ATOM     23  N   UNL d   1      21.812 -19.325   0.122  0.00  0.00    -0.361 N 
ATOM     24  H   UNL d   1      22.589 -19.949   0.300  0.00  0.00     0.162 HD
ATOM     25  O   UNL d   1      21.049 -17.441  -0.918  0.00  0.00    -0.274 OA
BRANCH  23  26
ATOM     26  C   UNL d   1      20.513 -19.594   0.719  0.00  0.00     0.122 C 
BRANCH  26  27
ATOM     27  C   UNL d   1      19.701 -20.628  -0.052  0.00  0.00     0.019 C 
BRANCH  27  28
ATOM     28  C   UNL d   1      18.404 -20.979   0.683  0.00  0.00    -0.003 C 
ATOM     29  C   UNL d   1      18.411 -20.428   2.099  0.00  0.00     0.005 C 
ENDBRANCH  27  28
ENDBRANCH  26  27
ENDBRANCH  23  26
ENDBRANCH  21  22
ENDBRANCH  20  21
ENDBRANCH  19  20
ENDBRANCH  18  19
ENDBRANCH   1  18
TORSDOF 12
ENDMDL
MODEL 3
REMARK VINA RESULT:    -7.109      5.789      8.610
REMARK INTER + INTRA:         -11.885
REMARK INTER:                 -10.688
REMARK INTRA:                  -1.197
REMARK CONF_INDEPENDENT:        3.580
REMARK UNBOUND:                -1.197
REMARK  12 active torsions:
REMARK  status: ('A' for Active; 'I' for Inactive)
REMARK    1  A    between atoms: C_2  and  C_3 
REMARK    2  A    between atoms: C_3  and  C_4 
REMARK    3  A    between atoms: C_4  and  N_5 
REMARK       I    between atoms: N_5  and  C_6 
REMARK    4  A    between atoms: C_6  and  C_8 
REMARK    5  A    between atoms: C_8  and  C_9 
REMARK    6  A    between atoms: C_9  and  C_10 
REMARK    7  A    between atoms: C_10  and  C_11 
REMARK    8  A    between atoms: C_11  and  C_12 
REMARK       I    between atoms: C_12  and  N_14 
REMARK    9  A    between atoms: N_14  and  N_15 
REMARK   10  A    between atoms: C_16  and  C_17 
REMARK   11  A    between atoms: C_19  and  N_20 
REMARK   12  A    between atoms: C_25  and  O_26 
ROOT
ATOM      1  C   UNL d   1      25.690 -15.073  -3.569  0.00  0.00     0.237 C 
ATOM      2  O   UNL d   1      25.234 -14.918  -4.704  0.00  0.00    -0.272 OA
ATOM      3  N   UNL d   1      27.055 -15.185  -3.295  0.00  0.00    -0.247 N 
ATOM      4  H   UNL d   1      27.413 -15.283  -2.353  0.00  0.00     0.192 HD
ENDROOT
BRANCH   3   5
ATOM      5  N   UNL d   1      27.929 -15.101  -4.356  0.00  0.00    -0.184 NA
ATOM      6  C   UNL d   1      28.858 -15.992  -4.499  0.00  0.00     0.153 C 
BRANCH   6   7
ATOM      7  C   UNL d   1      29.832 -15.917  -5.630  0.00  0.00     0.018 A 
ATOM      8  C   UNL d   1      30.344 -17.102  -6.183  0.00  0.00     0.051 A 
ATOM      9  C   UNL d   1      31.243 -17.032  -7.268  0.00  0.00     0.103 A 
ATOM     10  C   UNL d   1      31.650 -15.792  -7.782  0.00  0.00     0.039 A 
ATOM     11  C   UNL d   1      31.154 -14.617  -7.215  0.00  0.00     0.040 A 
ATOM     12  C   UNL d   1      30.253 -14.682  -6.145  0.00  0.00     0.077 A 
BRANCH   9  13
ATOM     13  N   UNL d   1      31.759 -18.268  -7.881  0.00  0.00    -0.116 N 
ATOM     14  O   UNL d   1      31.974 -18.260  -9.099  0.00  0.00    -0.532 OA
ATOM     15  O   UNL d   1      31.944 -19.247  -7.140  0.00  0.00    -0.532 OA
ENDBRANCH   9  13
BRANCH  12  16
ATOM     16  O   UNL d   1      29.834 -13.527  -5.549  0.00  0.00    -0.360 OA
ATOM     17  H   UNL d   1      29.279 -13.714  -4.776  0.00  0.00     0.217 HD
ENDBRANCH  12  16
ENDBRANCH   6   7
ENDBRANCH   3   5
BRANCH   1  18
ATOM     18  C   UNL d   1      24.757 -15.162  -2.356  0.00  0.00     0.105 C 
BRANCH  18  19
ATOM     19  C   UNL d   1      24.843 -16.563  -1.705  0.00  0.00     0.010 C 
BRANCH  19  20
ATOM     20  C   UNL d   1      23.669 -16.874  -0.775  0.00  0.00     0.010 C 
BRANCH  20  21
ATOM     21  C   UNL d   1      23.297 -18.369  -0.751  0.00  0.00     0.103 C 
BRANCH  21  22
ATOM     22  C   UNL d   1      21.783 -18.545  -0.717  0.00  0.00     0.217 C 
ATOM     23  N   UNL d   1      21.329 -19.699  -0.113  0.00  0.00    -0.361 N 
ATOM     24  H   UNL d   1      21.984 -20.367   0.274  0.00  0.00     0.162 HD
ATOM     25  O   UNL d   1      21.010 -17.714  -1.195  0.00  0.00    -0.274 OA
BRANCH  23  26
ATOM     26  C   UNL d   1      19.900 -19.954  -0.031  0.00  0.00     0.122 C 
BRANCH  26  27
ATOM     27  C   UNL d   1      19.262 -19.400   1.238  0.00  0.00     0.019 C 
BRANCH  27  28
ATOM     28  C   UNL d   1      18.413 -20.460   1.944  0.00  0.00    -0.003 C 
ATOM     29  C   UNL d   1      18.026 -21.578   0.988  0.00  0.00     0.005 C 
ENDBRANCH  27  28
ENDBRANCH  26  27
ENDBRANCH  23  26
ENDBRANCH  21  22
ENDBRANCH  20  21
ENDBRANCH  19  20
ENDBRANCH  18  19
ENDBRANCH   1  18
TORSDOF 12
ENDMDL
MODEL 4
REMARK VINA RESULT:    -7.051      1.642      1.952
REMARK INTER + INTRA:         -11.895
REMARK INTER:                 -10.630
REMARK INTRA:                  -1.265
REMARK CONF_INDEPENDENT:        3.580
REMARK UNBOUND:                -1.265
REMARK  12 active torsions:
REMARK  status: ('A' for Active; 'I' for Inactive)
REMARK    1  A    between atoms: C_2  and  C_3 
REMARK    2  A    between atoms: C_3  and  C_4 
REMARK    3  A    between atoms: C_4  and  N_5 
REMARK       I    between atoms: N_5  and  C_6 
REMARK    4  A    between atoms: C_6  and  C_8 
REMARK    5  A    between atoms: C_8  and  C_9 
REMARK    6  A    between atoms: C_9  and  C_10 
REMARK    7  A    between atoms: C_10  and  C_11 
REMARK    8  A    between atoms: C_11  and  C_12 
REMARK       I    between atoms: C_12  and  N_14 
REMARK    9  A    between atoms: N_14  and  N_15 
REMARK   10  A    between atoms: C_16  and  C_17 
REMARK   11  A    between atoms: C_19  and  N_20 
REMARK   12  A    between atoms: C_25  and  O_26 
ROOT
ATOM      1  C   UNL d   1      25.808 -15.445  -1.655  0.00  0.00     0.237 C 
ATOM      2  O   UNL d   1      25.535 -14.290  -1.987  0.00  0.00    -0.272 OA
ATOM      3  N   UNL d   1      26.699 -15.762  -0.626  0.00  0.00    -0.247 N 
ATOM      4  H   UNL d   1      26.889 -16.717  -0.348  0.00  0.00     0.192 HD
ENDROOT
BRANCH   3   5
ATOM      5  N   UNL d   1      27.284 -14.719   0.056  0.00  0.00    -0.184 NA
ATOM      6  C   UNL d   1      26.557 -13.728   0.467  0.00  0.00     0.153 C 
BRANCH   6   7
ATOM      7  C   UNL d   1      27.166 -12.573   1.194  0.00  0.00     0.018 A 
ATOM      8  C   UNL d   1      26.336 -11.569   1.719  0.00  0.00     0.051 A 
ATOM      9  C   UNL d   1      26.909 -10.493   2.428  0.00  0.00     0.103 A 
ATOM     10  C   UNL d   1      28.298 -10.402   2.593  0.00  0.00     0.039 A 
ATOM     11  C   UNL d   1      29.121 -11.393   2.051  0.00  0.00     0.040 A 
ATOM     12  C   UNL d   1      28.556 -12.468   1.355  0.00  0.00     0.077 A 
BRANCH   9  13
ATOM     13  N   UNL d   1      26.047  -9.453   3.014  0.00  0.00    -0.116 N 
ATOM     14  O   UNL d   1      25.126  -9.009   2.318  0.00  0.00    -0.532 OA
ATOM     15  O   UNL d   1      26.296  -9.080   4.172  0.00  0.00    -0.532 OA
ENDBRANCH   9  13
BRANCH  12  16
ATOM     16  O   UNL d   1      29.373 -13.390   0.765  0.00  0.00    -0.360 OA
ATOM     17  H   UNL d   1      28.878 -13.953   0.150  0.00  0.00     0.217 HD
ENDBRANCH  12  16
ENDBRANCH   6   7
ENDBRANCH   3   5
BRANCH   1  18
ATOM     18  C   UNL d   1      25.176 -16.638  -2.379  0.00  0.00     0.105 C 
BRANCH  18  19
ATOM     19  C   UNL d   1      24.618 -17.661  -1.362  0.00  0.00     0.010 C 
BRANCH  19  20
ATOM     20  C   UNL d   1      23.445 -17.125  -0.541  0.00  0.00     0.010 C 
BRANCH  20  21
ATOM     21  C   UNL d   1      22.772 -18.205   0.330  0.00  0.00     0.103 C 
BRANCH  21  22
ATOM     22  C   UNL d   1      21.399 -18.563  -0.227  0.00  0.00     0.217 C 
ATOM     23  N   UNL d   1      20.913 -19.803   0.135  0.00  0.00    -0.361 N 
ATOM     24  H   UNL d   1      21.457 -20.412   0.732  0.00  0.00     0.162 HD
ATOM     25  O   UNL d   1      20.760 -17.800  -0.951  0.00  0.00    -0.274 OA
BRANCH  23  26
ATOM     26  C   UNL d   1      19.610 -20.232  -0.347  0.00  0.00     0.122 C 
BRANCH  26  27
ATOM     27  C   UNL d   1      18.760 -20.896   0.731  0.00  0.00     0.019 C 
BRANCH  27  28
ATOM     28  C   UNL d   1      18.719 -20.050   2.007  0.00  0.00    -0.003 C 
ATOM     29  C   UNL d   1      19.829 -20.450   2.966  0.00  0.00     0.005 C 
ENDBRANCH  27  28
ENDBRANCH  26  27
ENDBRANCH  23  26
ENDBRANCH  21  22
ENDBRANCH  20  21
ENDBRANCH  19  20
ENDBRANCH  18  19
ENDBRANCH   1  18
TORSDOF 12
ENDMDL
MODEL 5
REMARK VINA RESULT:    -7.006      2.044      3.215
REMARK INTER + INTRA:         -11.958
REMARK INTER:                 -10.585
REMARK INTRA:                  -1.373
REMARK CONF_INDEPENDENT:        3.580
REMARK UNBOUND:                -1.373
REMARK  12 active torsions:
REMARK  status: ('A' for Active; 'I' for Inactive)
REMARK    1  A    between atoms: C_2  and  C_3 
REMARK    2  A    between atoms: C_3  and  C_4 
REMARK    3  A    between atoms: C_4  and  N_5 
REMARK       I    between atoms: N_5  and  C_6 
REMARK    4  A    between atoms: C_6  and  C_8 
REMARK    5  A    between atoms: C_8  and  C_9 
REMARK    6  A    between atoms: C_9  and  C_10 
REMARK    7  A    between atoms: C_10  and  C_11 
REMARK    8  A    between atoms: C_11  and  C_12 
REMARK       I    between atoms: C_12  and  N_14 
REMARK    9  A    between atoms: N_14  and  N_15 
REMARK   10  A    between atoms: C_16  and  C_17 
REMARK   11  A    between atoms: C_19  and  N_20 
REMARK   12  A    between atoms: C_25  and  O_26 
ROOT
ATOM      1  C   UNL d   1      26.853 -15.495   0.427  0.00  0.00     0.237 C 
ATOM      2  O   UNL d   1      26.120 -14.507   0.356  0.00  0.00    -0.272 OA
ATOM      3  N   UNL d   1      27.944 -15.586   1.296  0.00  0.00    -0.247 N 
ATOM      4  H   UNL d   1      28.518 -16.418   1.360  0.00  0.00     0.192 HD
ENDROOT
BRANCH   3   5
ATOM      5  N   UNL d   1      28.192 -14.514   2.124  0.00  0.00    -0.184 NA
ATOM      6  C   UNL d   1      27.513 -14.374   3.218  0.00  0.00     0.153 C 
BRANCH   6   7
ATOM      7  C   UNL d   1      27.746 -13.211   4.128  0.00  0.00     0.018 A 
ATOM      8  C   UNL d   1      27.923 -13.432   5.504  0.00  0.00     0.051 A 
ATOM      9  C   UNL d   1      28.170 -12.338   6.358  0.00  0.00     0.103 A 
ATOM     10  C   UNL d   1      28.215 -11.030   5.853  0.00  0.00     0.039 A 
ATOM     11  C   UNL d   1      28.018 -10.814   4.488  0.00  0.00     0.040 A 
ATOM     12  C   UNL d   1      27.783 -11.899   3.634  0.00  0.00     0.077 A 
BRANCH   9  13
ATOM     13  N   UNL d   1      28.393 -12.560   7.797  0.00  0.00    -0.116 N 
ATOM     14  O   UNL d   1      28.224 -11.602   8.560  0.00  0.00    -0.532 OA
ATOM     15  O   UNL d   1      28.741 -13.695   8.159  0.00  0.00    -0.532 OA
ENDBRANCH   9  13
BRANCH  12  16
ATOM     16  O   UNL d   1      27.517 -11.669   2.314  0.00  0.00    -0.360 OA
ATOM     17  H   UNL d   1      27.567 -12.490   1.800  0.00  0.00     0.217 HD
ENDBRANCH  12  16
ENDBRANCH   6   7
ENDBRANCH   3   5
BRANCH   1  18
ATOM     18  C   UNL d   1      26.612 -16.715  -0.468  0.00  0.00     0.105 C 
BRANCH  18  19
ATOM     19  C   UNL d   1      25.305 -16.547  -1.279  0.00  0.00     0.010 C 
BRANCH  19  20
ATOM     20  C   UNL d   1      24.052 -16.960  -0.505  0.00  0.00     0.010 C 
BRANCH  20  21
ATOM     21  C   UNL d   1      23.515 -18.344  -0.919  0.00  0.00     0.103 C 
BRANCH  21  22
ATOM     22  C   UNL d   1      22.015 -18.436  -0.664  0.00  0.00     0.217 C 
ATOM     23  N   UNL d   1      21.586 -19.585  -0.032  0.00  0.00    -0.361 N 
ATOM     24  H   UNL d   1      22.249 -20.303   0.232  0.00  0.00     0.162 HD
ATOM     25  O   UNL d   1      21.232 -17.546  -0.997  0.00  0.00    -0.274 OA
BRANCH  23  26
ATOM     26  C   UNL d   1      20.171 -19.763   0.254  0.00  0.00     0.122 C 
BRANCH  26  27
ATOM     27  C   UNL d   1      19.881 -19.975   1.736  0.00  0.00     0.019 C 
BRANCH  27  28
ATOM     28  C   UNL d   1      18.436 -20.431   1.961  0.00  0.00    -0.003 C 
ATOM     29  C   UNL d   1      18.048 -21.525   0.980  0.00  0.00     0.005 C 
ENDBRANCH  27  28
ENDBRANCH  26  27
ENDBRANCH  23  26
ENDBRANCH  21  22
ENDBRANCH  20  21
ENDBRANCH  19  20
ENDBRANCH  18  19
ENDBRANCH   1  18
TORSDOF 12
ENDMDL
MODEL 6
REMARK VINA RESULT:    -6.934      5.519      6.603
REMARK INTER + INTRA:         -12.016
REMARK INTER:                 -10.514
REMARK INTRA:                  -1.502
REMARK CONF_INDEPENDENT:        3.580
REMARK UNBOUND:                -1.502
REMARK  12 active torsions:
REMARK  status: ('A' for Active; 'I' for Inactive)
REMARK    1  A    between atoms: C_2  and  C_3 
REMARK    2  A    between atoms: C_3  and  C_4 
REMARK    3  A    between atoms: C_4  and  N_5 
REMARK       I    between atoms: N_5  and  C_6 
REMARK    4  A    between atoms: C_6  and  C_8 
REMARK    5  A    between atoms: C_8  and  C_9 
REMARK    6  A    between atoms: C_9  and  C_10 
REMARK    7  A    between atoms: C_10  and  C_11 
REMARK    8  A    between atoms: C_11  and  C_12 
REMARK       I    between atoms: C_12  and  N_14 
REMARK    9  A    between atoms: N_14  and  N_15 
REMARK   10  A    between atoms: C_16  and  C_17 
REMARK   11  A    between atoms: C_19  and  N_20 
REMARK   12  A    between atoms: C_25  and  O_26 
ROOT
ATOM      1  C   UNL d   1      24.501 -15.901  -1.992  0.00  0.00     0.237 C 
ATOM      2  O   UNL d   1      25.473 -16.614  -2.247  0.00  0.00    -0.272 OA
ATOM      3  N   UNL d   1      24.137 -14.790  -2.757  0.00  0.00    -0.247 N 
ATOM      4  H   UNL d   1      23.318 -14.232  -2.547  0.00  0.00     0.192 HD
ENDROOT
BRANCH   3   5
ATOM      5  N   UNL d   1      24.904 -14.496  -3.862  0.00  0.00    -0.184 NA
ATOM      6  C   UNL d   1      25.850 -13.616  -3.775  0.00  0.00     0.153 C 
BRANCH   6   7
ATOM      7  C   UNL d   1      26.688 -13.263  -4.962  0.00  0.00     0.018 A 
ATOM      8  C   UNL d   1      26.748 -11.929  -5.396  0.00  0.00     0.051 A 
ATOM      9  C   UNL d   1      27.559 -11.592  -6.500  0.00  0.00     0.103 A 
ATOM     10  C   UNL d   1      28.284 -12.579  -7.184  0.00  0.00     0.039 A 
ATOM     11  C   UNL d   1      28.204 -13.908  -6.761  0.00  0.00     0.040 A 
ATOM     12  C   UNL d   1      27.409 -14.245  -5.659  0.00  0.00     0.077 A 
BRANCH   9  13
ATOM     13  N   UNL d   1      27.660 -10.191  -6.941  0.00  0.00    -0.116 N 
ATOM     14  O   UNL d   1      28.321  -9.955  -7.959  0.00  0.00    -0.532 OA
ATOM     15  O   UNL d   1      27.077  -9.328  -6.265  0.00  0.00    -0.532 OA
ENDBRANCH   9  13
BRANCH  12  16
ATOM     16  O   UNL d   1      27.278 -15.556  -5.302  0.00  0.00    -0.360 OA
ATOM     17  H   UNL d   1      26.546 -15.677  -4.677  0.00  0.00     0.217 HD
ENDBRANCH  12  16
ENDBRANCH   6   7
ENDBRANCH   3   5
BRANCH   1  18
ATOM     18  C   UNL d   1      23.612 -16.193  -0.777  0.00  0.00     0.105 C 
BRANCH  18  19
ATOM     19  C   UNL d   1      24.212 -17.337   0.074  0.00  0.00     0.010 C 
BRANCH  19  20
ATOM     20  C   UNL d   1      24.185 -18.696  -0.627  0.00  0.00     0.010 C 
BRANCH  20  21
ATOM     21  C   UNL d   1      23.038 -18.827  -1.648  0.00  0.00     0.103 C 
BRANCH  21  22
ATOM     22  C   UNL d   1      21.689 -18.851  -0.938  0.00  0.00     0.217 C 
ATOM     23  N   UNL d   1      21.578 -19.750   0.103  0.00  0.00    -0.361 N 
ATOM     24  H   UNL d   1      22.360 -20.341   0.355  0.00  0.00     0.162 HD
ATOM     25  O   UNL d   1      20.755 -18.119  -1.267  0.00  0.00    -0.274 OA
BRANCH  23  26
ATOM     26  C   UNL d   1      20.329 -19.845   0.841  0.00  0.00     0.122 C 
BRANCH  26  27
ATOM     27  C   UNL d   1      19.123 -20.116  -0.051  0.00  0.00     0.019 C 
BRANCH  27  28
ATOM     28  C   UNL d   1      18.049 -20.917   0.690  0.00  0.00    -0.003 C 
ATOM     29  C   UNL d   1      17.877 -20.415   2.114  0.00  0.00     0.005 C 
ENDBRANCH  27  28
ENDBRANCH  26  27
ENDBRANCH  23  26
ENDBRANCH  21  22
ENDBRANCH  20  21
ENDBRANCH  19  20
ENDBRANCH  18  19
ENDBRANCH   1  18
TORSDOF 12
ENDMDL
MODEL 7
REMARK VINA RESULT:    -5.917      3.099      4.366
REMARK INTER + INTRA:         -11.961
REMARK INTER:                  -9.496
REMARK INTRA:                  -2.465
REMARK CONF_INDEPENDENT:        3.580
REMARK UNBOUND:                -2.465
REMARK  12 active torsions:
REMARK  status: ('A' for Active; 'I' for Inactive)
REMARK    1  A    between atoms: C_2  and  C_3 
REMARK    2  A    between atoms: C_3  and  C_4 
REMARK    3  A    between atoms: C_4  and  N_5 
REMARK       I    between atoms: N_5  and  C_6 
REMARK    4  A    between atoms: C_6  and  C_8 
REMARK    5  A    between atoms: C_8  and  C_9 
REMARK    6  A    between atoms: C_9  and  C_10 
REMARK    7  A    between atoms: C_10  and  C_11 
REMARK    8  A    between atoms: C_11  and  C_12 
REMARK       I    between atoms: C_12  and  N_14 
REMARK    9  A    between atoms: N_14  and  N_15 
REMARK   10  A    between atoms: C_16  and  C_17 
REMARK   11  A    between atoms: C_19  and  N_20 
REMARK   12  A    between atoms: C_25  and  O_26 
ROOT
ATOM      1  C   UNL d   1      28.003 -15.148  -0.127  0.00  0.00     0.237 C 
ATOM      2  O   UNL d   1      27.524 -14.133  -0.634  0.00  0.00    -0.272 OA
ATOM      3  N   UNL d   1      28.537 -15.187   1.164  0.00  0.00    -0.247 N 
ATOM      4  H   UNL d   1      28.900 -16.038   1.575  0.00  0.00     0.192 HD
ENDROOT
BRANCH   3   5
ATOM      5  N   UNL d   1      28.505 -14.026   1.904  0.00  0.00    -0.184 NA
ATOM      6  C   UNL d   1      27.381 -13.409   2.087  0.00  0.00     0.153 C 
BRANCH   6   7
ATOM      7  C   UNL d   1      27.317 -12.138   2.871  0.00  0.00     0.018 A 
ATOM      8  C   UNL d   1      26.717 -11.002   2.301  0.00  0.00     0.051 A 
ATOM      9  C   UNL d   1      26.634  -9.810   3.051  0.00  0.00     0.103 A 
ATOM     10  C   UNL d   1      27.166  -9.739   4.346  0.00  0.00     0.039 A 
ATOM     11  C   UNL d   1      27.780 -10.865   4.899  0.00  0.00     0.040 A 
ATOM     12  C   UNL d   1      27.856 -12.054   4.163  0.00  0.00     0.077 A 
BRANCH   9  13
ATOM     13  N   UNL d   1      25.975  -8.624   2.479  0.00  0.00    -0.116 N 
ATOM     14  O   UNL d   1      26.290  -7.517   2.931  0.00  0.00    -0.532 OA
ATOM     15  O   UNL d   1      25.138  -8.805   1.580  0.00  0.00    -0.532 OA
ENDBRANCH   9  13
BRANCH  12  16
ATOM     16  O   UNL d   1      28.525 -13.124   4.684  0.00  0.00    -0.360 OA
ATOM     17  H   UNL d   1      28.948 -13.646   3.984  0.00  0.00     0.217 HD
ENDBRANCH  12  16
ENDBRANCH   6   7
ENDBRANCH   3   5
BRANCH   1  18
ATOM     18  C   UNL d   1      28.053 -16.465  -0.908  0.00  0.00     0.105 C 
BRANCH  18  19
ATOM     19  C   UNL d   1      27.773 -17.665   0.027  0.00  0.00     0.010 C 
BRANCH  19  20
ATOM     20  C   UNL d   1      26.370 -18.253  -0.140  0.00  0.00     0.010 C 
BRANCH  20  21
ATOM     21  C   UNL d   1      25.256 -17.193  -0.036  0.00  0.00     0.103 C 
BRANCH  21  22
ATOM     22  C   UNL d   1      24.879 -16.673  -1.418  0.00  0.00     0.217 C 
ATOM     23  N   UNL d   1      25.096 -15.327  -1.629  0.00  0.00    -0.361 N 
ATOM     24  H   UNL d   1      25.481 -14.748  -0.893  0.00  0.00     0.162 HD
ATOM     25  O   UNL d   1      24.413 -17.401  -2.294  0.00  0.00    -0.274 OA
BRANCH  23  26
ATOM     26  C   UNL d   1      24.768 -14.739  -2.918  0.00  0.00     0.122 C 
BRANCH  26  27
ATOM     27  C   UNL d   1      25.710 -13.609  -3.319  0.00  0.00     0.019 C 
BRANCH  27  28
ATOM     28  C   UNL d   1      26.193 -13.773  -4.763  0.00  0.00    -0.003 C 
ATOM     29  C   UNL d   1      26.760 -15.164  -4.997  0.00  0.00     0.005 C 
ENDBRANCH  27  28
ENDBRANCH  26  27
ENDBRANCH  23  26
ENDBRANCH  21  22
ENDBRANCH  20  21
ENDBRANCH  19  20
ENDBRANCH  18  19
ENDBRANCH   1  18
TORSDOF 12
ENDMDL
