MODEL 1
REMARK VINA RESULT:    -8.876      0.000      0.000
REMARK INTER + INTRA:         -15.723
REMARK INTER:                 -12.456
REMARK INTRA:                  -3.267
REMARK CONF_INDEPENDENT:        3.580
REMARK UNBOUND:                -3.267
REMARK  12 active torsions:
REMARK  status: ('A' for Active; 'I' for Inactive)
REMARK    1  A    between atoms: C_20  and  C_22 
REMARK    2  A    between atoms: C_20  and  O_21 
REMARK    3  A    between atoms: C_22  and  C_24 
REMARK    4  A    between atoms: C_24  and  O_25 
REMARK    5  A    between atoms: O_25  and  C_26 
REMARK    6  A    between atoms: C_26  and  C_28 
REMARK    7  A    between atoms: C_28  and  C_29 
REMARK    8  A    between atoms: C_29  and  C_30 
REMARK       I    between atoms: C_30  and  N_32 
REMARK    9  A    between atoms: N_32  and  C_33 
REMARK   10  A    between atoms: C_33  and  C_34 
REMARK   11  A    between atoms: C_34  and  C_35 
REMARK   12  A    between atoms: C_35  and  N_36 
ROOT
ATOM      1  C   UNL d   1      32.478 -17.418  -7.111  0.00  0.00     0.016 C 
ATOM      2  C   UNL d   1      32.207 -15.903  -6.924  0.00  0.00    -0.030 C 
ATOM      3  C   UNL d   1      32.961 -15.487  -5.646  0.00  0.00     0.017 C 
ATOM      4  C   UNL d   1      33.172 -13.973  -5.620  0.00  0.00     0.079 C 
ATOM      5  C   UNL d   1      34.448 -14.113  -6.391  0.00  0.00     0.132 C 
ATOM      6  O   UNL d   1      35.479 -14.037  -5.818  0.00  0.00    -0.298 OA
ATOM      7  C   UNL d   1      34.169 -14.748  -7.869  0.00  0.00     0.077 C 
ATOM      8  C   UNL d   1      32.845 -15.003  -8.060  0.00  0.00    -0.013 C 
ATOM      9  C   UNL d   1      32.182 -13.697  -8.477  0.00  0.00     0.012 C 
ATOM     10  C   UNL d   1      30.782 -13.471  -7.959  0.00  0.00     0.006 C 
ATOM     11  C   UNL d   1      30.507 -14.141  -6.596  0.00  0.00    -0.005 C 
ATOM     12  C   UNL d   1      30.732 -15.654  -6.627  0.00  0.00    -0.001 C 
ATOM     13  C   UNL d   1      30.324 -16.297  -5.269  0.00  0.00     0.007 C 
ATOM     14  C   UNL d   1      28.917 -15.956  -4.858  0.00  0.00     0.013 C 
ATOM     15  C   UNL d   1      28.622 -14.413  -4.793  0.00  0.00    -0.002 C 
ATOM     16  C   UNL d   1      29.363 -13.774  -3.610  0.00  0.00     0.019 C 
ATOM     17  C   UNL d   1      29.166 -13.866  -6.074  0.00  0.00     0.002 C 
ATOM     18  C   UNL d   1      28.795 -12.393  -5.941  0.00  0.00     0.009 C 
ATOM     19  C   UNL d   1      27.505 -12.713  -6.602  0.00  0.00     0.047 C 
ATOM     20  C   UNL d   1      27.135 -13.866  -5.182  0.00  0.00     0.128 C 
ENDROOT
BRANCH  20  21
ATOM     21  C   UNL d   1      25.762 -13.772  -4.294  0.00  0.00     0.185 C 
ATOM     22  O   UNL d   1      24.792 -14.475  -4.643  0.00  0.00    -0.292 OA
BRANCH  21  23
ATOM     23  C   UNL d   1      25.666 -13.109  -2.831  0.00  0.00     0.260 C 
BRANCH  23  24
ATOM     24  O   UNL d   1      26.753 -13.548  -1.885  0.00  0.00    -0.314 OA
BRANCH  24  25
ATOM     25  C   UNL d   1      26.942 -14.887  -1.601  0.00  0.00     0.259 C 
ATOM     26  O   UNL d   1      27.177 -15.728  -2.465  0.00  0.00    -0.265 OA
BRANCH  25  27
ATOM     27  C   UNL d   1      26.852 -15.252  -0.095  0.00  0.00     0.120 C 
BRANCH  27  28
ATOM     28  C   UNL d   1      26.976 -16.785   0.191  0.00  0.00     0.112 C 
BRANCH  28  29
ATOM     29  C   UNL d   1      25.707 -17.580  -0.163  0.00  0.00     0.217 C 
ATOM     30  O   UNL d   1      25.356 -18.578   0.453  0.00  0.00    -0.274 OA
ATOM     31  N   UNL d   1      24.963 -17.105  -1.241  0.00  0.00    -0.361 N 
ATOM     32  H   UNL d   1      25.265 -16.268  -1.726  0.00  0.00     0.162 HD
BRANCH  31  33
ATOM     33  C   UNL d   1      23.735 -17.791  -1.644  0.00  0.00     0.124 C 
BRANCH  33  34
ATOM     34  C   UNL d   1      22.553 -17.530  -0.710  0.00  0.00     0.040 C 
BRANCH  34  35
ATOM     35  C   UNL d   1      22.293 -18.716   0.224  0.00  0.00     0.130 C 
BRANCH  35  36
ATOM     36  N   UNL d   1      20.905 -19.210   0.125  0.00  0.00    -0.352 N 
ATOM     37  C   UNL d   1      20.272 -20.075   1.018  0.00  0.00     0.108 A 
ATOM     38  C   UNL d   1      19.031 -20.335   0.507  0.00  0.00     0.106 A 
ATOM     39  N   UNL d   1      18.940 -19.621  -0.664  0.00  0.00    -0.361 N 
ATOM     40  C   UNL d   1      20.069 -18.949  -0.894  0.00  0.00     0.182 A 
ATOM     41  H   UNL d   1      18.133 -19.608  -1.285  0.00  0.00     0.166 HD
ENDBRANCH  35  36
ENDBRANCH  34  35
ENDBRANCH  33  34
ENDBRANCH  31  33
ENDBRANCH  28  29
ENDBRANCH  27  28
ENDBRANCH  25  27
ENDBRANCH  24  25
ENDBRANCH  23  24
ENDBRANCH  21  23
ENDBRANCH  20  21
BRANCH  20  42
ATOM     42  O   UNL d   1      26.640 -15.210  -5.534  0.00  0.00    -0.381 OA
ATOM     43  H   UNL d   1      26.620 -15.667  -4.650  0.00  0.00     0.211 HD
ENDBRANCH  20  42
TORSDOF 12
ENDMDL
MODEL 2
REMARK VINA RESULT:    -7.799      5.323      8.803
REMARK INTER + INTRA:         -15.308
REMARK INTER:                 -11.378
REMARK INTRA:                  -3.929
REMARK CONF_INDEPENDENT:        3.580
REMARK UNBOUND:                -3.929
REMARK  12 active torsions:
REMARK  status: ('A' for Active; 'I' for Inactive)
REMARK    1  A    between atoms: C_20  and  C_22 
REMARK    2  A    between atoms: C_20  and  O_21 
REMARK    3  A    between atoms: C_22  and  C_24 
REMARK    4  A    between atoms: C_24  and  O_25 
REMARK    5  A    between atoms: O_25  and  C_26 
REMARK    6  A    between atoms: C_26  and  C_28 
REMARK    7  A    between atoms: C_28  and  C_29 
REMARK    8  A    between atoms: C_29  and  C_30 
REMARK       I    between atoms: C_30  and  N_32 
REMARK    9  A    between atoms: N_32  and  C_33 
REMARK   10  A    between atoms: C_33  and  C_34 
REMARK   11  A    between atoms: C_34  and  C_35 
REMARK   12  A    between atoms: C_35  and  N_36 
ROOT
ATOM      1  C   UNL d   1      24.245 -15.856  -1.729  0.00  0.00     0.016 C 
ATOM      2  C   UNL d   1      25.524 -15.040  -2.050  0.00  0.00    -0.030 C 
ATOM      3  C   UNL d   1      26.408 -15.954  -2.921  0.00  0.00     0.017 C 
ATOM      4  C   UNL d   1      27.441 -15.126  -3.687  0.00  0.00     0.079 C 
ATOM      5  C   UNL d   1      26.471 -14.908  -4.807  0.00  0.00     0.132 C 
ATOM      6  O   UNL d   1      26.583 -15.544  -5.797  0.00  0.00    -0.298 OA
ATOM      7  C   UNL d   1      25.162 -14.080  -4.291  0.00  0.00     0.077 C 
ATOM      8  C   UNL d   1      25.253 -13.777  -2.967  0.00  0.00    -0.013 C 
ATOM      9  C   UNL d   1      26.116 -12.529  -2.839  0.00  0.00     0.012 C 
ATOM     10  C   UNL d   1      27.023 -12.472  -1.633  0.00  0.00     0.006 C 
ATOM     11  C   UNL d   1      27.494 -13.857  -1.142  0.00  0.00    -0.005 C 
ATOM     12  C   UNL d   1      26.329 -14.781  -0.781  0.00  0.00    -0.001 C 
ATOM     13  C   UNL d   1      26.856 -16.116  -0.177  0.00  0.00     0.007 C 
ATOM     14  C   UNL d   1      27.778 -15.907   0.993  0.00  0.00     0.013 C 
ATOM     15  C   UNL d   1      29.007 -14.975   0.685  0.00  0.00    -0.002 C 
ATOM     16  C   UNL d   1      29.994 -15.681  -0.257  0.00  0.00     0.019 C 
ATOM     17  C   UNL d   1      28.420 -13.788  -0.010  0.00  0.00     0.002 C 
ATOM     18  C   UNL d   1      29.665 -12.932  -0.222  0.00  0.00     0.009 C 
ATOM     19  C   UNL d   1      29.401 -12.314   1.101  0.00  0.00     0.047 C 
ATOM     20  C   UNL d   1      29.592 -14.008   1.861  0.00  0.00     0.128 C 
ENDROOT
BRANCH  20  21
ATOM     21  C   UNL d   1      30.632 -14.320   3.087  0.00  0.00     0.185 C 
ATOM     22  O   UNL d   1      31.805 -14.628   2.793  0.00  0.00    -0.292 OA
BRANCH  21  23
ATOM     23  C   UNL d   1      30.364 -13.943   4.628  0.00  0.00     0.260 C 
BRANCH  23  24
ATOM     24  O   UNL d   1      29.224 -14.701   5.258  0.00  0.00    -0.314 OA
BRANCH  24  25
ATOM     25  C   UNL d   1      27.987 -14.108   5.418  0.00  0.00     0.259 C 
ATOM     26  O   UNL d   1      26.988 -14.464   4.799  0.00  0.00    -0.265 OA
BRANCH  25  27
ATOM     27  C   UNL d   1      27.947 -12.958   6.461  0.00  0.00     0.120 C 
BRANCH  27  28
ATOM     28  C   UNL d   1      28.717 -11.673   6.013  0.00  0.00     0.112 C 
BRANCH  28  29
ATOM     29  C   UNL d   1      28.015 -10.898   4.884  0.00  0.00     0.217 C 
ATOM     30  O   UNL d   1      27.847  -9.685   4.916  0.00  0.00    -0.274 OA
ATOM     31  N   UNL d   1      27.569 -11.655   3.802  0.00  0.00    -0.361 N 
ATOM     32  H   UNL d   1      27.733 -12.655   3.792  0.00  0.00     0.162 HD
BRANCH  31  33
ATOM     33  C   UNL d   1      26.900 -11.003   2.677  0.00  0.00     0.124 C 
BRANCH  33  34
ATOM     34  C   UNL d   1      27.671  -9.808   2.114  0.00  0.00     0.040 C 
BRANCH  34  35
ATOM     35  C   UNL d   1      26.757  -8.602   1.875  0.00  0.00     0.130 C 
BRANCH  35  36
ATOM     36  N   UNL d   1      26.331  -8.498   0.465  0.00  0.00    -0.352 N 
ATOM     37  C   UNL d   1      27.087  -8.851  -0.653  0.00  0.00     0.108 A 
ATOM     38  C   UNL d   1      26.348  -8.517  -1.754  0.00  0.00     0.106 A 
ATOM     39  N   UNL d   1      25.171  -7.987  -1.282  0.00  0.00    -0.361 N 
ATOM     40  C   UNL d   1      25.165  -7.973   0.052  0.00  0.00     0.182 A 
ATOM     41  H   UNL d   1      24.408  -7.639  -1.859  0.00  0.00     0.166 HD
ENDBRANCH  35  36
ENDBRANCH  34  35
ENDBRANCH  33  34
ENDBRANCH  31  33
ENDBRANCH  28  29
ENDBRANCH  27  28
ENDBRANCH  25  27
ENDBRANCH  24  25
ENDBRANCH  23  24
ENDBRANCH  21  23
ENDBRANCH  20  21
BRANCH  20  42
ATOM     42  O   UNL d   1      28.558 -14.418   2.829  0.00  0.00    -0.381 OA
ATOM     43  H   UNL d   1      28.941 -15.255   3.207  0.00  0.00     0.211 HD
ENDBRANCH  20  42
TORSDOF 12
ENDMDL
MODEL 3
REMARK VINA RESULT:    -7.367      6.268     10.381
REMARK INTER + INTRA:         -14.811
REMARK INTER:                 -10.947
REMARK INTRA:                  -3.865
REMARK CONF_INDEPENDENT:        3.580
REMARK UNBOUND:                -3.865
REMARK  12 active torsions:
REMARK  status: ('A' for Active; 'I' for Inactive)
REMARK    1  A    between atoms: C_20  and  C_22 
REMARK    2  A    between atoms: C_20  and  O_21 
REMARK    3  A    between atoms: C_22  and  C_24 
REMARK    4  A    between atoms: C_24  and  O_25 
REMARK    5  A    between atoms: O_25  and  C_26 
REMARK    6  A    between atoms: C_26  and  C_28 
REMARK    7  A    between atoms: C_28  and  C_29 
REMARK    8  A    between atoms: C_29  and  C_30 
REMARK       I    between atoms: C_30  and  N_32 
REMARK    9  A    between atoms: N_32  and  C_33 
REMARK   10  A    between atoms: C_33  and  C_34 
REMARK   11  A    between atoms: C_34  and  C_35 
REMARK   12  A    between atoms: C_35  and  N_36 
ROOT
ATOM      1  C   UNL d   1      29.666  -8.821   7.644  0.00  0.00     0.016 C 
ATOM      2  C   UNL d   1      29.721 -10.370   7.647  0.00  0.00    -0.030 C 
ATOM      3  C   UNL d   1      31.200 -10.747   7.440  0.00  0.00     0.017 C 
ATOM      4  C   UNL d   1      31.454 -12.184   7.897  0.00  0.00     0.079 C 
ATOM      5  C   UNL d   1      31.714 -11.718   9.296  0.00  0.00     0.132 C 
ATOM      6  O   UNL d   1      32.829 -11.641   9.680  0.00  0.00    -0.298 OA
ATOM      7  C   UNL d   1      30.386 -11.014   9.931  0.00  0.00     0.077 C 
ATOM      8  C   UNL d   1      29.350 -11.012   9.047  0.00  0.00    -0.013 C 
ATOM      9  C   UNL d   1      28.682 -12.378   9.119  0.00  0.00     0.012 C 
ATOM     10  C   UNL d   1      28.157 -12.928   7.815  0.00  0.00     0.006 C 
ATOM     11  C   UNL d   1      28.951 -12.460   6.577  0.00  0.00    -0.005 C 
ATOM     12  C   UNL d   1      28.982 -10.936   6.439  0.00  0.00    -0.001 C 
ATOM     13  C   UNL d   1      29.686 -10.520   5.114  0.00  0.00     0.007 C 
ATOM     14  C   UNL d   1      29.082 -11.173   3.899  0.00  0.00     0.013 C 
ATOM     15  C   UNL d   1      29.033 -12.743   3.972  0.00  0.00    -0.002 C 
ATOM     16  C   UNL d   1      30.448 -13.331   3.864  0.00  0.00     0.019 C 
ATOM     17  C   UNL d   1      28.470 -13.046   5.323  0.00  0.00     0.002 C 
ATOM     18  C   UNL d   1      28.416 -14.569   5.281  0.00  0.00     0.009 C 
ATOM     19  C   UNL d   1      27.049 -14.452   4.716  0.00  0.00     0.047 C 
ATOM     20  C   UNL d   1      27.793 -13.537   3.269  0.00  0.00     0.128 C 
ENDROOT
BRANCH  20  21
ATOM     21  C   UNL d   1      27.553 -13.988   1.713  0.00  0.00     0.185 C 
ATOM     22  O   UNL d   1      26.379 -14.027   1.291  0.00  0.00    -0.292 OA
BRANCH  21  23
ATOM     23  C   UNL d   1      28.709 -14.062   0.597  0.00  0.00     0.260 C 
BRANCH  23  24
ATOM     24  O   UNL d   1      28.255 -13.671  -0.786  0.00  0.00    -0.314 OA
BRANCH  24  25
ATOM     25  C   UNL d   1      27.534 -12.511  -0.989  0.00  0.00     0.259 C 
ATOM     26  O   UNL d   1      27.202 -11.760  -0.075  0.00  0.00    -0.265 OA
BRANCH  25  27
ATOM     27  C   UNL d   1      27.183 -12.214  -2.472  0.00  0.00     0.120 C 
BRANCH  27  28
ATOM     28  C   UNL d   1      25.740 -12.659  -2.880  0.00  0.00     0.112 C 
BRANCH  28  29
ATOM     29  C   UNL d   1      25.540 -14.184  -2.866  0.00  0.00     0.217 C 
ATOM     30  O   UNL d   1      25.149 -14.812  -3.842  0.00  0.00    -0.274 OA
ATOM     31  N   UNL d   1      25.826 -14.832  -1.665  0.00  0.00    -0.361 N 
ATOM     32  H   UNL d   1      26.163 -14.293  -0.876  0.00  0.00     0.162 HD
BRANCH  31  33
ATOM     33  C   UNL d   1      25.676 -16.283  -1.561  0.00  0.00     0.124 C 
BRANCH  33  34
ATOM     34  C   UNL d   1      25.963 -16.831  -0.163  0.00  0.00     0.040 C 
BRANCH  34  35
ATOM     35  C   UNL d   1      25.286 -18.186   0.068  0.00  0.00     0.130 C 
BRANCH  35  36
ATOM     36  N   UNL d   1      23.867 -18.176  -0.338  0.00  0.00    -0.352 N 
ATOM     37  C   UNL d   1      23.156 -19.248  -0.877  0.00  0.00     0.108 A 
ATOM     38  C   UNL d   1      21.907 -18.783  -1.184  0.00  0.00     0.106 A 
ATOM     39  N   UNL d   1      21.888 -17.459  -0.815  0.00  0.00    -0.361 N 
ATOM     40  C   UNL d   1      23.068 -17.095  -0.311  0.00  0.00     0.182 A 
ATOM     41  H   UNL d   1      21.095 -16.830  -0.919  0.00  0.00     0.166 HD
ENDBRANCH  35  36
ENDBRANCH  34  35
ENDBRANCH  33  34
ENDBRANCH  31  33
ENDBRANCH  28  29
ENDBRANCH  27  28
ENDBRANCH  25  27
ENDBRANCH  24  25
ENDBRANCH  23  24
ENDBRANCH  21  23
ENDBRANCH  20  21
BRANCH  20  42
ATOM     42  O   UNL d   1      27.118 -12.291   2.858  0.00  0.00    -0.381 OA
ATOM     43  H   UNL d   1      26.713 -12.548   1.986  0.00  0.00     0.211 HD
ENDBRANCH  20  42
TORSDOF 12
ENDMDL
MODEL 4
REMARK VINA RESULT:    -6.845      6.184     11.038
REMARK INTER + INTRA:         -14.839
REMARK INTER:                 -10.424
REMARK INTRA:                  -4.415
REMARK CONF_INDEPENDENT:        3.580
REMARK UNBOUND:                -4.415
REMARK  12 active torsions:
REMARK  status: ('A' for Active; 'I' for Inactive)
REMARK    1  A    between atoms: C_20  and  C_22 
REMARK    2  A    between atoms: C_20  and  O_21 
REMARK    3  A    between atoms: C_22  and  C_24 
REMARK    4  A    between atoms: C_24  and  O_25 
REMARK    5  A    between atoms: O_25  and  C_26 
REMARK    6  A    between atoms: C_26  and  C_28 
REMARK    7  A    between atoms: C_28  and  C_29 
REMARK    8  A    between atoms: C_29  and  C_30 
REMARK       I    between atoms: C_30  and  N_32 
REMARK    9  A    between atoms: N_32  and  C_33 
REMARK   10  A    between atoms: C_33  and  C_34 
REMARK   11  A    between atoms: C_34  and  C_35 
REMARK   12  A    between atoms: C_35  and  N_36 
ROOT
ATOM      1  C   UNL d   1      31.834 -13.779   8.484  0.00  0.00     0.016 C 
ATOM      2  C   UNL d   1      30.564 -13.004   8.047  0.00  0.00    -0.030 C 
ATOM      3  C   UNL d   1      29.375 -13.713   8.725  0.00  0.00     0.017 C 
ATOM      4  C   UNL d   1      28.158 -12.789   8.771  0.00  0.00     0.079 C 
ATOM      5  C   UNL d   1      28.620 -12.206  10.071  0.00  0.00     0.132 C 
ATOM      6  O   UNL d   1      28.106 -12.558  11.075  0.00  0.00    -0.298 OA
ATOM      7  C   UNL d   1      30.057 -11.451   9.893  0.00  0.00     0.077 C 
ATOM      8  C   UNL d   1      30.502 -11.524   8.608  0.00  0.00    -0.013 C 
ATOM      9  C   UNL d   1      29.807 -10.425   7.817  0.00  0.00     0.012 C 
ATOM     10  C   UNL d   1      29.447 -10.763   6.391  0.00  0.00     0.006 C 
ATOM     11  C   UNL d   1      29.152 -12.261   6.160  0.00  0.00    -0.005 C 
ATOM     12  C   UNL d   1      30.329 -13.158   6.548  0.00  0.00    -0.001 C 
ATOM     13  C   UNL d   1      30.031 -14.642   6.183  0.00  0.00     0.007 C 
ATOM     14  C   UNL d   1      29.648 -14.825   4.739  0.00  0.00     0.013 C 
ATOM     15  C   UNL d   1      28.433 -13.939   4.279  0.00  0.00    -0.002 C 
ATOM     16  C   UNL d   1      27.130 -14.438   4.922  0.00  0.00     0.019 C 
ATOM     17  C   UNL d   1      28.746 -12.568   4.787  0.00  0.00     0.002 C 
ATOM     18  C   UNL d   1      27.551 -11.783   4.257  0.00  0.00     0.009 C 
ATOM     19  C   UNL d   1      28.335 -11.526   3.023  0.00  0.00     0.047 C 
ATOM     20  C   UNL d   1      28.392 -13.372   2.750  0.00  0.00     0.128 C 
ENDROOT
BRANCH  20  21
ATOM     21  C   UNL d   1      27.903 -14.080   1.356  0.00  0.00     0.185 C 
ATOM     22  O   UNL d   1      27.946 -13.400   0.311  0.00  0.00    -0.292 OA
BRANCH  21  23
ATOM     23  C   UNL d   1      27.691 -15.663   1.164  0.00  0.00     0.260 C 
BRANCH  23  24
ATOM     24  O   UNL d   1      26.429 -16.029   0.426  0.00  0.00    -0.314 OA
BRANCH  24  25
ATOM     25  C   UNL d   1      26.294 -17.268  -0.168  0.00  0.00     0.259 C 
ATOM     26  O   UNL d   1      27.051 -18.208   0.064  0.00  0.00    -0.265 OA
BRANCH  25  27
ATOM     27  C   UNL d   1      25.095 -17.395  -1.146  0.00  0.00     0.120 C 
BRANCH  27  28
ATOM     28  C   UNL d   1      24.551 -16.021  -1.658  0.00  0.00     0.112 C 
BRANCH  28  29
ATOM     29  C   UNL d   1      25.520 -15.291  -2.605  0.00  0.00     0.217 C 
ATOM     30  O   UNL d   1      25.344 -15.228  -3.815  0.00  0.00    -0.274 OA
ATOM     31  N   UNL d   1      26.632 -14.697  -2.011  0.00  0.00    -0.361 N 
ATOM     32  H   UNL d   1      26.747 -14.750  -1.006  0.00  0.00     0.162 HD
BRANCH  31  33
ATOM     33  C   UNL d   1      27.602 -13.972  -2.831  0.00  0.00     0.124 C 
BRANCH  33  34
ATOM     34  C   UNL d   1      28.328 -14.855  -3.846  0.00  0.00     0.040 C 
BRANCH  34  35
ATOM     35  C   UNL d   1      29.770 -15.146  -3.417  0.00  0.00     0.130 C 
BRANCH  35  36
ATOM     36  N   UNL d   1      29.835 -15.846  -2.118  0.00  0.00    -0.352 N 
ATOM     37  C   UNL d   1      30.597 -15.465  -1.014  0.00  0.00     0.108 A 
ATOM     38  C   UNL d   1      30.426 -16.431  -0.061  0.00  0.00     0.106 A 
ATOM     39  N   UNL d   1      29.565 -17.356  -0.601  0.00  0.00    -0.361 N 
ATOM     40  C   UNL d   1      29.214 -17.005  -1.839  0.00  0.00     0.182 A 
ATOM     41  H   UNL d   1      29.242 -18.202  -0.136  0.00  0.00     0.166 HD
ENDBRANCH  35  36
ENDBRANCH  34  35
ENDBRANCH  33  34
ENDBRANCH  31  33
ENDBRANCH  28  29
ENDBRANCH  27  28
ENDBRANCH  25  27
ENDBRANCH  24  25
ENDBRANCH  23  24
ENDBRANCH  21  23
ENDBRANCH  20  21
BRANCH  20  42
ATOM     42  O   UNL d   1      29.706 -13.949   2.410  0.00  0.00    -0.381 OA
ATOM     43  H   UNL d   1      29.753 -13.803   1.427  0.00  0.00     0.211 HD
ENDBRANCH  20  42
TORSDOF 12
ENDMDL
MODEL 5
REMARK VINA RESULT:    -6.698      5.418      8.964
REMARK INTER + INTRA:         -15.590
REMARK INTER:                 -10.278
REMARK INTRA:                  -5.312
REMARK CONF_INDEPENDENT:        3.580
REMARK UNBOUND:                -5.312
REMARK  12 active torsions:
REMARK  status: ('A' for Active; 'I' for Inactive)
REMARK    1  A    between atoms: C_20  and  C_22 
REMARK    2  A    between atoms: C_20  and  O_21 
REMARK    3  A    between atoms: C_22  and  C_24 
REMARK    4  A    between atoms: C_24  and  O_25 
REMARK    5  A    between atoms: O_25  and  C_26 
REMARK    6  A    between atoms: C_26  and  C_28 
REMARK    7  A    between atoms: C_28  and  C_29 
REMARK    8  A    between atoms: C_29  and  C_30 
REMARK       I    between atoms: C_30  and  N_32 
REMARK    9  A    between atoms: N_32  and  C_33 
REMARK   10  A    between atoms: C_33  and  C_34 
REMARK   11  A    between atoms: C_34  and  C_35 
REMARK   12  A    between atoms: C_35  and  N_36 
ROOT
ATOM      1  C   UNL d   1      24.402 -15.895  -1.886  0.00  0.00     0.016 C 
ATOM      2  C   UNL d   1      25.597 -14.949  -2.169  0.00  0.00    -0.030 C 
ATOM      3  C   UNL d   1      26.659 -15.802  -2.890  0.00  0.00     0.017 C 
ATOM      4  C   UNL d   1      27.648 -14.906  -3.634  0.00  0.00     0.079 C 
ATOM      5  C   UNL d   1      26.763 -14.891  -4.842  0.00  0.00     0.132 C 
ATOM      6  O   UNL d   1      27.038 -15.575  -5.766  0.00  0.00    -0.298 OA
ATOM      7  C   UNL d   1      25.324 -14.200  -4.501  0.00  0.00     0.077 C 
ATOM      8  C   UNL d   1      25.259 -13.797  -3.202  0.00  0.00    -0.013 C 
ATOM      9  C   UNL d   1      25.951 -12.444  -3.106  0.00  0.00     0.012 C 
ATOM     10  C   UNL d   1      26.733 -12.189  -1.840  0.00  0.00     0.006 C 
ATOM     11  C   UNL d   1      27.322 -13.466  -1.204  0.00  0.00    -0.005 C 
ATOM     12  C   UNL d   1      26.249 -14.503  -0.864  0.00  0.00    -0.001 C 
ATOM     13  C   UNL d   1      26.875 -15.715  -0.115  0.00  0.00     0.007 C 
ATOM     14  C   UNL d   1      27.658 -15.310   1.105  0.00  0.00     0.013 C 
ATOM     15  C   UNL d   1      28.788 -14.254   0.822  0.00  0.00    -0.002 C 
ATOM     16  C   UNL d   1      29.933 -14.894   0.022  0.00  0.00     0.019 C 
ATOM     17  C   UNL d   1      28.129 -13.202  -0.010  0.00  0.00     0.002 C 
ATOM     18  C   UNL d   1      29.275 -12.212  -0.190  0.00  0.00     0.009 C 
ATOM     19  C   UNL d   1      28.822 -11.542   1.054  0.00  0.00     0.047 C 
ATOM     20  C   UNL d   1      29.146 -13.141   1.960  0.00  0.00     0.128 C 
ENDROOT
BRANCH  20  21
ATOM     21  C   UNL d   1      30.103 -13.234   3.286  0.00  0.00     0.185 C 
ATOM     22  O   UNL d   1      30.403 -12.169   3.864  0.00  0.00    -0.292 OA
BRANCH  21  23
ATOM     23  C   UNL d   1      30.411 -14.590   4.096  0.00  0.00     0.260 C 
BRANCH  23  24
ATOM     24  O   UNL d   1      29.204 -15.192   4.768  0.00  0.00    -0.314 OA
BRANCH  24  25
ATOM     25  C   UNL d   1      28.380 -14.419   5.561  0.00  0.00     0.259 C 
ATOM     26  O   UNL d   1      27.237 -14.107   5.236  0.00  0.00    -0.265 OA
BRANCH  25  27
ATOM     27  C   UNL d   1      29.002 -13.982   6.915  0.00  0.00     0.120 C 
BRANCH  27  28
ATOM     28  C   UNL d   1      29.792 -12.635   6.841  0.00  0.00     0.112 C 
BRANCH  28  29
ATOM     29  C   UNL d   1      28.916 -11.428   6.461  0.00  0.00     0.217 C 
ATOM     30  O   UNL d   1      28.792 -10.445   7.181  0.00  0.00    -0.274 OA
ATOM     31  N   UNL d   1      28.254 -11.509   5.237  0.00  0.00    -0.361 N 
ATOM     32  H   UNL d   1      28.384 -12.326   4.653  0.00  0.00     0.162 HD
BRANCH  31  33
ATOM     33  C   UNL d   1      27.406 -10.404   4.789  0.00  0.00     0.124 C 
BRANCH  33  34
ATOM     34  C   UNL d   1      27.389 -10.222   3.271  0.00  0.00     0.040 C 
BRANCH  34  35
ATOM     35  C   UNL d   1      27.367  -8.742   2.875  0.00  0.00     0.130 C 
BRANCH  35  36
ATOM     36  N   UNL d   1      26.827  -8.537   1.516  0.00  0.00    -0.352 N 
ATOM     37  C   UNL d   1      27.570  -8.442   0.339  0.00  0.00     0.108 A 
ATOM     38  C   UNL d   1      26.686  -8.172  -0.668  0.00  0.00     0.106 A 
ATOM     39  N   UNL d   1      25.441  -8.123  -0.086  0.00  0.00    -0.361 N 
ATOM     40  C   UNL d   1      25.529  -8.339   1.228  0.00  0.00     0.182 A 
ATOM     41  H   UNL d   1      24.569  -7.937  -0.575  0.00  0.00     0.166 HD
ENDBRANCH  35  36
ENDBRANCH  34  35
ENDBRANCH  33  34
ENDBRANCH  31  33
ENDBRANCH  28  29
ENDBRANCH  27  28
ENDBRANCH  25  27
ENDBRANCH  24  25
ENDBRANCH  23  24
ENDBRANCH  21  23
ENDBRANCH  20  21
BRANCH  20  42
ATOM     42  O   UNL d   1      28.087 -13.610   2.872  0.00  0.00    -0.381 OA
ATOM     43  H   UNL d   1      28.467 -13.397   3.767  0.00  0.00     0.211 HD
ENDBRANCH  20  42
TORSDOF 12
ENDMDL
MODEL 6
REMARK VINA RESULT:    -6.285      4.292      8.542
REMARK INTER + INTRA:         -15.515
REMARK INTER:                  -9.864
REMARK INTRA:                  -5.651
REMARK CONF_INDEPENDENT:        3.580
REMARK UNBOUND:                -5.651
REMARK  12 active torsions:
REMARK  status: ('A' for Active; 'I' for Inactive)
REMARK    1  A    between atoms: C_20  and  C_22 
REMARK    2  A    between atoms: C_20  and  O_21 
REMARK    3  A    between atoms: C_22  and  C_24 
REMARK    4  A    between atoms: C_24  and  O_25 
REMARK    5  A    between atoms: O_25  and  C_26 
REMARK    6  A    between atoms: C_26  and  C_28 
REMARK    7  A    between atoms: C_28  and  C_29 
REMARK    8  A    between atoms: C_29  and  C_30 
REMARK       I    between atoms: C_30  and  N_32 
REMARK    9  A    between atoms: N_32  and  C_33 
REMARK   10  A    between atoms: C_33  and  C_34 
REMARK   11  A    between atoms: C_34  and  C_35 
REMARK   12  A    between atoms: C_35  and  N_36 
ROOT
ATOM      1  C   UNL d   1      28.105 -15.254   5.113  0.00  0.00     0.016 C 
ATOM      2  C   UNL d   1      28.655 -13.852   4.749  0.00  0.00    -0.030 C 
ATOM      3  C   UNL d   1      27.629 -12.835   5.286  0.00  0.00     0.017 C 
ATOM      4  C   UNL d   1      28.267 -11.453   5.422  0.00  0.00     0.079 C 
ATOM      5  C   UNL d   1      28.743 -11.781   6.803  0.00  0.00     0.132 C 
ATOM      6  O   UNL d   1      28.155 -11.350   7.733  0.00  0.00    -0.298 OA
ATOM      7  C   UNL d   1      29.794 -13.030   6.775  0.00  0.00     0.077 C 
ATOM      8  C   UNL d   1      29.997 -13.483   5.507  0.00  0.00    -0.013 C 
ATOM      9  C   UNL d   1      31.030 -12.576   4.854  0.00  0.00     0.012 C 
ATOM     10  C   UNL d   1      30.831 -12.296   3.384  0.00  0.00     0.006 C 
ATOM     11  C   UNL d   1      29.352 -12.319   2.940  0.00  0.00    -0.005 C 
ATOM     12  C   UNL d   1      28.670 -13.656   3.237  0.00  0.00    -0.001 C 
ATOM     13  C   UNL d   1      27.223 -13.673   2.661  0.00  0.00     0.007 C 
ATOM     14  C   UNL d   1      27.172 -13.339   1.195  0.00  0.00     0.013 C 
ATOM     15  C   UNL d   1      27.845 -11.967   0.824  0.00  0.00    -0.002 C 
ATOM     16  C   UNL d   1      27.004 -10.796   1.352  0.00  0.00     0.019 C 
ATOM     17  C   UNL d   1      29.165 -11.988   1.526  0.00  0.00     0.002 C 
ATOM     18  C   UNL d   1      29.755 -10.656   1.073  0.00  0.00     0.009 C 
ATOM     19  C   UNL d   1      30.339 -11.372  -0.089  0.00  0.00     0.047 C 
ATOM     20  C   UNL d   1      28.602 -11.811  -0.613  0.00  0.00     0.128 C 
ENDROOT
BRANCH  20  21
ATOM     21  C   UNL d   1      28.013 -11.482  -2.105  0.00  0.00     0.185 C 
ATOM     22  O   UNL d   1      28.432 -12.166  -3.061  0.00  0.00    -0.292 OA
BRANCH  21  23
ATOM     23  C   UNL d   1      26.708 -10.587  -2.393  0.00  0.00     0.260 C 
BRANCH  23  24
ATOM     24  O   UNL d   1      25.531 -11.367  -2.919  0.00  0.00    -0.314 OA
BRANCH  24  25
ATOM     25  C   UNL d   1      25.530 -12.748  -2.888  0.00  0.00     0.259 C 
ATOM     26  O   UNL d   1      25.711 -13.395  -1.859  0.00  0.00    -0.265 OA
BRANCH  25  27
ATOM     27  C   UNL d   1      25.265 -13.430  -4.257  0.00  0.00     0.120 C 
BRANCH  27  28
ATOM     28  C   UNL d   1      26.558 -13.670  -5.104  0.00  0.00     0.112 C 
BRANCH  28  29
ATOM     29  C   UNL d   1      27.374 -14.892  -4.646  0.00  0.00     0.217 C 
ATOM     30  O   UNL d   1      27.661 -15.817  -5.395  0.00  0.00    -0.274 OA
ATOM     31  N   UNL d   1      27.777 -14.898  -3.312  0.00  0.00    -0.361 N 
ATOM     32  H   UNL d   1      27.541 -14.114  -2.716  0.00  0.00     0.162 HD
BRANCH  31  33
ATOM     33  C   UNL d   1      28.566 -16.014  -2.790  0.00  0.00     0.124 C 
BRANCH  33  34
ATOM     34  C   UNL d   1      27.913 -16.725  -1.604  0.00  0.00     0.040 C 
BRANCH  34  35
ATOM     35  C   UNL d   1      26.695 -15.958  -1.081  0.00  0.00     0.130 C 
BRANCH  35  36
ATOM     36  N   UNL d   1      25.531 -16.841  -0.866  0.00  0.00    -0.352 N 
ATOM     37  C   UNL d   1      24.307 -16.768  -1.530  0.00  0.00     0.108 A 
ATOM     38  C   UNL d   1      23.493 -17.713  -0.969  0.00  0.00     0.106 A 
ATOM     39  N   UNL d   1      24.240 -18.336   0.003  0.00  0.00    -0.361 N 
ATOM     40  C   UNL d   1      25.463 -17.807   0.066  0.00  0.00     0.182 A 
ATOM     41  H   UNL d   1      23.913 -19.088   0.605  0.00  0.00     0.166 HD
ENDBRANCH  35  36
ENDBRANCH  34  35
ENDBRANCH  33  34
ENDBRANCH  31  33
ENDBRANCH  28  29
ENDBRANCH  27  28
ENDBRANCH  25  27
ENDBRANCH  24  25
ENDBRANCH  23  24
ENDBRANCH  21  23
ENDBRANCH  20  21
BRANCH  20  42
ATOM     42  O   UNL d   1      28.361 -13.217  -0.988  0.00  0.00    -0.381 OA
ATOM     43  H   UNL d   1      27.852 -13.125  -1.838  0.00  0.00     0.211 HD
ENDBRANCH  20  42
TORSDOF 12
ENDMDL
MODEL 7
REMARK VINA RESULT:    -5.959      5.283      9.670
REMARK INTER + INTRA:         -14.735
REMARK INTER:                  -9.539
REMARK INTRA:                  -5.196
REMARK CONF_INDEPENDENT:        3.580
REMARK UNBOUND:                -5.196
REMARK  12 active torsions:
REMARK  status: ('A' for Active; 'I' for Inactive)
REMARK    1  A    between atoms: C_20  and  C_22 
REMARK    2  A    between atoms: C_20  and  O_21 
REMARK    3  A    between atoms: C_22  and  C_24 
REMARK    4  A    between atoms: C_24  and  O_25 
REMARK    5  A    between atoms: O_25  and  C_26 
REMARK    6  A    between atoms: C_26  and  C_28 
REMARK    7  A    between atoms: C_28  and  C_29 
REMARK    8  A    between atoms: C_29  and  C_30 
REMARK       I    between atoms: C_30  and  N_32 
REMARK    9  A    between atoms: N_32  and  C_33 
REMARK   10  A    between atoms: C_33  and  C_34 
REMARK   11  A    between atoms: C_34  and  C_35 
REMARK   12  A    between atoms: C_35  and  N_36 
ROOT
ATOM      1  C   UNL d   1      28.154 -15.201   5.477  0.00  0.00     0.016 C 
ATOM      2  C   UNL d   1      28.603 -13.778   5.057  0.00  0.00    -0.030 C 
ATOM      3  C   UNL d   1      27.559 -12.809   5.645  0.00  0.00     0.017 C 
ATOM      4  C   UNL d   1      28.128 -11.391   5.719  0.00  0.00     0.079 C 
ATOM      5  C   UNL d   1      28.709 -11.670   7.071  0.00  0.00     0.132 C 
ATOM      6  O   UNL d   1      28.159 -11.254   8.031  0.00  0.00    -0.298 OA
ATOM      7  C   UNL d   1      29.823 -12.861   6.993  0.00  0.00     0.077 C 
ATOM      8  C   UNL d   1      29.968 -13.325   5.721  0.00  0.00    -0.013 C 
ATOM      9  C   UNL d   1      30.906 -12.375   4.989  0.00  0.00     0.012 C 
ATOM     10  C   UNL d   1      30.598 -12.132   3.532  0.00  0.00     0.006 C 
ATOM     11  C   UNL d   1      29.098 -12.243   3.185  0.00  0.00    -0.005 C 
ATOM     12  C   UNL d   1      28.510 -13.609   3.544  0.00  0.00    -0.001 C 
ATOM     13  C   UNL d   1      27.032 -13.713   3.065  0.00  0.00     0.007 C 
ATOM     14  C   UNL d   1      26.868 -13.409   1.600  0.00  0.00     0.013 C 
ATOM     15  C   UNL d   1      27.441 -12.010   1.166  0.00  0.00    -0.002 C 
ATOM     16  C   UNL d   1      26.573 -10.876   1.731  0.00  0.00     0.019 C 
ATOM     17  C   UNL d   1      28.802 -11.947   1.782  0.00  0.00     0.002 C 
ATOM     18  C   UNL d   1      29.289 -10.594   1.272  0.00  0.00     0.009 C 
ATOM     19  C   UNL d   1      29.835 -11.298   0.085  0.00  0.00     0.047 C 
ATOM     20  C   UNL d   1      28.095 -11.839  -0.318  0.00  0.00     0.128 C 
ENDROOT
BRANCH  20  21
ATOM     21  C   UNL d   1      27.394 -11.569  -1.774  0.00  0.00     0.185 C 
ATOM     22  O   UNL d   1      28.019 -10.876  -2.602  0.00  0.00    -0.292 OA
BRANCH  21  23
ATOM     23  C   UNL d   1      26.132 -12.387  -2.344  0.00  0.00     0.260 C 
BRANCH  23  24
ATOM     24  O   UNL d   1      26.444 -13.812  -2.724  0.00  0.00    -0.314 OA
BRANCH  24  25
ATOM     25  C   UNL d   1      25.443 -14.661  -3.154  0.00  0.00     0.259 C 
ATOM     26  O   UNL d   1      25.168 -14.826  -4.340  0.00  0.00    -0.265 OA
BRANCH  25  27
ATOM     27  C   UNL d   1      24.695 -15.413  -2.020  0.00  0.00     0.120 C 
BRANCH  27  28
ATOM     28  C   UNL d   1      25.218 -16.866  -1.775  0.00  0.00     0.112 C 
BRANCH  28  29
ATOM     29  C   UNL d   1      26.224 -16.970  -0.615  0.00  0.00     0.217 C 
ATOM     30  O   UNL d   1      26.204 -17.882   0.202  0.00  0.00    -0.274 OA
ATOM     31  N   UNL d   1      27.176 -15.955  -0.533  0.00  0.00    -0.361 N 
ATOM     32  H   UNL d   1      27.182 -15.220  -1.230  0.00  0.00     0.162 HD
BRANCH  31  33
ATOM     33  C   UNL d   1      28.180 -15.976   0.531  0.00  0.00     0.124 C 
BRANCH  33  34
ATOM     34  C   UNL d   1      29.607 -16.188   0.023  0.00  0.00     0.040 C 
BRANCH  34  35
ATOM     35  C   UNL d   1      30.317 -14.858  -0.248  0.00  0.00     0.130 C 
BRANCH  35  36
ATOM     36  N   UNL d   1      31.268 -14.504   0.826  0.00  0.00    -0.352 N 
ATOM     37  C   UNL d   1      32.291 -13.561   0.743  0.00  0.00     0.108 A 
ATOM     38  C   UNL d   1      32.975 -13.611   1.926  0.00  0.00     0.106 A 
ATOM     39  N   UNL d   1      32.348 -14.565   2.693  0.00  0.00    -0.361 N 
ATOM     40  C   UNL d   1      31.324 -15.103   2.028  0.00  0.00     0.182 A 
ATOM     41  H   UNL d   1      32.624 -14.840   3.633  0.00  0.00     0.166 HD
ENDBRANCH  35  36
ENDBRANCH  34  35
ENDBRANCH  33  34
ENDBRANCH  31  33
ENDBRANCH  28  29
ENDBRANCH  27  28
ENDBRANCH  25  27
ENDBRANCH  24  25
ENDBRANCH  23  24
ENDBRANCH  21  23
ENDBRANCH  20  21
BRANCH  20  42
ATOM     42  O   UNL d   1      27.907 -13.262  -0.657  0.00  0.00    -0.381 OA
ATOM     43  H   UNL d   1      28.166 -13.287  -1.618  0.00  0.00     0.211 HD
ENDBRANCH  20  42
TORSDOF 12
ENDMDL
