MODEL 1
REMARK VINA RESULT:    -8.155      0.000      0.000
REMARK INTER + INTRA:         -11.546
REMARK INTER:                 -10.839
REMARK INTRA:                  -0.707
REMARK CONF_INDEPENDENT:        2.685
REMARK UNBOUND:                -0.707
REMARK  9 active torsions:
REMARK  status: ('A' for Active; 'I' for Inactive)
REMARK    1  A    between atoms: O_2  and  C_3 
REMARK    2  A    between atoms: C_5  and  C_6 
REMARK       I    between atoms: C_6  and  N_8 
REMARK    3  A    between atoms: N_8  and  C_9 
REMARK    4  A    between atoms: C_9  and  N_11 
REMARK    5  A    between atoms: N_11  and  N_12 
REMARK       I    between atoms: N_12  and  C_13 
REMARK    6  A    between atoms: C_13  and  C_15 
REMARK    7  A    between atoms: C_15  and  N_16 
REMARK    8  A    between atoms: C_26  and  O_27 
REMARK    9  A    between atoms: C_29  and  O_30 
ROOT
ATOM      1  C   UNL d   1      26.905 -15.069  -3.245  0.00  0.00     0.193 C 
ATOM      2  S   UNL d   1      25.576 -14.420  -4.045  0.00  0.00    -0.039 SA
ENDROOT
BRANCH   1   3
ATOM      3  N   UNL d   1      28.087 -15.574  -3.940  0.00  0.00    -0.298 N 
ATOM      4  C   UNL d   1      28.361 -15.562  -5.376  0.00  0.00     0.258 C 
ATOM      5  O   UNL d   1      27.580 -15.093  -6.201  0.00  0.00    -0.267 OA
ATOM      6  H   UNL d   1      28.827 -15.960  -3.375  0.00  0.00     0.171 HD
BRANCH   4   7
ATOM      7  C   UNL d   1      29.660 -16.081  -5.998  0.00  0.00     0.037 A 
ATOM      8  C   UNL d   1      30.047 -17.444  -5.769  0.00  0.00     0.057 A 
ATOM      9  C   UNL d   1      31.110 -18.102  -6.453  0.00  0.00     0.105 A 
ATOM     10  C   UNL d   1      31.837 -17.336  -7.381  0.00  0.00     0.135 A 
ATOM     11  C   UNL d   1      31.507 -15.955  -7.567  0.00  0.00     0.105 A 
ATOM     12  C   UNL d   1      30.455 -15.337  -6.855  0.00  0.00     0.057 A 
BRANCH   9  13
ATOM     13  O   UNL d   1      31.108 -19.466  -6.220  0.00  0.00    -0.353 OA
ATOM     14  C   UNL d   1      31.044 -20.442  -7.259  0.00  0.00     0.210 C 
ENDBRANCH   9  13
BRANCH  10  15
ATOM     15  O   UNL d   1      32.823 -17.716  -8.232  0.00  0.00    -0.351 OA
ATOM     16  C   UNL d   1      34.135 -17.310  -8.073  0.00  0.00     0.210 C 
ENDBRANCH  10  15
BRANCH  11  17
ATOM     17  O   UNL d   1      32.114 -15.087  -8.467  0.00  0.00    -0.353 OA
ATOM     18  C   UNL d   1      32.052 -13.680  -8.212  0.00  0.00     0.210 C 
ENDBRANCH  11  17
ENDBRANCH   4   7
ENDBRANCH   1   3
BRANCH   1  19
ATOM     19  N   UNL d   1      26.885 -15.149  -1.795  0.00  0.00    -0.273 N 
ATOM     20  H   UNL d   1      27.389 -14.524  -1.168  0.00  0.00     0.189 HD
BRANCH  19  21
ATOM     21  N   UNL d   1      26.030 -16.359  -1.018  0.00  0.00    -0.266 N 
ATOM     22  C   UNL d   1      24.540 -16.543  -1.003  0.00  0.00     0.264 C 
ATOM     23  O   UNL d   1      23.881 -15.759  -1.750  0.00  0.00    -0.270 OA
ATOM     24  H   UNL d   1      26.701 -17.004  -0.594  0.00  0.00     0.190 HD
BRANCH  22  25
ATOM     25  C   UNL d   1      23.774 -17.828   0.022  0.00  0.00     0.379 C 
BRANCH  25  26
ATOM     26  N   UNL d   1      22.089 -18.365   0.154  0.00  0.00     0.129 NA
ATOM     27  C   UNL d   1      22.023 -19.318  -0.877  0.00  0.00     0.286 C 
ATOM     28  C   UNL d   1      20.820 -18.797  -1.248  0.00  0.00     0.021 C 
ATOM     29  C   UNL d   1      20.101 -19.376  -0.222  0.00  0.00    -0.014 A 
ATOM     30  C   UNL d   1      18.844 -20.086  -0.520  0.00  0.00     0.010 A 
ATOM     31  C   UNL d   1      21.021 -19.196   1.136  0.00  0.00     0.249 A 
ATOM     32  C   UNL d   1      18.046 -20.825   0.296  0.00  0.00     0.000 A 
ATOM     33  C   UNL d   1      18.585 -20.853   1.532  0.00  0.00    -0.001 A 
ATOM     34  C   UNL d   1      19.879 -20.075   1.852  0.00  0.00     0.023 A 
ENDBRANCH  25  26
ENDBRANCH  22  25
ENDBRANCH  19  21
ENDBRANCH   1  19
TORSDOF 9
ENDMDL
MODEL 2
REMARK VINA RESULT:    -7.994      4.939      8.234
REMARK INTER + INTRA:         -12.185
REMARK INTER:                 -10.679
REMARK INTRA:                  -1.506
REMARK CONF_INDEPENDENT:        2.685
REMARK UNBOUND:                -1.506
REMARK  9 active torsions:
REMARK  status: ('A' for Active; 'I' for Inactive)
REMARK    1  A    between atoms: O_2  and  C_3 
REMARK    2  A    between atoms: C_5  and  C_6 
REMARK       I    between atoms: C_6  and  N_8 
REMARK    3  A    between atoms: N_8  and  C_9 
REMARK    4  A    between atoms: C_9  and  N_11 
REMARK    5  A    between atoms: N_11  and  N_12 
REMARK       I    between atoms: N_12  and  C_13 
REMARK    6  A    between atoms: C_13  and  C_15 
REMARK    7  A    between atoms: C_15  and  N_16 
REMARK    8  A    between atoms: C_26  and  O_27 
REMARK    9  A    between atoms: C_29  and  O_30 
ROOT
ATOM      1  C   UNL d   1      25.165 -18.048  -0.568  0.00  0.00     0.193 C 
ATOM      2  S   UNL d   1      23.651 -18.774  -0.468  0.00  0.00    -0.039 SA
ENDROOT
BRANCH   1   3
ATOM      3  N   UNL d   1      25.543 -17.133  -1.643  0.00  0.00    -0.298 N 
ATOM      4  C   UNL d   1      24.813 -15.962  -2.126  0.00  0.00     0.258 C 
ATOM      5  O   UNL d   1      23.742 -15.597  -1.646  0.00  0.00    -0.267 OA
ATOM      6  H   UNL d   1      26.423 -17.300  -2.105  0.00  0.00     0.171 HD
BRANCH   4   7
ATOM      7  C   UNL d   1      25.326 -15.040  -3.236  0.00  0.00     0.037 A 
ATOM      8  C   UNL d   1      25.174 -13.621  -3.088  0.00  0.00     0.057 A 
ATOM      9  C   UNL d   1      25.786 -12.654  -3.938  0.00  0.00     0.105 A 
ATOM     10  C   UNL d   1      26.555 -13.148  -5.007  0.00  0.00     0.135 A 
ATOM     11  C   UNL d   1      26.657 -14.562  -5.208  0.00  0.00     0.105 A 
ATOM     12  C   UNL d   1      26.019 -15.485  -4.350  0.00  0.00     0.057 A 
BRANCH   9  13
ATOM     13  O   UNL d   1      25.675 -11.373  -3.429  0.00  0.00    -0.353 OA
ATOM     14  C   UNL d   1      25.536 -10.211  -4.244  0.00  0.00     0.210 C 
ENDBRANCH   9  13
BRANCH  10  15
ATOM     15  O   UNL d   1      27.318 -12.476  -5.905  0.00  0.00    -0.351 OA
ATOM     16  C   UNL d   1      28.321 -11.606  -5.520  0.00  0.00     0.210 C 
ENDBRANCH  10  15
BRANCH  11  17
ATOM     17  O   UNL d   1      27.403 -15.192  -6.197  0.00  0.00    -0.353 OA
ATOM     18  C   UNL d   1      28.831 -15.140  -6.117  0.00  0.00     0.210 C 
ENDBRANCH  11  17
ENDBRANCH   4   7
ENDBRANCH   1   3
BRANCH   1  19
ATOM     19  N   UNL d   1      26.158 -18.347   0.448  0.00  0.00    -0.273 N 
ATOM     20  H   UNL d   1      26.279 -19.253   0.898  0.00  0.00     0.189 HD
BRANCH  19  21
ATOM     21  N   UNL d   1      27.191 -17.157   1.011  0.00  0.00    -0.266 N 
ATOM     22  C   UNL d   1      28.136 -16.324   0.194  0.00  0.00     0.264 C 
ATOM     23  O   UNL d   1      28.054 -16.471  -1.063  0.00  0.00    -0.270 OA
ATOM     24  H   UNL d   1      27.031 -17.041   2.014  0.00  0.00     0.190 HD
BRANCH  22  25
ATOM     25  C   UNL d   1      29.295 -15.182   0.994  0.00  0.00     0.379 C 
BRANCH  25  26
ATOM     26  N   UNL d   1      29.221 -14.348   2.557  0.00  0.00     0.129 NA
ATOM     27  C   UNL d   1      27.849 -14.435   2.850  0.00  0.00     0.286 C 
ATOM     28  C   UNL d   1      27.875 -13.130   3.241  0.00  0.00     0.021 C 
ATOM     29  C   UNL d   1      28.482 -13.367   4.457  0.00  0.00    -0.014 A 
ATOM     30  C   UNL d   1      27.928 -12.764   5.682  0.00  0.00     0.010 A 
ATOM     31  C   UNL d   1      29.679 -14.465   4.161  0.00  0.00     0.249 A 
ATOM     32  C   UNL d   1      28.279 -12.953   6.982  0.00  0.00     0.000 A 
ATOM     33  C   UNL d   1      29.283 -13.850   7.042  0.00  0.00    -0.001 A 
ATOM     34  C   UNL d   1      29.890 -14.449   5.756  0.00  0.00     0.023 A 
ENDBRANCH  25  26
ENDBRANCH  22  25
ENDBRANCH  19  21
ENDBRANCH   1  19
TORSDOF 9
ENDMDL
MODEL 3
REMARK VINA RESULT:    -7.977      3.466      9.377
REMARK INTER + INTRA:         -11.619
REMARK INTER:                 -10.662
REMARK INTRA:                  -0.958
REMARK CONF_INDEPENDENT:        2.685
REMARK UNBOUND:                -0.958
REMARK  9 active torsions:
REMARK  status: ('A' for Active; 'I' for Inactive)
REMARK    1  A    between atoms: O_2  and  C_3 
REMARK    2  A    between atoms: C_5  and  C_6 
REMARK       I    between atoms: C_6  and  N_8 
REMARK    3  A    between atoms: N_8  and  C_9 
REMARK    4  A    between atoms: C_9  and  N_11 
REMARK    5  A    between atoms: N_11  and  N_12 
REMARK       I    between atoms: N_12  and  C_13 
REMARK    6  A    between atoms: C_13  and  C_15 
REMARK    7  A    between atoms: C_15  and  N_16 
REMARK    8  A    between atoms: C_26  and  O_27 
REMARK    9  A    between atoms: C_29  and  O_30 
ROOT
ATOM      1  C   UNL d   1      26.458 -11.952  -4.831  0.00  0.00     0.193 C 
ATOM      2  S   UNL d   1      25.845 -10.404  -4.597  0.00  0.00    -0.039 SA
ENDROOT
BRANCH   1   3
ATOM      3  N   UNL d   1      26.431 -12.986  -3.800  0.00  0.00    -0.298 N 
ATOM      4  C   UNL d   1      25.515 -14.120  -3.685  0.00  0.00     0.258 C 
ATOM      5  O   UNL d   1      24.619 -14.339  -4.498  0.00  0.00    -0.267 OA
ATOM      6  H   UNL d   1      27.137 -12.944  -3.082  0.00  0.00     0.171 HD
BRANCH   4   7
ATOM      7  C   UNL d   1      25.604 -15.177  -2.582  0.00  0.00     0.037 A 
ATOM      8  C   UNL d   1      24.393 -15.665  -1.985  0.00  0.00     0.057 A 
ATOM      9  C   UNL d   1      24.326 -16.785  -1.106  0.00  0.00     0.105 A 
ATOM     10  C   UNL d   1      25.542 -17.415  -0.790  0.00  0.00     0.135 A 
ATOM     11  C   UNL d   1      26.765 -16.896  -1.323  0.00  0.00     0.105 A 
ATOM     12  C   UNL d   1      26.788 -15.771  -2.177  0.00  0.00     0.057 A 
BRANCH   9  13
ATOM     13  O   UNL d   1      23.021 -17.183  -0.875  0.00  0.00    -0.353 OA
ATOM     14  C   UNL d   1      22.658 -18.512  -0.503  0.00  0.00     0.210 C 
ENDBRANCH   9  13
BRANCH  10  15
ATOM     15  O   UNL d   1      25.770 -18.542  -0.068  0.00  0.00    -0.351 OA
ATOM     16  C   UNL d   1      26.656 -18.575   0.993  0.00  0.00     0.210 C 
ENDBRANCH  10  15
BRANCH  11  17
ATOM     17  O   UNL d   1      28.033 -17.431  -1.123  0.00  0.00    -0.353 OA
ATOM     18  C   UNL d   1      29.031 -16.617  -0.498  0.00  0.00     0.210 C 
ENDBRANCH  11  17
ENDBRANCH   4   7
ENDBRANCH   1   3
BRANCH   1  19
ATOM     19  N   UNL d   1      27.058 -12.286  -6.111  0.00  0.00    -0.273 N 
ATOM     20  H   UNL d   1      26.741 -11.938  -7.014  0.00  0.00     0.189 HD
BRANCH  19  21
ATOM     21  N   UNL d   1      28.345 -13.352  -6.199  0.00  0.00    -0.266 N 
ATOM     22  C   UNL d   1      28.307 -14.833  -5.954  0.00  0.00     0.264 C 
ATOM     23  O   UNL d   1      27.156 -15.331  -5.769  0.00  0.00    -0.270 OA
ATOM     24  H   UNL d   1      29.169 -12.835  -6.513  0.00  0.00     0.190 HD
BRANCH  22  25
ATOM     25  C   UNL d   1      29.833 -15.811  -5.946  0.00  0.00     0.379 C 
BRANCH  25  26
ATOM     26  N   UNL d   1      30.105 -17.552  -6.147  0.00  0.00     0.129 NA
ATOM     27  C   UNL d   1      31.355 -17.562  -6.790  0.00  0.00     0.286 C 
ATOM     28  C   UNL d   1      30.881 -18.513  -7.643  0.00  0.00     0.021 C 
ATOM     29  C   UNL d   1      30.969 -19.556  -6.744  0.00  0.00    -0.014 A 
ATOM     30  C   UNL d   1      31.602 -20.823  -7.152  0.00  0.00     0.010 A 
ATOM     31  C   UNL d   1      30.405 -18.967  -5.308  0.00  0.00     0.249 A 
ATOM     32  C   UNL d   1      31.905 -21.923  -6.413  0.00  0.00     0.000 A 
ATOM     33  C   UNL d   1      31.539 -21.710  -5.133  0.00  0.00    -0.001 A 
ATOM     34  C   UNL d   1      30.839 -20.399  -4.716  0.00  0.00     0.023 A 
ENDBRANCH  25  26
ENDBRANCH  22  25
ENDBRANCH  19  21
ENDBRANCH   1  19
TORSDOF 9
ENDMDL
MODEL 4
REMARK VINA RESULT:    -7.552      5.367      8.055
REMARK INTER + INTRA:         -11.496
REMARK INTER:                 -10.237
REMARK INTRA:                  -1.259
REMARK CONF_INDEPENDENT:        2.685
REMARK UNBOUND:                -1.259
REMARK  9 active torsions:
REMARK  status: ('A' for Active; 'I' for Inactive)
REMARK    1  A    between atoms: O_2  and  C_3 
REMARK    2  A    between atoms: C_5  and  C_6 
REMARK       I    between atoms: C_6  and  N_8 
REMARK    3  A    between atoms: N_8  and  C_9 
REMARK    4  A    between atoms: C_9  and  N_11 
REMARK    5  A    between atoms: N_11  and  N_12 
REMARK       I    between atoms: N_12  and  C_13 
REMARK    6  A    between atoms: C_13  and  C_15 
REMARK    7  A    between atoms: C_15  and  N_16 
REMARK    8  A    between atoms: C_26  and  O_27 
REMARK    9  A    between atoms: C_29  and  O_30 
ROOT
ATOM      1  C   UNL d   1      25.322 -17.029  -1.047  0.00  0.00     0.193 C 
ATOM      2  S   UNL d   1      23.659 -17.263  -0.964  0.00  0.00    -0.039 SA
ENDROOT
BRANCH   1   3
ATOM      3  N   UNL d   1      25.962 -16.194  -2.061  0.00  0.00    -0.298 N 
ATOM      4  C   UNL d   1      25.354 -15.144  -2.876  0.00  0.00     0.258 C 
ATOM      5  O   UNL d   1      24.170 -14.828  -2.785  0.00  0.00    -0.267 OA
ATOM      6  H   UNL d   1      26.948 -16.328  -2.216  0.00  0.00     0.171 HD
BRANCH   4   7
ATOM      7  C   UNL d   1      26.132 -14.294  -3.884  0.00  0.00     0.037 A 
ATOM      8  C   UNL d   1      27.113 -14.927  -4.719  0.00  0.00     0.057 A 
ATOM      9  C   UNL d   1      27.750 -14.298  -5.828  0.00  0.00     0.105 A 
ATOM     10  C   UNL d   1      27.405 -12.958  -6.080  0.00  0.00     0.135 A 
ATOM     11  C   UNL d   1      26.480 -12.293  -5.213  0.00  0.00     0.105 A 
ATOM     12  C   UNL d   1      25.885 -12.950  -4.113  0.00  0.00     0.057 A 
BRANCH   9  13
ATOM     13  O   UNL d   1      28.460 -15.202  -6.598  0.00  0.00    -0.353 OA
ATOM     14  C   UNL d   1      29.645 -15.857  -6.148  0.00  0.00     0.210 C 
ENDBRANCH   9  13
BRANCH  10  15
ATOM     15  O   UNL d   1      27.773 -12.149  -7.106  0.00  0.00    -0.351 OA
ATOM     16  C   UNL d   1      28.641 -11.086  -6.935  0.00  0.00     0.210 C 
ENDBRANCH  10  15
BRANCH  11  17
ATOM     17  O   UNL d   1      26.024 -10.988  -5.356  0.00  0.00    -0.353 OA
ATOM     18  C   UNL d   1      25.617 -10.271  -4.185  0.00  0.00     0.210 C 
ENDBRANCH  11  17
ENDBRANCH   4   7
ENDBRANCH   1   3
BRANCH   1  19
ATOM     19  N   UNL d   1      26.176 -17.695  -0.079  0.00  0.00    -0.273 N 
ATOM     20  H   UNL d   1      26.241 -18.703   0.048  0.00  0.00     0.189 HD
BRANCH  19  21
ATOM     21  N   UNL d   1      27.124 -16.808   0.977  0.00  0.00    -0.266 N 
ATOM     22  C   UNL d   1      27.913 -15.570   0.658  0.00  0.00     0.264 C 
ATOM     23  O   UNL d   1      27.748 -15.097  -0.507  0.00  0.00    -0.270 OA
ATOM     24  H   UNL d   1      27.032 -17.215   1.910  0.00  0.00     0.190 HD
BRANCH  22  25
ATOM     25  C   UNL d   1      29.010 -14.824   1.894  0.00  0.00     0.379 C 
BRANCH  25  26
ATOM     26  N   UNL d   1      28.812 -14.592   3.641  0.00  0.00     0.129 NA
ATOM     27  C   UNL d   1      30.140 -14.367   4.040  0.00  0.00     0.286 C 
ATOM     28  C   UNL d   1      29.938 -15.199   5.100  0.00  0.00     0.021 C 
ATOM     29  C   UNL d   1      29.215 -14.291   5.847  0.00  0.00    -0.014 A 
ATOM     30  C   UNL d   1      29.555 -14.074   7.264  0.00  0.00     0.010 A 
ATOM     31  C   UNL d   1      28.178 -13.558   4.792  0.00  0.00     0.249 A 
ATOM     32  C   UNL d   1      29.072 -13.160   8.146  0.00  0.00     0.000 A 
ATOM     33  C   UNL d   1      28.162 -12.383   7.523  0.00  0.00    -0.001 A 
ATOM     34  C   UNL d   1      27.777 -12.639   6.051  0.00  0.00     0.023 A 
ENDBRANCH  25  26
ENDBRANCH  22  25
ENDBRANCH  19  21
ENDBRANCH   1  19
TORSDOF 9
ENDMDL
MODEL 5
REMARK VINA RESULT:    -7.429      3.432      9.552
REMARK INTER + INTRA:         -11.571
REMARK INTER:                 -10.114
REMARK INTRA:                  -1.458
REMARK CONF_INDEPENDENT:        2.685
REMARK UNBOUND:                -1.458
REMARK  9 active torsions:
REMARK  status: ('A' for Active; 'I' for Inactive)
REMARK    1  A    between atoms: O_2  and  C_3 
REMARK    2  A    between atoms: C_5  and  C_6 
REMARK       I    between atoms: C_6  and  N_8 
REMARK    3  A    between atoms: N_8  and  C_9 
REMARK    4  A    between atoms: C_9  and  N_11 
REMARK    5  A    between atoms: N_11  and  N_12 
REMARK       I    between atoms: N_12  and  C_13 
REMARK    6  A    between atoms: C_13  and  C_15 
REMARK    7  A    between atoms: C_15  and  N_16 
REMARK    8  A    between atoms: C_26  and  O_27 
REMARK    9  A    between atoms: C_29  and  O_30 
ROOT
ATOM      1  C   UNL d   1      26.624 -12.388  -5.244  0.00  0.00     0.193 C 
ATOM      2  S   UNL d   1      25.931 -10.875  -4.998  0.00  0.00    -0.039 SA
ENDROOT
BRANCH   1   3
ATOM      3  N   UNL d   1      26.536 -13.475  -4.272  0.00  0.00    -0.298 N 
ATOM      4  C   UNL d   1      25.331 -14.082  -3.707  0.00  0.00     0.258 C 
ATOM      5  O   UNL d   1      24.196 -13.725  -4.015  0.00  0.00    -0.267 OA
ATOM      6  H   UNL d   1      27.400 -13.885  -3.956  0.00  0.00     0.171 HD
BRANCH   4   7
ATOM      7  C   UNL d   1      25.353 -15.254  -2.722  0.00  0.00     0.037 A 
ATOM      8  C   UNL d   1      26.604 -15.891  -2.424  0.00  0.00     0.057 A 
ATOM      9  C   UNL d   1      26.792 -16.843  -1.381  0.00  0.00     0.105 A 
ATOM     10  C   UNL d   1      25.654 -17.193  -0.631  0.00  0.00     0.135 A 
ATOM     11  C   UNL d   1      24.386 -16.618  -0.964  0.00  0.00     0.105 A 
ATOM     12  C   UNL d   1      24.242 -15.690  -2.018  0.00  0.00     0.057 A 
BRANCH   9  13
ATOM     13  O   UNL d   1      28.131 -17.109  -1.158  0.00  0.00    -0.353 OA
ATOM     14  C   UNL d   1      29.093 -16.102  -0.850  0.00  0.00     0.210 C 
ENDBRANCH   9  13
BRANCH  10  15
ATOM     15  O   UNL d   1      25.553 -17.988   0.465  0.00  0.00    -0.351 OA
ATOM     16  C   UNL d   1      26.655 -18.573   1.059  0.00  0.00     0.210 C 
ENDBRANCH  10  15
BRANCH  11  17
ATOM     17  O   UNL d   1      23.189 -16.845  -0.295  0.00  0.00    -0.353 OA
ATOM     18  C   UNL d   1      22.580 -18.136  -0.397  0.00  0.00     0.210 C 
ENDBRANCH  11  17
ENDBRANCH   4   7
ENDBRANCH   1   3
BRANCH   1  19
ATOM     19  N   UNL d   1      27.359 -12.635  -6.472  0.00  0.00    -0.273 N 
ATOM     20  H   UNL d   1      27.169 -12.187  -7.367  0.00  0.00     0.189 HD
BRANCH  19  21
ATOM     21  N   UNL d   1      28.597 -13.759  -6.516  0.00  0.00    -0.266 N 
ATOM     22  C   UNL d   1      28.585 -15.136  -5.918  0.00  0.00     0.264 C 
ATOM     23  O   UNL d   1      27.480 -15.514  -5.427  0.00  0.00    -0.270 OA
ATOM     24  H   UNL d   1      29.359 -13.376  -7.079  0.00  0.00     0.190 HD
BRANCH  22  25
ATOM     25  C   UNL d   1      30.078 -16.166  -5.930  0.00  0.00     0.379 C 
BRANCH  25  26
ATOM     26  N   UNL d   1      30.286 -17.919  -6.093  0.00  0.00     0.129 NA
ATOM     27  C   UNL d   1      31.407 -17.986  -6.937  0.00  0.00     0.286 C 
ATOM     28  C   UNL d   1      30.781 -18.961  -7.653  0.00  0.00     0.021 C 
ATOM     29  C   UNL d   1      31.005 -19.966  -6.735  0.00  0.00    -0.014 A 
ATOM     30  C   UNL d   1      31.540 -21.263  -7.185  0.00  0.00     0.010 A 
ATOM     31  C   UNL d   1      30.702 -19.304  -5.253  0.00  0.00     0.249 A 
ATOM     32  C   UNL d   1      31.948 -22.337  -6.458  0.00  0.00     0.000 A 
ATOM     33  C   UNL d   1      31.808 -22.061  -5.146  0.00  0.00    -0.001 A 
ATOM     34  C   UNL d   1      31.209 -20.718  -4.678  0.00  0.00     0.023 A 
ENDBRANCH  25  26
ENDBRANCH  22  25
ENDBRANCH  19  21
ENDBRANCH   1  19
TORSDOF 9
ENDMDL
MODEL 6
REMARK VINA RESULT:    -7.336      5.151      8.633
REMARK INTER + INTRA:         -11.392
REMARK INTER:                 -10.021
REMARK INTRA:                  -1.372
REMARK CONF_INDEPENDENT:        2.685
REMARK UNBOUND:                -1.372
REMARK  9 active torsions:
REMARK  status: ('A' for Active; 'I' for Inactive)
REMARK    1  A    between atoms: O_2  and  C_3 
REMARK    2  A    between atoms: C_5  and  C_6 
REMARK       I    between atoms: C_6  and  N_8 
REMARK    3  A    between atoms: N_8  and  C_9 
REMARK    4  A    between atoms: C_9  and  N_11 
REMARK    5  A    between atoms: N_11  and  N_12 
REMARK       I    between atoms: N_12  and  C_13 
REMARK    6  A    between atoms: C_13  and  C_15 
REMARK    7  A    between atoms: C_15  and  N_16 
REMARK    8  A    between atoms: C_26  and  O_27 
REMARK    9  A    between atoms: C_29  and  O_30 
ROOT
ATOM      1  C   UNL d   1      28.273 -14.972  -1.553  0.00  0.00     0.193 C 
ATOM      2  S   UNL d   1      29.632 -15.250  -2.503  0.00  0.00    -0.039 SA
ENDROOT
BRANCH   1   3
ATOM      3  N   UNL d   1      28.326 -14.280  -0.267  0.00  0.00    -0.298 N 
ATOM      4  C   UNL d   1      27.790 -14.726   1.018  0.00  0.00     0.258 C 
ATOM      5  O   UNL d   1      27.209 -15.799   1.163  0.00  0.00    -0.267 OA
ATOM      6  H   UNL d   1      28.806 -13.394  -0.237  0.00  0.00     0.171 HD
BRANCH   4   7
ATOM      7  C   UNL d   1      27.940 -13.937   2.322  0.00  0.00     0.037 A 
ATOM      8  C   UNL d   1      27.545 -12.557   2.350  0.00  0.00     0.057 A 
ATOM      9  C   UNL d   1      27.439 -11.777   3.538  0.00  0.00     0.105 A 
ATOM     10  C   UNL d   1      27.785 -12.411   4.745  0.00  0.00     0.135 A 
ATOM     11  C   UNL d   1      28.248 -13.765   4.722  0.00  0.00     0.105 A 
ATOM     12  C   UNL d   1      28.354 -14.497   3.519  0.00  0.00     0.057 A 
BRANCH   9  13
ATOM     13  O   UNL d   1      26.810 -10.567   3.308  0.00  0.00    -0.353 OA
ATOM     14  C   UNL d   1      26.715  -9.961   2.020  0.00  0.00     0.210 C 
ENDBRANCH   9  13
BRANCH  10  15
ATOM     15  O   UNL d   1      27.692 -11.953   6.019  0.00  0.00    -0.351 OA
ATOM     16  C   UNL d   1      28.799 -11.555   6.745  0.00  0.00     0.210 C 
ENDBRANCH  10  15
BRANCH  11  17
ATOM     17  O   UNL d   1      28.592 -14.527   5.833  0.00  0.00    -0.353 OA
ATOM     18  C   UNL d   1      29.931 -14.446   6.332  0.00  0.00     0.210 C 
ENDBRANCH  11  17
ENDBRANCH   4   7
ENDBRANCH   1   3
BRANCH   1  19
ATOM     19  N   UNL d   1      26.981 -15.450  -2.013  0.00  0.00    -0.273 N 
ATOM     20  H   UNL d   1      26.526 -15.162  -2.877  0.00  0.00     0.189 HD
BRANCH  19  21
ATOM     21  N   UNL d   1      26.088 -16.522  -1.090  0.00  0.00    -0.266 N 
ATOM     22  C   UNL d   1      24.598 -16.705  -1.112  0.00  0.00     0.264 C 
ATOM     23  O   UNL d   1      23.975 -16.053  -2.003  0.00  0.00    -0.270 OA
ATOM     24  H   UNL d   1      26.736 -17.089  -0.539  0.00  0.00     0.190 HD
BRANCH  22  25
ATOM     25  C   UNL d   1      23.782 -17.811   0.072  0.00  0.00     0.379 C 
BRANCH  25  26
ATOM     26  N   UNL d   1      22.098 -18.356   0.190  0.00  0.00     0.129 NA
ATOM     27  C   UNL d   1      22.037 -19.291  -0.857  0.00  0.00     0.286 C 
ATOM     28  C   UNL d   1      20.834 -18.767  -1.222  0.00  0.00     0.021 C 
ATOM     29  C   UNL d   1      20.114 -19.366  -0.209  0.00  0.00    -0.014 A 
ATOM     30  C   UNL d   1      18.860 -20.075  -0.522  0.00  0.00     0.010 A 
ATOM     31  C   UNL d   1      21.030 -19.206   1.155  0.00  0.00     0.249 A 
ATOM     32  C   UNL d   1      18.063 -20.830   0.280  0.00  0.00     0.000 A 
ATOM     33  C   UNL d   1      18.598 -20.878   1.516  0.00  0.00    -0.001 A 
ATOM     34  C   UNL d   1      19.889 -20.101   1.852  0.00  0.00     0.023 A 
ENDBRANCH  25  26
ENDBRANCH  22  25
ENDBRANCH  19  21
ENDBRANCH   1  19
TORSDOF 9
ENDMDL
MODEL 7
REMARK VINA RESULT:    -7.283      5.875      8.609
REMARK INTER + INTRA:         -11.535
REMARK INTER:                  -9.967
REMARK INTRA:                  -1.568
REMARK CONF_INDEPENDENT:        2.685
REMARK UNBOUND:                -1.568
REMARK  9 active torsions:
REMARK  status: ('A' for Active; 'I' for Inactive)
REMARK    1  A    between atoms: O_2  and  C_3 
REMARK    2  A    between atoms: C_5  and  C_6 
REMARK       I    between atoms: C_6  and  N_8 
REMARK    3  A    between atoms: N_8  and  C_9 
REMARK    4  A    between atoms: C_9  and  N_11 
REMARK    5  A    between atoms: N_11  and  N_12 
REMARK       I    between atoms: N_12  and  C_13 
REMARK    6  A    between atoms: C_13  and  C_15 
REMARK    7  A    between atoms: C_15  and  N_16 
REMARK    8  A    between atoms: C_26  and  O_27 
REMARK    9  A    between atoms: C_29  and  O_30 
ROOT
ATOM      1  C   UNL d   1      32.233 -15.842  -0.968  0.00  0.00     0.193 C 
ATOM      2  S   UNL d   1      33.663 -16.169  -1.789  0.00  0.00    -0.039 SA
ENDROOT
BRANCH   1   3
ATOM      3  N   UNL d   1      30.956 -15.624  -1.643  0.00  0.00    -0.298 N 
ATOM      4  C   UNL d   1      30.045 -16.628  -2.191  0.00  0.00     0.258 C 
ATOM      5  O   UNL d   1      30.268 -17.835  -2.132  0.00  0.00    -0.267 OA
ATOM      6  H   UNL d   1      30.634 -14.673  -1.731  0.00  0.00     0.171 HD
BRANCH   4   7
ATOM      7  C   UNL d   1      28.701 -16.291  -2.842  0.00  0.00     0.037 A 
ATOM      8  C   UNL d   1      27.524 -16.236  -2.023  0.00  0.00     0.057 A 
ATOM      9  C   UNL d   1      26.263 -15.736  -2.461  0.00  0.00     0.105 A 
ATOM     10  C   UNL d   1      26.182 -15.306  -3.798  0.00  0.00     0.135 A 
ATOM     11  C   UNL d   1      27.330 -15.420  -4.645  0.00  0.00     0.105 A 
ATOM     12  C   UNL d   1      28.557 -15.939  -4.175  0.00  0.00     0.057 A 
BRANCH   9  13
ATOM     13  O   UNL d   1      25.378 -15.573  -1.410  0.00  0.00    -0.353 OA
ATOM     14  C   UNL d   1      24.531 -16.614  -0.926  0.00  0.00     0.210 C 
ENDBRANCH   9  13
BRANCH  10  15
ATOM     15  O   UNL d   1      25.156 -14.706  -4.452  0.00  0.00    -0.351 OA
ATOM     16  C   UNL d   1      24.809 -13.386  -4.231  0.00  0.00     0.210 C 
ENDBRANCH  10  15
BRANCH  11  17
ATOM     17  O   UNL d   1      27.407 -15.010  -5.971  0.00  0.00    -0.353 OA
ATOM     18  C   UNL d   1      28.695 -14.722  -6.527  0.00  0.00     0.210 C 
ENDBRANCH  11  17
ENDBRANCH   4   7
ENDBRANCH   1   3
BRANCH   1  19
ATOM     19  N   UNL d   1      32.257 -15.754   0.482  0.00  0.00    -0.273 N 
ATOM     20  H   UNL d   1      33.097 -15.807   1.056  0.00  0.00     0.189 HD
BRANCH  19  21
ATOM     21  N   UNL d   1      30.837 -15.600   1.353  0.00  0.00    -0.266 N 
ATOM     22  C   UNL d   1      29.739 -14.604   1.117  0.00  0.00     0.264 C 
ATOM     23  O   UNL d   1      29.862 -13.883   0.081  0.00  0.00    -0.270 OA
ATOM     24  H   UNL d   1      30.805 -16.347   2.049  0.00  0.00     0.190 HD
BRANCH  22  25
ATOM     25  C   UNL d   1      28.335 -14.482   2.258  0.00  0.00     0.379 C 
BRANCH  25  26
ATOM     26  N   UNL d   1      28.277 -14.267   4.018  0.00  0.00     0.129 NA
ATOM     27  C   UNL d   1      29.635 -14.396   4.356  0.00  0.00     0.286 C 
ATOM     28  C   UNL d   1      29.274 -15.186   5.405  0.00  0.00     0.021 C 
ATOM     29  C   UNL d   1      28.836 -14.152   6.207  0.00  0.00    -0.014 A 
ATOM     30  C   UNL d   1      29.280 -14.075   7.610  0.00  0.00     0.010 A 
ATOM     31  C   UNL d   1      27.973 -13.147   5.222  0.00  0.00     0.249 A 
ATOM     32  C   UNL d   1      29.080 -13.099   8.535  0.00  0.00     0.000 A 
ATOM     33  C   UNL d   1      28.370 -12.099   7.975  0.00  0.00    -0.001 A 
ATOM     34  C   UNL d   1      27.871 -12.200   6.518  0.00  0.00     0.023 A 
ENDBRANCH  25  26
ENDBRANCH  22  25
ENDBRANCH  19  21
ENDBRANCH   1  19
TORSDOF 9
ENDMDL
MODEL 8
REMARK VINA RESULT:    -7.277      7.466     10.565
REMARK INTER + INTRA:         -11.351
REMARK INTER:                  -9.961
REMARK INTRA:                  -1.390
REMARK CONF_INDEPENDENT:        2.685
REMARK UNBOUND:                -1.390
REMARK  9 active torsions:
REMARK  status: ('A' for Active; 'I' for Inactive)
REMARK    1  A    between atoms: O_2  and  C_3 
REMARK    2  A    between atoms: C_5  and  C_6 
REMARK       I    between atoms: C_6  and  N_8 
REMARK    3  A    between atoms: N_8  and  C_9 
REMARK    4  A    between atoms: C_9  and  N_11 
REMARK    5  A    between atoms: N_11  and  N_12 
REMARK       I    between atoms: N_12  and  C_13 
REMARK    6  A    between atoms: C_13  and  C_15 
REMARK    7  A    between atoms: C_15  and  N_16 
REMARK    8  A    between atoms: C_26  and  O_27 
REMARK    9  A    between atoms: C_29  and  O_30 
ROOT
ATOM      1  C   UNL d   1      31.176 -14.404   0.981  0.00  0.00     0.193 C 
ATOM      2  S   UNL d   1      32.466 -14.649  -0.068  0.00  0.00    -0.039 SA
ENDROOT
BRANCH   1   3
ATOM      3  N   UNL d   1      29.826 -14.895   0.716  0.00  0.00    -0.298 N 
ATOM      4  C   UNL d   1      28.970 -14.601  -0.432  0.00  0.00     0.258 C 
ATOM      5  O   UNL d   1      29.320 -13.870  -1.356  0.00  0.00    -0.267 OA
ATOM      6  H   UNL d   1      29.426 -15.535   1.384  0.00  0.00     0.171 HD
BRANCH   4   7
ATOM      7  C   UNL d   1      27.580 -15.210  -0.634  0.00  0.00     0.037 A 
ATOM      8  C   UNL d   1      26.787 -14.780  -1.750  0.00  0.00     0.057 A 
ATOM      9  C   UNL d   1      25.578 -15.410  -2.166  0.00  0.00     0.105 A 
ATOM     10  C   UNL d   1      25.134 -16.499  -1.396  0.00  0.00     0.135 A 
ATOM     11  C   UNL d   1      25.878 -16.894  -0.239  0.00  0.00     0.105 A 
ATOM     12  C   UNL d   1      27.064 -16.230   0.148  0.00  0.00     0.057 A 
BRANCH   9  13
ATOM     13  O   UNL d   1      25.153 -14.950  -3.400  0.00  0.00    -0.353 OA
ATOM     14  C   UNL d   1      25.440 -13.644  -3.895  0.00  0.00     0.210 C 
ENDBRANCH   9  13
BRANCH  10  15
ATOM     15  O   UNL d   1      24.086 -17.336  -1.606  0.00  0.00    -0.351 OA
ATOM     16  C   UNL d   1      23.086 -17.519  -0.669  0.00  0.00     0.210 C 
ENDBRANCH  10  15
BRANCH  11  17
ATOM     17  O   UNL d   1      25.580 -17.966   0.595  0.00  0.00    -0.353 OA
ATOM     18  C   UNL d   1      26.642 -18.575   1.336  0.00  0.00     0.210 C 
ENDBRANCH  11  17
ENDBRANCH   4   7
ENDBRANCH   1   3
BRANCH   1  19
ATOM     19  N   UNL d   1      31.397 -13.657   2.207  0.00  0.00    -0.273 N 
ATOM     20  H   UNL d   1      31.953 -12.807   2.281  0.00  0.00     0.189 HD
BRANCH  19  21
ATOM     21  N   UNL d   1      30.762 -14.191   3.660  0.00  0.00    -0.266 N 
ATOM     22  C   UNL d   1      29.316 -14.451   3.971  0.00  0.00     0.264 C 
ATOM     23  O   UNL d   1      28.517 -14.356   2.992  0.00  0.00    -0.270 OA
ATOM     24  H   UNL d   1      31.538 -14.377   4.300  0.00  0.00     0.190 HD
BRANCH  22  25
ATOM     25  C   UNL d   1      28.792 -14.883   5.652  0.00  0.00     0.379 C 
BRANCH  25  26
ATOM     26  N   UNL d   1      29.290 -14.246   7.231  0.00  0.00     0.129 NA
ATOM     27  C   UNL d   1      29.138 -12.864   7.029  0.00  0.00     0.286 C 
ATOM     28  C   UNL d   1      30.336 -12.666   7.647  0.00  0.00     0.021 C 
ATOM     29  C   UNL d   1      29.861 -12.863   8.928  0.00  0.00    -0.014 A 
ATOM     30  C   UNL d   1      30.200 -11.900   9.990  0.00  0.00     0.010 A 
ATOM     31  C   UNL d   1      28.854 -14.168   8.843  0.00  0.00     0.249 A 
ATOM     32  C   UNL d   1      29.753 -11.823  11.272  0.00  0.00     0.000 A 
ATOM     33  C   UNL d   1      28.868 -12.816  11.491  0.00  0.00    -0.001 A 
ATOM     34  C   UNL d   1      28.546 -13.849  10.389  0.00  0.00     0.023 A 
ENDBRANCH  25  26
ENDBRANCH  22  25
ENDBRANCH  19  21
ENDBRANCH   1  19
TORSDOF 9
ENDMDL
MODEL 9
REMARK VINA RESULT:    -6.859      3.658      9.448
REMARK INTER + INTRA:         -11.417
REMARK INTER:                  -9.544
REMARK INTRA:                  -1.873
REMARK CONF_INDEPENDENT:        2.685
REMARK UNBOUND:                -1.873
REMARK  9 active torsions:
REMARK  status: ('A' for Active; 'I' for Inactive)
REMARK    1  A    between atoms: O_2  and  C_3 
REMARK    2  A    between atoms: C_5  and  C_6 
REMARK       I    between atoms: C_6  and  N_8 
REMARK    3  A    between atoms: N_8  and  C_9 
REMARK    4  A    between atoms: C_9  and  N_11 
REMARK    5  A    between atoms: N_11  and  N_12 
REMARK       I    between atoms: N_12  and  C_13 
REMARK    6  A    between atoms: C_13  and  C_15 
REMARK    7  A    between atoms: C_15  and  N_16 
REMARK    8  A    between atoms: C_26  and  O_27 
REMARK    9  A    between atoms: C_29  and  O_30 
ROOT
ATOM      1  C   UNL d   1      25.735 -11.573  -3.857  0.00  0.00     0.193 C 
ATOM      2  S   UNL d   1      25.529 -10.032  -3.218  0.00  0.00    -0.039 SA
ENDROOT
BRANCH   1   3
ATOM      3  N   UNL d   1      25.764 -12.781  -3.035  0.00  0.00    -0.298 N 
ATOM      4  C   UNL d   1      25.457 -14.152  -3.440  0.00  0.00     0.258 C 
ATOM      5  O   UNL d   1      25.128 -14.454  -4.585  0.00  0.00    -0.267 OA
ATOM      6  H   UNL d   1      26.051 -12.682  -2.075  0.00  0.00     0.171 HD
BRANCH   4   7
ATOM      7  C   UNL d   1      25.564 -15.359  -2.503  0.00  0.00     0.037 A 
ATOM      8  C   UNL d   1      26.862 -15.888  -2.194  0.00  0.00     0.057 A 
ATOM      9  C   UNL d   1      27.113 -16.863  -1.185  0.00  0.00     0.105 A 
ATOM     10  C   UNL d   1      25.995 -17.350  -0.484  0.00  0.00     0.135 A 
ATOM     11  C   UNL d   1      24.687 -16.883  -0.831  0.00  0.00     0.105 A 
ATOM     12  C   UNL d   1      24.482 -15.927  -1.851  0.00  0.00     0.057 A 
BRANCH   9  13
ATOM     13  O   UNL d   1      28.465 -17.012  -0.933  0.00  0.00    -0.353 OA
ATOM     14  C   UNL d   1      29.284 -15.976  -0.394  0.00  0.00     0.210 C 
ENDBRANCH   9  13
BRANCH  10  15
ATOM     15  O   UNL d   1      25.941 -18.197   0.575  0.00  0.00    -0.351 OA
ATOM     16  C   UNL d   1      27.030 -18.948   0.978  0.00  0.00     0.210 C 
ENDBRANCH  10  15
BRANCH  11  17
ATOM     17  O   UNL d   1      23.500 -17.249  -0.208  0.00  0.00    -0.353 OA
ATOM     18  C   UNL d   1      22.712 -18.293  -0.791  0.00  0.00     0.210 C 
ENDBRANCH  11  17
ENDBRANCH   4   7
ENDBRANCH   1   3
BRANCH   1  19
ATOM     19  N   UNL d   1      25.906 -11.725  -5.291  0.00  0.00    -0.273 N 
ATOM     20  H   UNL d   1      25.339 -11.262  -5.999  0.00  0.00     0.189 HD
BRANCH  19  21
ATOM     21  N   UNL d   1      27.072 -12.753  -5.909  0.00  0.00    -0.266 N 
ATOM     22  C   UNL d   1      28.170 -12.398  -6.869  0.00  0.00     0.264 C 
ATOM     23  O   UNL d   1      28.281 -11.166  -7.148  0.00  0.00    -0.270 OA
ATOM     24  H   UNL d   1      26.955 -13.670  -5.473  0.00  0.00     0.190 HD
BRANCH  22  25
ATOM     25  C   UNL d   1      29.256 -13.679  -7.553  0.00  0.00     0.379 C 
BRANCH  25  26
ATOM     26  N   UNL d   1      29.943 -15.140  -6.819  0.00  0.00     0.129 NA
ATOM     27  C   UNL d   1      28.900 -15.535  -5.964  0.00  0.00     0.286 C 
ATOM     28  C   UNL d   1      29.822 -15.774  -4.990  0.00  0.00     0.021 C 
ATOM     29  C   UNL d   1      30.274 -16.964  -5.522  0.00  0.00    -0.014 A 
ATOM     30  C   UNL d   1      30.410 -18.149  -4.656  0.00  0.00     0.010 A 
ATOM     31  C   UNL d   1      30.412 -16.711  -7.148  0.00  0.00     0.249 A 
ATOM     32  C   UNL d   1      30.713 -19.434  -4.980  0.00  0.00     0.000 A 
ATOM     33  C   UNL d   1      30.883 -19.525  -6.314  0.00  0.00    -0.001 A 
ATOM     34  C   UNL d   1      30.781 -18.276  -7.214  0.00  0.00     0.023 A 
ENDBRANCH  25  26
ENDBRANCH  22  25
ENDBRANCH  19  21
ENDBRANCH   1  19
TORSDOF 9
ENDMDL
