MODEL 1
REMARK VINA RESULT:    -9.219      0.000      0.000
REMARK INTER + INTRA:         -15.651
REMARK INTER:                 -12.799
REMARK INTRA:                  -2.852
REMARK CONF_INDEPENDENT:        3.580
REMARK UNBOUND:                -2.852
REMARK  12 active torsions:
REMARK  status: ('A' for Active; 'I' for Inactive)
REMARK       I    between atoms: N_1  and  C_2 
REMARK       I    between atoms: C_2  and  N_4 
REMARK    1  A    between atoms: N_4  and  N_5 
REMARK    2  A    between atoms: C_7  and  C_6 
REMARK    3  A    between atoms: C_7  and  N_15 
REMARK    4  A    between atoms: C_7  and  C_8 
REMARK    5  A    between atoms: C_8  and  C_9 
REMARK       I    between atoms: N_15  and  C_16 
REMARK    6  A    between atoms: C_18  and  C_16 
REMARK    7  A    between atoms: C_18  and  N_26 
REMARK    8  A    between atoms: C_18  and  C_19 
REMARK    9  A    between atoms: C_19  and  C_20 
REMARK       I    between atoms: N_26  and  C_27 
REMARK   10  A    between atoms: C_27  and  O_29 
REMARK   11  A    between atoms: O_29  and  C_30 
REMARK   12  A    between atoms: C_30  and  C_31 
ROOT
ATOM      1  N   UNL d   1      25.929 -15.414  -0.574  0.00  0.00    -0.350 N 
ATOM      2  C   UNL d   1      27.020 -16.222  -0.349  0.00  0.00     0.241 C 
ATOM      3  O   UNL d   1      27.087 -17.381  -0.747  0.00  0.00    -0.271 OA
ATOM      4  H   UNL d   1      25.890 -14.529  -0.093  0.00  0.00     0.163 HD
ENDROOT
BRANCH   2   5
ATOM      5  C   UNL d   1      28.220 -15.552   0.330  0.00  0.00     0.183 C 
BRANCH   5   6
ATOM      6  N   UNL d   1      27.990 -15.245   1.757  0.00  0.00    -0.323 N 
ATOM      7  C   UNL d   1      27.397 -14.090   2.165  0.00  0.00     0.361 C 
ATOM      8  O   UNL d   1      26.878 -13.278   1.400  0.00  0.00    -0.238 OA
ATOM      9  H   UNL d   1      28.530 -15.751   2.450  0.00  0.00     0.165 HD
BRANCH   7  10
ATOM     10  O   UNL d   1      27.322 -14.019   3.510  0.00  0.00    -0.299 OA
BRANCH  10  11
ATOM     11  C   UNL d   1      28.531 -14.445   4.166  0.00  0.00     0.219 C 
BRANCH  11  12
ATOM     12  C   UNL d   1      28.675 -13.761   5.505  0.00  0.00    -0.034 A 
ATOM     13  C   UNL d   1      29.234 -14.426   6.609  0.00  0.00     0.009 A 
ATOM     14  C   UNL d   1      29.208 -13.836   7.877  0.00  0.00     0.001 A 
ATOM     15  C   UNL d   1      28.695 -12.550   8.039  0.00  0.00     0.000 A 
ATOM     16  C   UNL d   1      28.158 -11.875   6.947  0.00  0.00     0.001 A 
ATOM     17  C   UNL d   1      28.132 -12.484   5.694  0.00  0.00     0.009 A 
ENDBRANCH  11  12
ENDBRANCH  10  11
ENDBRANCH   7  10
ENDBRANCH   5   6
BRANCH   5  18
ATOM     18  C   UNL d   1      29.427 -16.492   0.117  0.00  0.00     0.073 C 
BRANCH  18  19
ATOM     19  C   UNL d   1      29.843 -16.651  -1.324  0.00  0.00    -0.056 A 
ATOM     20  C   UNL d   1      29.541 -15.676  -2.286  0.00  0.00     0.007 A 
ATOM     21  C   UNL d   1      29.820 -15.878  -3.627  0.00  0.00     0.001 A 
ATOM     22  C   UNL d   1      30.474 -17.035  -4.022  0.00  0.00     0.000 A 
ATOM     23  C   UNL d   1      30.799 -18.013  -3.080  0.00  0.00     0.001 A 
ATOM     24  C   UNL d   1      30.474 -17.831  -1.735  0.00  0.00     0.007 A 
ENDBRANCH  18  19
ENDBRANCH   5  18
ENDBRANCH   2   5
BRANCH   1  25
ATOM     25  C   UNL d   1      24.757 -15.876  -1.298  0.00  0.00     0.131 C 
BRANCH  25  26
ATOM     26  C   UNL d   1      25.155 -16.285  -2.740  0.00  0.00     0.069 C 
BRANCH  26  27
ATOM     27  C   UNL d   1      25.670 -15.198  -3.660  0.00  0.00    -0.056 A 
ATOM     28  C   UNL d   1      26.692 -15.432  -4.585  0.00  0.00     0.007 A 
ATOM     29  C   UNL d   1      27.227 -14.386  -5.336  0.00  0.00     0.001 A 
ATOM     30  C   UNL d   1      26.691 -13.107  -5.240  0.00  0.00     0.000 A 
ATOM     31  C   UNL d   1      25.656 -12.856  -4.343  0.00  0.00     0.001 A 
ATOM     32  C   UNL d   1      25.156 -13.891  -3.547  0.00  0.00     0.007 A 
ENDBRANCH  26  27
ENDBRANCH  25  26
BRANCH  25  33
ATOM     33  C   UNL d   1      24.165 -17.083  -0.520  0.00  0.00     0.137 C 
ATOM     34  N   UNL d   1      23.218 -17.805  -1.030  0.00  0.00    -0.185 NA
BRANCH  34  35
ATOM     35  N   UNL d   1      22.668 -18.835  -0.328  0.00  0.00    -0.229 N 
ATOM     36  C   UNL d   1      21.290 -18.970  -0.325  0.00  0.00     0.334 C 
ATOM     37  N   UNL d   1      20.831 -20.028   0.400  0.00  0.00    -0.351 N 
ATOM     38  O   UNL d   1      20.473 -18.258  -0.896  0.00  0.00    -0.246 OA
ATOM     39  H   UNL d   1      19.826 -20.151   0.395  0.00  0.00     0.160 HD
ATOM     40  H   UNL d   1      21.401 -20.678   0.910  0.00  0.00     0.160 HD
ATOM     41  H   UNL d   1      23.252 -19.439   0.227  0.00  0.00     0.194 HD
ENDBRANCH  34  35
ENDBRANCH  25  33
ENDBRANCH   1  25
TORSDOF 12
ENDMDL
MODEL 2
REMARK VINA RESULT:    -8.880      1.403      6.727
REMARK INTER + INTRA:         -15.600
REMARK INTER:                 -12.459
REMARK INTRA:                  -3.141
REMARK CONF_INDEPENDENT:        3.580
REMARK UNBOUND:                -3.141
REMARK  12 active torsions:
REMARK  status: ('A' for Active; 'I' for Inactive)
REMARK       I    between atoms: N_1  and  C_2 
REMARK       I    between atoms: C_2  and  N_4 
REMARK    1  A    between atoms: N_4  and  N_5 
REMARK    2  A    between atoms: C_7  and  C_6 
REMARK    3  A    between atoms: C_7  and  N_15 
REMARK    4  A    between atoms: C_7  and  C_8 
REMARK    5  A    between atoms: C_8  and  C_9 
REMARK       I    between atoms: N_15  and  C_16 
REMARK    6  A    between atoms: C_18  and  C_16 
REMARK    7  A    between atoms: C_18  and  N_26 
REMARK    8  A    between atoms: C_18  and  C_19 
REMARK    9  A    between atoms: C_19  and  C_20 
REMARK       I    between atoms: N_26  and  C_27 
REMARK   10  A    between atoms: C_27  and  O_29 
REMARK   11  A    between atoms: O_29  and  C_30 
REMARK   12  A    between atoms: C_30  and  C_31 
ROOT
ATOM      1  N   UNL d   1      26.362 -16.284  -0.248  0.00  0.00    -0.350 N 
ATOM      2  C   UNL d   1      27.015 -15.098  -0.001  0.00  0.00     0.241 C 
ATOM      3  O   UNL d   1      26.509 -14.001  -0.218  0.00  0.00    -0.271 OA
ATOM      4  H   UNL d   1      26.895 -17.138  -0.181  0.00  0.00     0.163 HD
ENDROOT
BRANCH   2   5
ATOM      5  C   UNL d   1      28.381 -15.214   0.683  0.00  0.00     0.183 C 
BRANCH   5   6
ATOM      6  N   UNL d   1      29.483 -15.514  -0.254  0.00  0.00    -0.323 N 
ATOM      7  C   UNL d   1      29.513 -16.652  -1.001  0.00  0.00     0.361 C 
ATOM      8  O   UNL d   1      28.578 -17.449  -1.073  0.00  0.00    -0.238 OA
ATOM      9  H   UNL d   1      30.362 -15.023  -0.135  0.00  0.00     0.165 HD
BRANCH   7  10
ATOM     10  O   UNL d   1      30.627 -16.719  -1.758  0.00  0.00    -0.299 OA
BRANCH  10  11
ATOM     11  C   UNL d   1      30.670 -17.890  -2.596  0.00  0.00     0.219 C 
BRANCH  11  12
ATOM     12  C   UNL d   1      30.497 -17.509  -4.047  0.00  0.00    -0.034 A 
ATOM     13  C   UNL d   1      30.799 -18.411  -5.080  0.00  0.00     0.009 A 
ATOM     14  C   UNL d   1      30.790 -17.987  -6.414  0.00  0.00     0.001 A 
ATOM     15  C   UNL d   1      30.405 -16.685  -6.730  0.00  0.00     0.000 A 
ATOM     16  C   UNL d   1      30.083 -15.790  -5.714  0.00  0.00     0.001 A 
ATOM     17  C   UNL d   1      30.146 -16.195  -4.383  0.00  0.00     0.009 A 
ENDBRANCH  11  12
ENDBRANCH  10  11
ENDBRANCH   7  10
ENDBRANCH   5   6
BRANCH   5  18
ATOM     18  C   UNL d   1      28.604 -13.892   1.450  0.00  0.00     0.073 C 
BRANCH  18  19
ATOM     19  C   UNL d   1      28.600 -14.038   2.952  0.00  0.00    -0.056 A 
ATOM     20  C   UNL d   1      29.743 -14.449   3.651  0.00  0.00     0.007 A 
ATOM     21  C   UNL d   1      29.703 -14.695   5.013  0.00  0.00     0.001 A 
ATOM     22  C   UNL d   1      28.530 -14.464   5.715  0.00  0.00     0.000 A 
ATOM     23  C   UNL d   1      27.383 -14.039   5.042  0.00  0.00     0.001 A 
ATOM     24  C   UNL d   1      27.410 -13.838   3.661  0.00  0.00     0.007 A 
ENDBRANCH  18  19
ENDBRANCH   5  18
ENDBRANCH   2   5
BRANCH   1  25
ATOM     25  C   UNL d   1      25.018 -16.332  -0.797  0.00  0.00     0.131 C 
BRANCH  25  26
ATOM     26  C   UNL d   1      25.083 -16.494  -2.337  0.00  0.00     0.069 C 
BRANCH  26  27
ATOM     27  C   UNL d   1      25.534 -15.299  -3.150  0.00  0.00    -0.056 A 
ATOM     28  C   UNL d   1      24.830 -14.091  -3.148  0.00  0.00     0.007 A 
ATOM     29  C   UNL d   1      25.202 -13.048  -3.995  0.00  0.00     0.001 A 
ATOM     30  C   UNL d   1      26.334 -13.161  -4.793  0.00  0.00     0.000 A 
ATOM     31  C   UNL d   1      27.065 -14.345  -4.793  0.00  0.00     0.001 A 
ATOM     32  C   UNL d   1      26.662 -15.414  -3.987  0.00  0.00     0.007 A 
ENDBRANCH  26  27
ENDBRANCH  25  26
BRANCH  25  33
ATOM     33  C   UNL d   1      24.282 -17.533  -0.141  0.00  0.00     0.137 C 
ATOM     34  N   UNL d   1      23.177 -17.990  -0.639  0.00  0.00    -0.185 NA
BRANCH  34  35
ATOM     35  N   UNL d   1      22.509 -19.013  -0.038  0.00  0.00    -0.229 N 
ATOM     36  C   UNL d   1      21.140 -19.111  -0.228  0.00  0.00     0.334 C 
ATOM     37  N   UNL d   1      20.559 -20.165   0.409  0.00  0.00    -0.351 N 
ATOM     38  O   UNL d   1      20.430 -18.369  -0.896  0.00  0.00    -0.246 OA
ATOM     39  H   UNL d   1      19.561 -20.260   0.261  0.00  0.00     0.160 HD
ATOM     40  H   UNL d   1      21.035 -20.836   0.982  0.00  0.00     0.160 HD
ATOM     41  H   UNL d   1      22.994 -19.641   0.583  0.00  0.00     0.194 HD
ENDBRANCH  34  35
ENDBRANCH  25  33
ENDBRANCH   1  25
TORSDOF 12
ENDMDL
MODEL 3
REMARK VINA RESULT:    -8.789      1.370      6.822
REMARK INTER + INTRA:         -15.519
REMARK INTER:                 -12.369
REMARK INTRA:                  -3.150
REMARK CONF_INDEPENDENT:        3.580
REMARK UNBOUND:                -3.150
REMARK  12 active torsions:
REMARK  status: ('A' for Active; 'I' for Inactive)
REMARK       I    between atoms: N_1  and  C_2 
REMARK       I    between atoms: C_2  and  N_4 
REMARK    1  A    between atoms: N_4  and  N_5 
REMARK    2  A    between atoms: C_7  and  C_6 
REMARK    3  A    between atoms: C_7  and  N_15 
REMARK    4  A    between atoms: C_7  and  C_8 
REMARK    5  A    between atoms: C_8  and  C_9 
REMARK       I    between atoms: N_15  and  C_16 
REMARK    6  A    between atoms: C_18  and  C_16 
REMARK    7  A    between atoms: C_18  and  N_26 
REMARK    8  A    between atoms: C_18  and  C_19 
REMARK    9  A    between atoms: C_19  and  C_20 
REMARK       I    between atoms: N_26  and  C_27 
REMARK   10  A    between atoms: C_27  and  O_29 
REMARK   11  A    between atoms: O_29  and  C_30 
REMARK   12  A    between atoms: C_30  and  C_31 
ROOT
ATOM      1  N   UNL d   1      26.286 -16.263  -0.342  0.00  0.00    -0.350 N 
ATOM      2  C   UNL d   1      26.882 -15.152   0.211  0.00  0.00     0.241 C 
ATOM      3  O   UNL d   1      26.292 -14.089   0.374  0.00  0.00    -0.271 OA
ATOM      4  H   UNL d   1      26.876 -17.048  -0.574  0.00  0.00     0.163 HD
ENDROOT
BRANCH   2   5
ATOM      5  C   UNL d   1      28.309 -15.348   0.735  0.00  0.00     0.183 C 
BRANCH   5   6
ATOM      6  N   UNL d   1      29.286 -15.665  -0.328  0.00  0.00    -0.323 N 
ATOM      7  C   UNL d   1      29.339 -16.888  -0.925  0.00  0.00     0.361 C 
ATOM      8  O   UNL d   1      28.507 -17.776  -0.744  0.00  0.00    -0.238 OA
ATOM      9  H   UNL d   1      30.107 -15.078  -0.417  0.00  0.00     0.165 HD
BRANCH   7  10
ATOM     10  O   UNL d   1      30.327 -16.950  -1.841  0.00  0.00    -0.299 OA
BRANCH  10  11
ATOM     11  C   UNL d   1      30.080 -16.121  -2.993  0.00  0.00     0.219 C 
BRANCH  11  12
ATOM     12  C   UNL d   1      30.400 -16.872  -4.264  0.00  0.00    -0.034 A 
ATOM     13  C   UNL d   1      30.393 -16.230  -5.513  0.00  0.00     0.009 A 
ATOM     14  C   UNL d   1      30.528 -16.974  -6.690  0.00  0.00     0.001 A 
ATOM     15  C   UNL d   1      30.748 -18.348  -6.627  0.00  0.00     0.000 A 
ATOM     16  C   UNL d   1      30.778 -18.990  -5.392  0.00  0.00     0.001 A 
ATOM     17  C   UNL d   1      30.587 -18.259  -4.221  0.00  0.00     0.009 A 
ENDBRANCH  11  12
ENDBRANCH  10  11
ENDBRANCH   7  10
ENDBRANCH   5   6
BRANCH   5  18
ATOM     18  C   UNL d   1      28.676 -14.062   1.506  0.00  0.00     0.073 C 
BRANCH  18  19
ATOM     19  C   UNL d   1      28.618 -14.201   3.007  0.00  0.00    -0.056 A 
ATOM     20  C   UNL d   1      27.423 -14.009   3.716  0.00  0.00     0.007 A 
ATOM     21  C   UNL d   1      27.398 -14.021   5.100  0.00  0.00     0.001 A 
ATOM     22  C   UNL d   1      28.560 -14.297   5.802  0.00  0.00     0.000 A 
ATOM     23  C   UNL d   1      29.759 -14.508   5.118  0.00  0.00     0.001 A 
ATOM     24  C   UNL d   1      29.794 -14.447   3.724  0.00  0.00     0.007 A 
ENDBRANCH  18  19
ENDBRANCH   5  18
ENDBRANCH   2   5
BRANCH   1  25
ATOM     25  C   UNL d   1      24.904 -16.261  -0.788  0.00  0.00     0.131 C 
BRANCH  25  26
ATOM     26  C   UNL d   1      24.849 -16.340  -2.335  0.00  0.00     0.069 C 
BRANCH  26  27
ATOM     27  C   UNL d   1      25.528 -15.236  -3.118  0.00  0.00    -0.056 A 
ATOM     28  C   UNL d   1      24.850 -14.076  -3.506  0.00  0.00     0.007 A 
ATOM     29  C   UNL d   1      25.466 -13.132  -4.326  0.00  0.00     0.001 A 
ATOM     30  C   UNL d   1      26.796 -13.286  -4.700  0.00  0.00     0.000 A 
ATOM     31  C   UNL d   1      27.498 -14.421  -4.305  0.00  0.00     0.001 A 
ATOM     32  C   UNL d   1      26.866 -15.398  -3.529  0.00  0.00     0.007 A 
ENDBRANCH  26  27
ENDBRANCH  25  26
BRANCH  25  33
ATOM     33  C   UNL d   1      24.198 -17.485  -0.142  0.00  0.00     0.137 C 
ATOM     34  N   UNL d   1      23.080 -17.936  -0.617  0.00  0.00    -0.185 NA
BRANCH  34  35
ATOM     35  N   UNL d   1      22.438 -18.980  -0.023  0.00  0.00    -0.229 N 
ATOM     36  C   UNL d   1      21.075 -19.120  -0.227  0.00  0.00     0.334 C 
ATOM     37  N   UNL d   1      20.520 -20.193   0.403  0.00  0.00    -0.351 N 
ATOM     38  O   UNL d   1      20.349 -18.400  -0.901  0.00  0.00    -0.246 OA
ATOM     39  H   UNL d   1      19.527 -20.319   0.246  0.00  0.00     0.160 HD
ATOM     40  H   UNL d   1      21.012 -20.850   0.980  0.00  0.00     0.160 HD
ATOM     41  H   UNL d   1      22.937 -19.593   0.602  0.00  0.00     0.194 HD
ENDBRANCH  34  35
ENDBRANCH  25  33
ENDBRANCH   1  25
TORSDOF 12
ENDMDL
MODEL 4
REMARK VINA RESULT:    -8.702      3.472      7.649
REMARK INTER + INTRA:         -15.743
REMARK INTER:                 -12.282
REMARK INTRA:                  -3.461
REMARK CONF_INDEPENDENT:        3.580
REMARK UNBOUND:                -3.461
REMARK  12 active torsions:
REMARK  status: ('A' for Active; 'I' for Inactive)
REMARK       I    between atoms: N_1  and  C_2 
REMARK       I    between atoms: C_2  and  N_4 
REMARK    1  A    between atoms: N_4  and  N_5 
REMARK    2  A    between atoms: C_7  and  C_6 
REMARK    3  A    between atoms: C_7  and  N_15 
REMARK    4  A    between atoms: C_7  and  C_8 
REMARK    5  A    between atoms: C_8  and  C_9 
REMARK       I    between atoms: N_15  and  C_16 
REMARK    6  A    between atoms: C_18  and  C_16 
REMARK    7  A    between atoms: C_18  and  N_26 
REMARK    8  A    between atoms: C_18  and  C_19 
REMARK    9  A    between atoms: C_19  and  C_20 
REMARK       I    between atoms: N_26  and  C_27 
REMARK   10  A    between atoms: C_27  and  O_29 
REMARK   11  A    between atoms: O_29  and  C_30 
REMARK   12  A    between atoms: C_30  and  C_31 
ROOT
ATOM      1  N   UNL d   1      25.688 -15.592  -3.402  0.00  0.00    -0.350 N 
ATOM      2  C   UNL d   1      24.763 -15.622  -2.383  0.00  0.00     0.241 C 
ATOM      3  O   UNL d   1      23.735 -14.952  -2.395  0.00  0.00    -0.271 OA
ATOM      4  H   UNL d   1      26.570 -16.057  -3.251  0.00  0.00     0.163 HD
ENDROOT
BRANCH   2   5
ATOM      5  C   UNL d   1      25.024 -16.643  -1.270  0.00  0.00     0.183 C 
BRANCH   5   6
ATOM      6  N   UNL d   1      24.140 -17.824  -1.339  0.00  0.00    -0.323 N 
ATOM      7  C   UNL d   1      22.845 -17.789  -0.919  0.00  0.00     0.361 C 
ATOM      8  O   UNL d   1      22.261 -16.759  -0.586  0.00  0.00    -0.238 OA
ATOM      9  H   UNL d   1      24.566 -18.740  -1.425  0.00  0.00     0.165 HD
BRANCH   7  10
ATOM     10  O   UNL d   1      22.247 -18.990  -1.052  0.00  0.00    -0.299 OA
BRANCH  10  11
ATOM     11  C   UNL d   1      20.827 -18.893  -1.269  0.00  0.00     0.219 C 
BRANCH  11  12
ATOM     12  C   UNL d   1      20.071 -19.451  -0.086  0.00  0.00    -0.034 A 
ATOM     13  C   UNL d   1      20.571 -19.333   1.221  0.00  0.00     0.009 A 
ATOM     14  C   UNL d   1      19.943 -19.997   2.280  0.00  0.00     0.001 A 
ATOM     15  C   UNL d   1      18.771 -20.718   2.056  0.00  0.00     0.000 A 
ATOM     16  C   UNL d   1      18.256 -20.822   0.767  0.00  0.00     0.001 A 
ATOM     17  C   UNL d   1      18.912 -20.208  -0.298  0.00  0.00     0.009 A 
ENDBRANCH  11  12
ENDBRANCH  10  11
ENDBRANCH   7  10
ENDBRANCH   5   6
BRANCH   5  18
ATOM     18  C   UNL d   1      26.519 -17.021  -1.361  0.00  0.00     0.073 C 
BRANCH  18  19
ATOM     19  C   UNL d   1      27.450 -16.026  -0.712  0.00  0.00    -0.056 A 
ATOM     20  C   UNL d   1      28.750 -15.816  -1.195  0.00  0.00     0.007 A 
ATOM     21  C   UNL d   1      29.640 -14.992  -0.528  0.00  0.00     0.001 A 
ATOM     22  C   UNL d   1      29.221 -14.304   0.600  0.00  0.00     0.000 A 
ATOM     23  C   UNL d   1      27.926 -14.485   1.090  0.00  0.00     0.001 A 
ATOM     24  C   UNL d   1      27.044 -15.354   0.446  0.00  0.00     0.007 A 
ENDBRANCH  18  19
ENDBRANCH   5  18
ENDBRANCH   2   5
BRANCH   1  25
ATOM     25  C   UNL d   1      25.525 -14.752  -4.576  0.00  0.00     0.131 C 
BRANCH  25  26
ATOM     26  C   UNL d   1      25.167 -13.307  -4.144  0.00  0.00     0.069 C 
BRANCH  26  27
ATOM     27  C   UNL d   1      26.225 -12.513  -3.405  0.00  0.00    -0.056 A 
ATOM     28  C   UNL d   1      27.097 -11.644  -4.066  0.00  0.00     0.007 A 
ATOM     29  C   UNL d   1      28.135 -11.017  -3.379  0.00  0.00     0.001 A 
ATOM     30  C   UNL d   1      28.267 -11.179  -2.004  0.00  0.00     0.000 A 
ATOM     31  C   UNL d   1      27.394 -12.021  -1.321  0.00  0.00     0.001 A 
ATOM     32  C   UNL d   1      26.386 -12.696  -2.018  0.00  0.00     0.007 A 
ENDBRANCH  26  27
ENDBRANCH  25  26
BRANCH  25  33
ATOM     33  C   UNL d   1      26.860 -14.783  -5.368  0.00  0.00     0.137 C 
ATOM     34  N   UNL d   1      27.824 -15.575  -5.019  0.00  0.00    -0.185 NA
BRANCH  34  35
ATOM     35  N   UNL d   1      29.011 -15.569  -5.688  0.00  0.00    -0.229 N 
ATOM     36  C   UNL d   1      29.941 -16.551  -5.390  0.00  0.00     0.334 C 
ATOM     37  N   UNL d   1      31.096 -16.468  -6.108  0.00  0.00    -0.351 N 
ATOM     38  O   UNL d   1      29.825 -17.460  -4.576  0.00  0.00    -0.246 OA
ATOM     39  H   UNL d   1      31.777 -17.192  -5.916  0.00  0.00     0.160 HD
ATOM     40  H   UNL d   1      31.304 -15.770  -6.799  0.00  0.00     0.160 HD
ATOM     41  H   UNL d   1      29.227 -14.826  -6.332  0.00  0.00     0.194 HD
ENDBRANCH  34  35
ENDBRANCH  25  33
ENDBRANCH   1  25
TORSDOF 12
ENDMDL
MODEL 5
REMARK VINA RESULT:    -8.265      2.343      6.991
REMARK INTER + INTRA:         -15.349
REMARK INTER:                 -11.845
REMARK INTRA:                  -3.504
REMARK CONF_INDEPENDENT:        3.580
REMARK UNBOUND:                -3.504
REMARK  12 active torsions:
REMARK  status: ('A' for Active; 'I' for Inactive)
REMARK       I    between atoms: N_1  and  C_2 
REMARK       I    between atoms: C_2  and  N_4 
REMARK    1  A    between atoms: N_4  and  N_5 
REMARK    2  A    between atoms: C_7  and  C_6 
REMARK    3  A    between atoms: C_7  and  N_15 
REMARK    4  A    between atoms: C_7  and  C_8 
REMARK    5  A    between atoms: C_8  and  C_9 
REMARK       I    between atoms: N_15  and  C_16 
REMARK    6  A    between atoms: C_18  and  C_16 
REMARK    7  A    between atoms: C_18  and  N_26 
REMARK    8  A    between atoms: C_18  and  C_19 
REMARK    9  A    between atoms: C_19  and  C_20 
REMARK       I    between atoms: N_26  and  C_27 
REMARK   10  A    between atoms: C_27  and  O_29 
REMARK   11  A    between atoms: O_29  and  C_30 
REMARK   12  A    between atoms: C_30  and  C_31 
ROOT
ATOM      1  N   UNL d   1      26.440 -16.104  -1.072  0.00  0.00    -0.350 N 
ATOM      2  C   UNL d   1      27.189 -16.663  -0.061  0.00  0.00     0.241 C 
ATOM      3  O   UNL d   1      26.696 -17.077   0.984  0.00  0.00    -0.271 OA
ATOM      4  H   UNL d   1      26.932 -15.658  -1.832  0.00  0.00     0.163 HD
ENDROOT
BRANCH   2   5
ATOM      5  C   UNL d   1      28.679 -16.859  -0.361  0.00  0.00     0.183 C 
BRANCH   5   6
ATOM      6  N   UNL d   1      28.966 -17.075  -1.794  0.00  0.00    -0.323 N 
ATOM      7  C   UNL d   1      28.877 -16.074  -2.712  0.00  0.00     0.361 C 
ATOM      8  O   UNL d   1      28.697 -14.892  -2.422  0.00  0.00    -0.238 OA
ATOM      9  H   UNL d   1      28.945 -18.024  -2.150  0.00  0.00     0.165 HD
BRANCH   7  10
ATOM     10  O   UNL d   1      29.156 -16.515  -3.956  0.00  0.00    -0.299 OA
BRANCH  10  11
ATOM     11  C   UNL d   1      30.463 -17.110  -4.064  0.00  0.00     0.219 C 
BRANCH  11  12
ATOM     12  C   UNL d   1      30.518 -18.057  -5.239  0.00  0.00    -0.034 A 
ATOM     13  C   UNL d   1      30.461 -19.449  -5.060  0.00  0.00     0.009 A 
ATOM     14  C   UNL d   1      30.679 -20.310  -6.141  0.00  0.00     0.001 A 
ATOM     15  C   UNL d   1      30.876 -19.791  -7.419  0.00  0.00     0.000 A 
ATOM     16  C   UNL d   1      30.912 -18.413  -7.611  0.00  0.00     0.001 A 
ATOM     17  C   UNL d   1      30.752 -17.554  -6.526  0.00  0.00     0.009 A 
ENDBRANCH  11  12
ENDBRANCH  10  11
ENDBRANCH   7  10
ENDBRANCH   5   6
BRANCH   5  18
ATOM     18  C   UNL d   1      29.409 -15.620   0.205  0.00  0.00     0.073 C 
BRANCH  18  19
ATOM     19  C   UNL d   1      28.493 -14.580   0.801  0.00  0.00    -0.056 A 
ATOM     20  C   UNL d   1      28.164 -14.587   2.164  0.00  0.00     0.007 A 
ATOM     21  C   UNL d   1      27.233 -13.703   2.683  0.00  0.00     0.001 A 
ATOM     22  C   UNL d   1      26.664 -12.747   1.858  0.00  0.00     0.000 A 
ATOM     23  C   UNL d   1      26.988 -12.711   0.500  0.00  0.00     0.001 A 
ATOM     24  C   UNL d   1      27.890 -13.632  -0.034  0.00  0.00     0.007 A 
ENDBRANCH  18  19
ENDBRANCH   5  18
ENDBRANCH   2   5
BRANCH   1  25
ATOM     25  C   UNL d   1      24.999 -15.949  -0.977  0.00  0.00     0.131 C 
BRANCH  25  26
ATOM     26  C   UNL d   1      24.425 -15.509  -2.348  0.00  0.00     0.069 C 
BRANCH  26  27
ATOM     27  C   UNL d   1      25.342 -14.746  -3.280  0.00  0.00    -0.056 A 
ATOM     28  C   UNL d   1      25.599 -13.382  -3.117  0.00  0.00     0.007 A 
ATOM     29  C   UNL d   1      26.352 -12.680  -4.057  0.00  0.00     0.001 A 
ATOM     30  C   UNL d   1      26.935 -13.347  -5.129  0.00  0.00     0.000 A 
ATOM     31  C   UNL d   1      26.713 -14.711  -5.298  0.00  0.00     0.001 A 
ATOM     32  C   UNL d   1      25.911 -15.406  -4.388  0.00  0.00     0.007 A 
ENDBRANCH  26  27
ENDBRANCH  25  26
BRANCH  25  33
ATOM     33  C   UNL d   1      24.405 -17.315  -0.536  0.00  0.00     0.137 C 
ATOM     34  N   UNL d   1      23.126 -17.475  -0.408  0.00  0.00    -0.185 NA
BRANCH  34  35
ATOM     35  N   UNL d   1      22.609 -18.660   0.021  0.00  0.00    -0.229 N 
ATOM     36  C   UNL d   1      21.287 -18.950  -0.276  0.00  0.00     0.334 C 
ATOM     37  N   UNL d   1      20.858 -20.155   0.191  0.00  0.00    -0.351 N 
ATOM     38  O   UNL d   1      20.498 -18.253  -0.902  0.00  0.00    -0.246 OA
ATOM     39  H   UNL d   1      19.899 -20.389  -0.036  0.00  0.00     0.160 HD
ATOM     40  H   UNL d   1      21.411 -20.809   0.715  0.00  0.00     0.160 HD
ATOM     41  H   UNL d   1      23.160 -19.275   0.598  0.00  0.00     0.194 HD
ENDBRANCH  34  35
ENDBRANCH  25  33
ENDBRANCH   1  25
TORSDOF 12
ENDMDL
MODEL 6
REMARK VINA RESULT:    -8.212      2.100      4.163
REMARK INTER + INTRA:         -15.777
REMARK INTER:                 -11.792
REMARK INTRA:                  -3.985
REMARK CONF_INDEPENDENT:        3.580
REMARK UNBOUND:                -3.985
REMARK  12 active torsions:
REMARK  status: ('A' for Active; 'I' for Inactive)
REMARK       I    between atoms: N_1  and  C_2 
REMARK       I    between atoms: C_2  and  N_4 
REMARK    1  A    between atoms: N_4  and  N_5 
REMARK    2  A    between atoms: C_7  and  C_6 
REMARK    3  A    between atoms: C_7  and  N_15 
REMARK    4  A    between atoms: C_7  and  C_8 
REMARK    5  A    between atoms: C_8  and  C_9 
REMARK       I    between atoms: N_15  and  C_16 
REMARK    6  A    between atoms: C_18  and  C_16 
REMARK    7  A    between atoms: C_18  and  N_26 
REMARK    8  A    between atoms: C_18  and  C_19 
REMARK    9  A    between atoms: C_19  and  C_20 
REMARK       I    between atoms: N_26  and  C_27 
REMARK   10  A    between atoms: C_27  and  O_29 
REMARK   11  A    between atoms: O_29  and  C_30 
REMARK   12  A    between atoms: C_30  and  C_31 
ROOT
ATOM      1  N   UNL d   1      24.820 -16.028  -1.346  0.00  0.00    -0.350 N 
ATOM      2  C   UNL d   1      25.240 -15.536  -2.560  0.00  0.00     0.241 C 
ATOM      3  O   UNL d   1      25.492 -16.256  -3.522  0.00  0.00    -0.271 OA
ATOM      4  H   UNL d   1      24.773 -15.388  -0.568  0.00  0.00     0.163 HD
ENDROOT
BRANCH   2   5
ATOM      5  C   UNL d   1      25.260 -14.009  -2.693  0.00  0.00     0.183 C 
BRANCH   5   6
ATOM      6  N   UNL d   1      26.444 -13.382  -2.071  0.00  0.00    -0.323 N 
ATOM      7  C   UNL d   1      26.647 -13.389  -0.724  0.00  0.00     0.361 C 
ATOM      8  O   UNL d   1      25.957 -14.027   0.070  0.00  0.00    -0.238 OA
ATOM      9  H   UNL d   1      26.961 -12.694  -2.606  0.00  0.00     0.165 HD
BRANCH   7  10
ATOM     10  O   UNL d   1      27.776 -12.733  -0.389  0.00  0.00    -0.299 OA
BRANCH  10  11
ATOM     11  C   UNL d   1      27.603 -11.845   0.731  0.00  0.00     0.219 C 
BRANCH  11  12
ATOM     12  C   UNL d   1      28.014 -12.527   2.015  0.00  0.00    -0.034 A 
ATOM     13  C   UNL d   1      29.367 -12.687   2.356  0.00  0.00     0.009 A 
ATOM     14  C   UNL d   1      29.730 -13.463   3.462  0.00  0.00     0.001 A 
ATOM     15  C   UNL d   1      28.747 -14.019   4.278  0.00  0.00     0.000 A 
ATOM     16  C   UNL d   1      27.403 -13.848   3.961  0.00  0.00     0.001 A 
ATOM     17  C   UNL d   1      27.041 -13.123   2.828  0.00  0.00     0.009 A 
ENDBRANCH  11  12
ENDBRANCH  10  11
ENDBRANCH   7  10
ENDBRANCH   5   6
BRANCH   5  18
ATOM     18  C   UNL d   1      25.155 -13.697  -4.202  0.00  0.00     0.073 C 
BRANCH  18  19
ATOM     19  C   UNL d   1      26.481 -13.648  -4.920  0.00  0.00    -0.056 A 
ATOM     20  C   UNL d   1      27.122 -12.431  -5.194  0.00  0.00     0.007 A 
ATOM     21  C   UNL d   1      28.278 -12.383  -5.955  0.00  0.00     0.001 A 
ATOM     22  C   UNL d   1      28.855 -13.563  -6.396  0.00  0.00     0.000 A 
ATOM     23  C   UNL d   1      28.244 -14.788  -6.121  0.00  0.00     0.001 A 
ATOM     24  C   UNL d   1      27.052 -14.833  -5.397  0.00  0.00     0.007 A 
ENDBRANCH  18  19
ENDBRANCH   5  18
ENDBRANCH   2   5
BRANCH   1  25
ATOM     25  C   UNL d   1      24.650 -17.450  -1.100  0.00  0.00     0.131 C 
BRANCH  25  26
ATOM     26  C   UNL d   1      25.805 -17.974  -0.210  0.00  0.00     0.069 C 
BRANCH  26  27
ATOM     27  C   UNL d   1      27.073 -17.146  -0.148  0.00  0.00    -0.056 A 
ATOM     28  C   UNL d   1      27.413 -16.393   0.980  0.00  0.00     0.007 A 
ATOM     29  C   UNL d   1      28.523 -15.550   0.966  0.00  0.00     0.001 A 
ATOM     30  C   UNL d   1      29.361 -15.511  -0.143  0.00  0.00     0.000 A 
ATOM     31  C   UNL d   1      29.056 -16.271  -1.268  0.00  0.00     0.001 A 
ATOM     32  C   UNL d   1      27.911 -17.075  -1.278  0.00  0.00     0.007 A 
ENDBRANCH  26  27
ENDBRANCH  25  26
BRANCH  25  33
ATOM     33  C   UNL d   1      23.276 -17.648  -0.403  0.00  0.00     0.137 C 
ATOM     34  N   UNL d   1      22.459 -18.576  -0.792  0.00  0.00    -0.185 NA
BRANCH  34  35
ATOM     35  N   UNL d   1      21.236 -18.720  -0.210  0.00  0.00    -0.229 N 
ATOM     36  C   UNL d   1      20.215 -19.290  -0.952  0.00  0.00     0.334 C 
ATOM     37  N   UNL d   1      19.030 -19.396  -0.288  0.00  0.00    -0.351 N 
ATOM     38  O   UNL d   1      20.276 -19.700  -2.105  0.00  0.00    -0.246 OA
ATOM     39  H   UNL d   1      18.279 -19.831  -0.812  0.00  0.00     0.160 HD
ATOM     40  H   UNL d   1      18.860 -19.096   0.654  0.00  0.00     0.160 HD
ATOM     41  H   UNL d   1      21.067 -18.357   0.714  0.00  0.00     0.194 HD
ENDBRANCH  34  35
ENDBRANCH  25  33
ENDBRANCH   1  25
TORSDOF 12
ENDMDL
MODEL 7
REMARK VINA RESULT:    -8.193      3.765      5.954
REMARK INTER + INTRA:         -15.249
REMARK INTER:                 -11.773
REMARK INTRA:                  -3.476
REMARK CONF_INDEPENDENT:        3.580
REMARK UNBOUND:                -3.476
REMARK  12 active torsions:
REMARK  status: ('A' for Active; 'I' for Inactive)
REMARK       I    between atoms: N_1  and  C_2 
REMARK       I    between atoms: C_2  and  N_4 
REMARK    1  A    between atoms: N_4  and  N_5 
REMARK    2  A    between atoms: C_7  and  C_6 
REMARK    3  A    between atoms: C_7  and  N_15 
REMARK    4  A    between atoms: C_7  and  C_8 
REMARK    5  A    between atoms: C_8  and  C_9 
REMARK       I    between atoms: N_15  and  C_16 
REMARK    6  A    between atoms: C_18  and  C_16 
REMARK    7  A    between atoms: C_18  and  N_26 
REMARK    8  A    between atoms: C_18  and  C_19 
REMARK    9  A    between atoms: C_19  and  C_20 
REMARK       I    between atoms: N_26  and  C_27 
REMARK   10  A    between atoms: C_27  and  O_29 
REMARK   11  A    between atoms: O_29  and  C_30 
REMARK   12  A    between atoms: C_30  and  C_31 
ROOT
ATOM      1  N   UNL d   1      27.666 -16.128  -2.781  0.00  0.00    -0.350 N 
ATOM      2  C   UNL d   1      28.337 -15.918  -3.964  0.00  0.00     0.241 C 
ATOM      3  O   UNL d   1      27.774 -15.572  -4.999  0.00  0.00    -0.271 OA
ATOM      4  H   UNL d   1      28.175 -16.549  -2.019  0.00  0.00     0.163 HD
ENDROOT
BRANCH   2   5
ATOM      5  C   UNL d   1      29.864 -16.022  -3.896  0.00  0.00     0.183 C 
BRANCH   5   6
ATOM      6  N   UNL d   1      30.445 -15.356  -2.712  0.00  0.00    -0.323 N 
ATOM      7  C   UNL d   1      30.308 -15.859  -1.454  0.00  0.00     0.361 C 
ATOM      8  O   UNL d   1      29.826 -16.964  -1.207  0.00  0.00    -0.238 OA
ATOM      9  H   UNL d   1      30.695 -14.376  -2.786  0.00  0.00     0.165 HD
BRANCH   7  10
ATOM     10  O   UNL d   1      30.895 -15.066  -0.536  0.00  0.00    -0.299 OA
BRANCH  10  11
ATOM     11  C   UNL d   1      30.393 -13.717  -0.551  0.00  0.00     0.219 C 
BRANCH  11  12
ATOM     12  C   UNL d   1      28.988 -13.669   0.003  0.00  0.00    -0.034 A 
ATOM     13  C   UNL d   1      27.914 -13.197  -0.769  0.00  0.00     0.009 A 
ATOM     14  C   UNL d   1      26.656 -13.006  -0.188  0.00  0.00     0.001 A 
ATOM     15  C   UNL d   1      26.441 -13.355   1.144  0.00  0.00     0.000 A 
ATOM     16  C   UNL d   1      27.494 -13.844   1.912  0.00  0.00     0.001 A 
ATOM     17  C   UNL d   1      28.762 -13.982   1.349  0.00  0.00     0.009 A 
ENDBRANCH  11  12
ENDBRANCH  10  11
ENDBRANCH   7  10
ENDBRANCH   5   6
BRANCH   5  18
ATOM     18  C   UNL d   1      30.207 -17.527  -3.952  0.00  0.00     0.073 C 
BRANCH  18  19
ATOM     19  C   UNL d   1      30.562 -18.031  -5.329  0.00  0.00    -0.056 A 
ATOM     20  C   UNL d   1      30.964 -17.157  -6.349  0.00  0.00     0.007 A 
ATOM     21  C   UNL d   1      31.175 -17.608  -7.641  0.00  0.00     0.001 A 
ATOM     22  C   UNL d   1      31.054 -18.960  -7.921  0.00  0.00     0.000 A 
ATOM     23  C   UNL d   1      30.670 -19.851  -6.918  0.00  0.00     0.001 A 
ATOM     24  C   UNL d   1      30.410 -19.390  -5.627  0.00  0.00     0.007 A 
ENDBRANCH  18  19
ENDBRANCH   5  18
ENDBRANCH   2   5
BRANCH   1  25
ATOM     25  C   UNL d   1      26.227 -15.964  -2.664  0.00  0.00     0.131 C 
BRANCH  25  26
ATOM     26  C   UNL d   1      25.801 -16.098  -1.180  0.00  0.00     0.069 C 
BRANCH  26  27
ATOM     27  C   UNL d   1      24.550 -16.897  -0.878  0.00  0.00    -0.056 A 
ATOM     28  C   UNL d   1      23.275 -16.323  -0.916  0.00  0.00     0.007 A 
ATOM     29  C   UNL d   1      22.154 -17.051  -0.520  0.00  0.00     0.001 A 
ATOM     30  C   UNL d   1      22.275 -18.390  -0.164  0.00  0.00     0.000 A 
ATOM     31  C   UNL d   1      23.532 -18.989  -0.144  0.00  0.00     0.001 A 
ATOM     32  C   UNL d   1      24.665 -18.245  -0.485  0.00  0.00     0.007 A 
ENDBRANCH  26  27
ENDBRANCH  25  26
BRANCH  25  33
ATOM     33  C   UNL d   1      25.864 -14.562  -3.224  0.00  0.00     0.137 C 
ATOM     34  N   UNL d   1      25.149 -14.438  -4.297  0.00  0.00    -0.185 NA
BRANCH  34  35
ATOM     35  N   UNL d   1      24.869 -13.208  -4.813  0.00  0.00    -0.229 N 
ATOM     36  C   UNL d   1      25.904 -12.299  -4.952  0.00  0.00     0.334 C 
ATOM     37  N   UNL d   1      25.532 -11.099  -5.477  0.00  0.00    -0.351 N 
ATOM     38  O   UNL d   1      27.083 -12.468  -4.663  0.00  0.00    -0.246 OA
ATOM     39  H   UNL d   1      26.283 -10.431  -5.604  0.00  0.00     0.160 HD
ATOM     40  H   UNL d   1      24.600 -10.845  -5.750  0.00  0.00     0.160 HD
ATOM     41  H   UNL d   1      23.918 -12.950  -5.023  0.00  0.00     0.194 HD
ENDBRANCH  34  35
ENDBRANCH  25  33
ENDBRANCH   1  25
TORSDOF 12
ENDMDL
MODEL 8
REMARK VINA RESULT:    -7.866      1.421      5.376
REMARK INTER + INTRA:         -15.361
REMARK INTER:                 -11.445
REMARK INTRA:                  -3.916
REMARK CONF_INDEPENDENT:        3.580
REMARK UNBOUND:                -3.916
REMARK  12 active torsions:
REMARK  status: ('A' for Active; 'I' for Inactive)
REMARK       I    between atoms: N_1  and  C_2 
REMARK       I    between atoms: C_2  and  N_4 
REMARK    1  A    between atoms: N_4  and  N_5 
REMARK    2  A    between atoms: C_7  and  C_6 
REMARK    3  A    between atoms: C_7  and  N_15 
REMARK    4  A    between atoms: C_7  and  C_8 
REMARK    5  A    between atoms: C_8  and  C_9 
REMARK       I    between atoms: N_15  and  C_16 
REMARK    6  A    between atoms: C_18  and  C_16 
REMARK    7  A    between atoms: C_18  and  N_26 
REMARK    8  A    between atoms: C_18  and  C_19 
REMARK    9  A    between atoms: C_19  and  C_20 
REMARK       I    between atoms: N_26  and  C_27 
REMARK   10  A    between atoms: C_27  and  O_29 
REMARK   11  A    between atoms: O_29  and  C_30 
REMARK   12  A    between atoms: C_30  and  C_31 
ROOT
ATOM      1  N   UNL d   1      25.559 -16.324  -0.058  0.00  0.00    -0.350 N 
ATOM      2  C   UNL d   1      26.498 -15.328   0.081  0.00  0.00     0.241 C 
ATOM      3  O   UNL d   1      26.429 -14.257  -0.516  0.00  0.00    -0.271 OA
ATOM      4  H   UNL d   1      25.762 -17.223   0.351  0.00  0.00     0.163 HD
ENDROOT
BRANCH   2   5
ATOM      5  C   UNL d   1      27.589 -15.575   1.128  0.00  0.00     0.183 C 
BRANCH   5   6
ATOM      6  N   UNL d   1      28.749 -16.322   0.600  0.00  0.00    -0.323 N 
ATOM      7  C   UNL d   1      28.610 -17.377  -0.250  0.00  0.00     0.361 C 
ATOM      8  O   UNL d   1      27.541 -17.708  -0.761  0.00  0.00    -0.238 OA
ATOM      9  H   UNL d   1      29.634 -16.245   1.090  0.00  0.00     0.165 HD
BRANCH   7  10
ATOM     10  O   UNL d   1      29.803 -17.915  -0.572  0.00  0.00    -0.299 OA
BRANCH  10  11
ATOM     11  C   UNL d   1      30.341 -17.401  -1.805  0.00  0.00     0.219 C 
BRANCH  11  12
ATOM     12  C   UNL d   1      30.171 -15.901  -1.872  0.00  0.00    -0.034 A 
ATOM     13  C   UNL d   1      30.943 -15.043  -1.072  0.00  0.00     0.009 A 
ATOM     14  C   UNL d   1      30.659 -13.674  -1.026  0.00  0.00     0.001 A 
ATOM     15  C   UNL d   1      29.656 -13.141  -1.834  0.00  0.00     0.000 A 
ATOM     16  C   UNL d   1      28.899 -13.981  -2.645  0.00  0.00     0.001 A 
ATOM     17  C   UNL d   1      29.144 -15.353  -2.650  0.00  0.00     0.009 A 
ENDBRANCH  11  12
ENDBRANCH  10  11
ENDBRANCH   7  10
ENDBRANCH   5   6
BRANCH   5  18
ATOM     18  C   UNL d   1      27.985 -14.192   1.688  0.00  0.00     0.073 C 
BRANCH  18  19
ATOM     19  C   UNL d   1      28.381 -14.202   3.144  0.00  0.00    -0.056 A 
ATOM     20  C   UNL d   1      29.703 -14.448   3.543  0.00  0.00     0.007 A 
ATOM     21  C   UNL d   1      30.038 -14.574   4.880  0.00  0.00     0.001 A 
ATOM     22  C   UNL d   1      29.066 -14.384   5.850  0.00  0.00     0.000 A 
ATOM     23  C   UNL d   1      27.746 -14.123   5.476  0.00  0.00     0.001 A 
ATOM     24  C   UNL d   1      27.398 -14.044   4.128  0.00  0.00     0.007 A 
ENDBRANCH  18  19
ENDBRANCH   5  18
ENDBRANCH   2   5
BRANCH   1  25
ATOM     25  C   UNL d   1      24.408 -16.191  -0.935  0.00  0.00     0.131 C 
BRANCH  25  26
ATOM     26  C   UNL d   1      24.814 -16.528  -2.392  0.00  0.00     0.069 C 
BRANCH  26  27
ATOM     27  C   UNL d   1      25.283 -15.387  -3.271  0.00  0.00    -0.056 A 
ATOM     28  C   UNL d   1      26.212 -15.575  -4.299  0.00  0.00     0.007 A 
ATOM     29  C   UNL d   1      26.713 -14.488  -5.014  0.00  0.00     0.001 A 
ATOM     30  C   UNL d   1      26.231 -13.206  -4.774  0.00  0.00     0.000 A 
ATOM     31  C   UNL d   1      25.288 -12.999  -3.772  0.00  0.00     0.001 A 
ATOM     32  C   UNL d   1      24.825 -14.079  -3.014  0.00  0.00     0.007 A 
ENDBRANCH  26  27
ENDBRANCH  25  26
BRANCH  25  33
ATOM     33  C   UNL d   1      23.310 -17.163  -0.424  0.00  0.00     0.137 C 
ATOM     34  N   UNL d   1      23.338 -18.421  -0.731  0.00  0.00    -0.185 NA
BRANCH  34  35
ATOM     35  N   UNL d   1      22.350 -19.264  -0.320  0.00  0.00    -0.229 N 
ATOM     36  C   UNL d   1      21.039 -18.950  -0.639  0.00  0.00     0.334 C 
ATOM     37  N   UNL d   1      20.121 -19.850  -0.189  0.00  0.00    -0.351 N 
ATOM     38  O   UNL d   1      20.642 -17.978  -1.270  0.00  0.00    -0.246 OA
ATOM     39  H   UNL d   1      19.160 -19.644  -0.433  0.00  0.00     0.160 HD
ATOM     40  H   UNL d   1      20.326 -20.680   0.337  0.00  0.00     0.160 HD
ATOM     41  H   UNL d   1      22.569 -20.059   0.259  0.00  0.00     0.194 HD
ENDBRANCH  34  35
ENDBRANCH  25  33
ENDBRANCH   1  25
TORSDOF 12
ENDMDL
MODEL 9
REMARK VINA RESULT:    -7.343      2.862      5.877
REMARK INTER + INTRA:         -15.251
REMARK INTER:                 -10.923
REMARK INTRA:                  -4.328
REMARK CONF_INDEPENDENT:        3.580
REMARK UNBOUND:                -4.328
REMARK  12 active torsions:
REMARK  status: ('A' for Active; 'I' for Inactive)
REMARK       I    between atoms: N_1  and  C_2 
REMARK       I    between atoms: C_2  and  N_4 
REMARK    1  A    between atoms: N_4  and  N_5 
REMARK    2  A    between atoms: C_7  and  C_6 
REMARK    3  A    between atoms: C_7  and  N_15 
REMARK    4  A    between atoms: C_7  and  C_8 
REMARK    5  A    between atoms: C_8  and  C_9 
REMARK       I    between atoms: N_15  and  C_16 
REMARK    6  A    between atoms: C_18  and  C_16 
REMARK    7  A    between atoms: C_18  and  N_26 
REMARK    8  A    between atoms: C_18  and  C_19 
REMARK    9  A    between atoms: C_19  and  C_20 
REMARK       I    between atoms: N_26  and  C_27 
REMARK   10  A    between atoms: C_27  and  O_29 
REMARK   11  A    between atoms: O_29  and  C_30 
REMARK   12  A    between atoms: C_30  and  C_31 
ROOT
ATOM      1  N   UNL d   1      26.375 -16.305  -0.345  0.00  0.00    -0.350 N 
ATOM      2  C   UNL d   1      26.902 -15.139   0.160  0.00  0.00     0.241 C 
ATOM      3  O   UNL d   1      26.280 -14.081   0.185  0.00  0.00    -0.271 OA
ATOM      4  H   UNL d   1      26.996 -17.092  -0.462  0.00  0.00     0.163 HD
ENDROOT
BRANCH   2   5
ATOM      5  C   UNL d   1      28.284 -15.255   0.813  0.00  0.00     0.183 C 
BRANCH   5   6
ATOM      6  N   UNL d   1      29.093 -16.370   0.279  0.00  0.00    -0.323 N 
ATOM      7  C   UNL d   1      29.021 -16.762  -1.023  0.00  0.00     0.361 C 
ATOM      8  O   UNL d   1      28.399 -16.148  -1.890  0.00  0.00    -0.238 OA
ATOM      9  H   UNL d   1      29.487 -17.035   0.934  0.00  0.00     0.165 HD
BRANCH   7  10
ATOM     10  O   UNL d   1      29.827 -17.814  -1.270  0.00  0.00    -0.299 OA
BRANCH  10  11
ATOM     11  C   UNL d   1      31.002 -17.460  -2.025  0.00  0.00     0.219 C 
BRANCH  11  12
ATOM     12  C   UNL d   1      30.712 -17.502  -3.506  0.00  0.00    -0.034 A 
ATOM     13  C   UNL d   1      30.915 -18.672  -4.258  0.00  0.00     0.009 A 
ATOM     14  C   UNL d   1      30.799 -18.645  -5.652  0.00  0.00     0.001 A 
ATOM     15  C   UNL d   1      30.405 -17.475  -6.298  0.00  0.00     0.000 A 
ATOM     16  C   UNL d   1      30.180 -16.316  -5.560  0.00  0.00     0.001 A 
ATOM     17  C   UNL d   1      30.350 -16.327  -4.177  0.00  0.00     0.009 A 
ENDBRANCH  11  12
ENDBRANCH  10  11
ENDBRANCH   7  10
ENDBRANCH   5   6
BRANCH   5  18
ATOM     18  C   UNL d   1      28.974 -13.886   0.630  0.00  0.00     0.073 C 
BRANCH  18  19
ATOM     19  C   UNL d   1      29.524 -13.649  -0.755  0.00  0.00    -0.056 A 
ATOM     20  C   UNL d   1      30.855 -13.952  -1.077  0.00  0.00     0.007 A 
ATOM     21  C   UNL d   1      31.388 -13.625  -2.312  0.00  0.00     0.001 A 
ATOM     22  C   UNL d   1      30.575 -13.050  -3.277  0.00  0.00     0.000 A 
ATOM     23  C   UNL d   1      29.243 -12.754  -2.984  0.00  0.00     0.001 A 
ATOM     24  C   UNL d   1      28.719 -13.039  -1.722  0.00  0.00     0.007 A 
ENDBRANCH  18  19
ENDBRANCH   5  18
ENDBRANCH   2   5
BRANCH   1  25
ATOM     25  C   UNL d   1      25.035 -16.376  -0.901  0.00  0.00     0.131 C 
BRANCH  25  26
ATOM     26  C   UNL d   1      25.111 -16.562  -2.438  0.00  0.00     0.069 C 
BRANCH  26  27
ATOM     27  C   UNL d   1      25.540 -15.371  -3.269  0.00  0.00    -0.056 A 
ATOM     28  C   UNL d   1      26.415 -15.498  -4.352  0.00  0.00     0.007 A 
ATOM     29  C   UNL d   1      26.885 -14.371  -5.025  0.00  0.00     0.001 A 
ATOM     30  C   UNL d   1      26.421 -13.105  -4.683  0.00  0.00     0.000 A 
ATOM     31  C   UNL d   1      25.531 -12.957  -3.624  0.00  0.00     0.001 A 
ATOM     32  C   UNL d   1      25.102 -14.081  -2.911  0.00  0.00     0.007 A 
ENDBRANCH  26  27
ENDBRANCH  25  26
BRANCH  25  33
ATOM     33  C   UNL d   1      24.307 -17.573  -0.230  0.00  0.00     0.137 C 
ATOM     34  N   UNL d   1      23.143 -17.962  -0.646  0.00  0.00    -0.185 NA
BRANCH  34  35
ATOM     35  N   UNL d   1      22.486 -18.983  -0.028  0.00  0.00    -0.229 N 
ATOM     36  C   UNL d   1      21.118 -19.097  -0.216  0.00  0.00     0.334 C 
ATOM     37  N   UNL d   1      20.547 -20.146   0.438  0.00  0.00    -0.351 N 
ATOM     38  O   UNL d   1      20.400 -18.372  -0.895  0.00  0.00    -0.246 OA
ATOM     39  H   UNL d   1      19.550 -20.254   0.292  0.00  0.00     0.160 HD
ATOM     40  H   UNL d   1      21.030 -20.804   1.021  0.00  0.00     0.160 HD
ATOM     41  H   UNL d   1      22.977 -19.596   0.603  0.00  0.00     0.194 HD
ENDBRANCH  34  35
ENDBRANCH  25  33
ENDBRANCH   1  25
TORSDOF 12
ENDMDL
