MODEL 1
REMARK VINA RESULT:   -29.361      0.000      0.000
REMARK INTER + INTRA:         -32.701
REMARK INTER:                 -30.554
REMARK INTRA:                  -2.147
REMARK CONF_INDEPENDENT:        1.193
REMARK UNBOUND:                -2.147
REMARK  4 active torsions:
REMARK  status: ('A' for Active; 'I' for Inactive)
REMARK    1  A    between atoms: C_6  and  C_7 
REMARK    2  A    between atoms: C_10  and  N_11 
REMARK       I    between atoms: N_11  and  C_12 
REMARK    3  A    between atoms: C_12  and  C_14 
REMARK       I    between atoms: C_14  and  N_16 
REMARK    4  A    between atoms: N_16  and  N_17 
ROOT
ATOM      1  N   UNL d   1      24.052 -17.074  -1.152  0.00  0.00    -0.318 N 
ATOM      2  C   UNL d   1      23.250 -18.189  -0.978  0.00  0.00     0.315 C 
ATOM      3  O   UNL d   1      23.500 -19.377  -0.780  0.00  0.00    -0.262 OA
ATOM      4  H   UNL d   1      23.455 -16.279  -1.272  0.00  0.00     0.169 HD
ENDROOT
BRANCH   1   5
ATOM      5  C   UNL d   1      25.485 -16.867  -1.182  0.00  0.00     0.047 A 
ATOM      6  C   UNL d   1      26.149 -16.123  -2.223  0.00  0.00    -0.027 A 
ATOM      7  C   UNL d   1      27.571 -15.947  -2.147  0.00  0.00     0.010 A 
ATOM      8  C   UNL d   1      28.343 -16.502  -1.138  0.00  0.00     0.001 A 
ATOM      9  C   UNL d   1      27.713 -17.227  -0.156  0.00  0.00     0.009 A 
ATOM     10  C   UNL d   1      26.319 -17.401  -0.166  0.00  0.00    -0.035 A 
ATOM     11  C   UNL d   1      25.801 -18.192   0.981  0.00  0.00     0.050 C 
BRANCH   6  12
ATOM     12  C   UNL d   1      25.531 -15.448  -3.466  0.00  0.00     0.013 C 
ATOM     13  C   UNL d   1      24.842 -14.116  -3.117  0.00  0.00     0.015 C 
ATOM     14  C   UNL d   1      26.485 -15.155  -4.608  0.00  0.00     0.015 C 
ENDBRANCH   6  12
ENDBRANCH   1   5
BRANCH   2  15
ATOM     15  C   UNL d   1      21.738 -17.960  -1.016  0.00  0.00     0.323 C 
ATOM     16  O   UNL d   1      21.242 -16.850  -0.909  0.00  0.00    -0.261 OA
ATOM     17  N   UNL d   1      21.095 -19.185  -1.165  0.00  0.00    -0.286 N 
ATOM     18  H   UNL d   1      21.718 -19.996  -1.270  0.00  0.00     0.184 HD
BRANCH  17  19
ATOM     19  N   UNL d   1      19.714 -19.324  -1.269  0.00  0.00    -0.247 NA
ATOM     20  H   UNL d   1      19.505 -19.678  -2.206  0.00  0.00     0.143 HD
ATOM     21  H   UNL d   1      19.301 -18.390  -1.222  0.00  0.00     0.143 HD
ENDBRANCH  17  19
ENDBRANCH   2  15
TORSDOF 4
ENDMDL
MODEL 2
REMARK VINA RESULT:   -28.085      1.170      3.335
REMARK INTER + INTRA:         -31.081
REMARK INTER:                 -29.278
REMARK INTRA:                  -1.803
REMARK CONF_INDEPENDENT:        1.193
REMARK UNBOUND:                -1.803
REMARK  4 active torsions:
REMARK  status: ('A' for Active; 'I' for Inactive)
REMARK    1  A    between atoms: C_6  and  C_7 
REMARK    2  A    between atoms: C_10  and  N_11 
REMARK       I    between atoms: N_11  and  C_12 
REMARK    3  A    between atoms: C_12  and  C_14 
REMARK       I    between atoms: C_14  and  N_16 
REMARK    4  A    between atoms: N_16  and  N_17 
ROOT
ATOM      1  N   UNL d   1      24.460 -17.076  -1.490  0.00  0.00    -0.318 N 
ATOM      2  C   UNL d   1      23.212 -16.933  -0.909  0.00  0.00     0.315 C 
ATOM      3  O   UNL d   1      22.640 -15.981  -0.379  0.00  0.00    -0.262 OA
ATOM      4  H   UNL d   1      24.541 -18.017  -1.823  0.00  0.00     0.169 HD
ENDROOT
BRANCH   1   5
ATOM      5  C   UNL d   1      25.578 -16.178  -1.693  0.00  0.00     0.047 A 
ATOM      6  C   UNL d   1      26.920 -16.486  -1.265  0.00  0.00    -0.027 A 
ATOM      7  C   UNL d   1      27.967 -15.544  -1.541  0.00  0.00     0.010 A 
ATOM      8  C   UNL d   1      27.735 -14.325  -2.161  0.00  0.00     0.001 A 
ATOM      9  C   UNL d   1      26.453 -14.024  -2.552  0.00  0.00     0.009 A 
ATOM     10  C   UNL d   1      25.399 -14.926  -2.336  0.00  0.00    -0.035 A 
ATOM     11  C   UNL d   1      24.084 -14.450  -2.840  0.00  0.00     0.050 C 
BRANCH   6  12
ATOM     12  C   UNL d   1      27.429 -17.741  -0.524  0.00  0.00     0.013 C 
ATOM     13  C   UNL d   1      28.967 -17.825  -0.520  0.00  0.00     0.015 C 
ATOM     14  C   UNL d   1      26.984 -17.888   0.919  0.00  0.00     0.015 C 
ENDBRANCH   6  12
ENDBRANCH   1   5
BRANCH   2  15
ATOM     15  C   UNL d   1      22.311 -18.169  -0.905  0.00  0.00     0.323 C 
ATOM     16  O   UNL d   1      22.758 -19.305  -0.899  0.00  0.00    -0.261 OA
ATOM     17  N   UNL d   1      20.980 -17.762  -0.926  0.00  0.00    -0.286 N 
ATOM     18  H   UNL d   1      20.833 -16.745  -0.893  0.00  0.00     0.184 HD
BRANCH  17  19
ATOM     19  N   UNL d   1      19.903 -18.643  -0.895  0.00  0.00    -0.247 NA
ATOM     20  H   UNL d   1      19.124 -18.203  -1.392  0.00  0.00     0.143 HD
ATOM     21  H   UNL d   1      19.601 -18.733   0.078  0.00  0.00     0.143 HD
ENDBRANCH  17  19
ENDBRANCH   2  15
TORSDOF 4
ENDMDL
