MODEL 1
REMARK VINA RESULT:    -9.006      0.000      0.000
REMARK INTER + INTRA:         -15.081
REMARK INTER:                 -12.585
REMARK INTRA:                  -2.496
REMARK CONF_INDEPENDENT:        3.580
REMARK UNBOUND:                -2.496
REMARK  12 active torsions:
REMARK  status: ('A' for Active; 'I' for Inactive)
REMARK    1  A    between atoms: C_2  and  C_3 
REMARK       I    between atoms: C_2  and  N_23 
REMARK    2  A    between atoms: C_3  and  C_4 
REMARK    3  A    between atoms: C_4  and  C_5 
REMARK    4  A    between atoms: C_5  and  C_6 
REMARK    5  A    between atoms: C_6  and  C_7 
REMARK    6  A    between atoms: C_7  and  C_8 
REMARK    7  A    between atoms: C_8  and  C_9 
REMARK    8  A    between atoms: C_9  and  C_10 
REMARK       I    between atoms: C_10  and  N_12 
REMARK    9  A    between atoms: N_12  and  N_13 
REMARK       I    between atoms: N_13  and  C_14 
REMARK       I    between atoms: C_14  and  N_16 
REMARK   10  A    between atoms: N_16  and  C_17 
REMARK   11  A    between atoms: N_23  and  N_24 
REMARK       I    between atoms: N_24  and  C_25 
REMARK       I    between atoms: C_25  and  N_27 
REMARK   12  A    between atoms: N_27  and  C_28 
ROOT
ATOM      1  C   UNL d   1      27.191 -14.706  -0.803  0.00  0.00     0.000 C 
ENDROOT
BRANCH   1   2
ATOM      2  C   UNL d   1      27.520 -16.118  -0.314  0.00  0.00     0.000 C 
BRANCH   2   3
ATOM      3  C   UNL d   1      26.304 -17.042  -0.418  0.00  0.00     0.009 C 
BRANCH   3   4
ATOM      4  C   UNL d   1      25.728 -17.049  -1.840  0.00  0.00     0.104 C 
BRANCH   4   5
ATOM      5  C   UNL d   1      24.581 -16.069  -2.001  0.00  0.00     0.236 C 
ATOM      6  O   UNL d   1      24.660 -15.086  -2.740  0.00  0.00    -0.272 OA
ATOM      7  N   UNL d   1      23.427 -16.304  -1.292  0.00  0.00    -0.266 N 
ATOM      8  H   UNL d   1      22.664 -15.631  -1.407  0.00  0.00     0.190 HD
BRANCH   7   9
ATOM      9  N   UNL d   1      23.178 -17.365  -0.392  0.00  0.00    -0.249 N 
ATOM     10  C   UNL d   1      21.896 -17.906  -0.377  0.00  0.00     0.339 C 
ATOM     11  O   UNL d   1      21.018 -17.463  -1.129  0.00  0.00    -0.245 OA
ATOM     12  N   UNL d   1      21.708 -18.913   0.556  0.00  0.00    -0.308 N 
ATOM     13  H   UNL d   1      22.415 -19.061   1.262  0.00  0.00     0.170 HD
ATOM     14  H   UNL d   1      23.936 -17.724   0.173  0.00  0.00     0.192 HD
BRANCH  12  15
ATOM     15  C   UNL d   1      20.503 -19.658   0.701  0.00  0.00     0.036 A 
ATOM     16  C   UNL d   1      19.653 -19.854  -0.396  0.00  0.00     0.029 A 
ATOM     17  C   UNL d   1      18.406 -20.484  -0.233  0.00  0.00     0.002 A 
ATOM     18  C   UNL d   1      18.012 -20.946   1.021  0.00  0.00     0.000 A 
ATOM     19  C   UNL d   1      18.857 -20.768   2.112  0.00  0.00     0.002 A 
ATOM     20  C   UNL d   1      20.095 -20.136   1.950  0.00  0.00     0.029 A 
ENDBRANCH  12  15
ENDBRANCH   7   9
ENDBRANCH   4   5
ENDBRANCH   3   4
ENDBRANCH   2   3
ENDBRANCH   1   2
BRANCH   1  21
ATOM     21  C   UNL d   1      27.836 -13.644   0.096  0.00  0.00     0.000 C 
BRANCH  21  22
ATOM     22  C   UNL d   1      28.538 -14.289   1.297  0.00  0.00     0.009 C 
BRANCH  22  23
ATOM     23  C   UNL d   1      30.075 -14.239   1.207  0.00  0.00     0.104 C 
BRANCH  23  24
ATOM     24  C   UNL d   1      30.726 -14.297   2.599  0.00  0.00     0.236 C 
ATOM     25  O   UNL d   1      31.928 -14.516   2.764  0.00  0.00    -0.272 OA
ATOM     26  N   UNL d   1      29.878 -14.088   3.673  0.00  0.00    -0.266 N 
ATOM     27  H   UNL d   1      28.880 -13.891   3.593  0.00  0.00     0.190 HD
BRANCH  26  28
ATOM     28  N   UNL d   1      30.404 -14.106   5.010  0.00  0.00    -0.249 N 
ATOM     29  C   UNL d   1      29.530 -13.883   6.063  0.00  0.00     0.339 C 
ATOM     30  O   UNL d   1      28.335 -13.674   5.830  0.00  0.00    -0.245 OA
ATOM     31  N   UNL d   1      30.102 -13.884   7.333  0.00  0.00    -0.308 N 
ATOM     32  H   UNL d   1      31.105 -13.815   7.425  0.00  0.00     0.170 HD
ATOM     33  H   UNL d   1      31.394 -14.319   5.100  0.00  0.00     0.192 HD
BRANCH  31  34
ATOM     34  C   UNL d   1      29.318 -13.706   8.512  0.00  0.00     0.036 A 
ATOM     35  C   UNL d   1      28.937 -14.781   9.331  0.00  0.00     0.029 A 
ATOM     36  C   UNL d   1      28.174 -14.553  10.494  0.00  0.00     0.002 A 
ATOM     37  C   UNL d   1      27.797 -13.258  10.850  0.00  0.00     0.000 A 
ATOM     38  C   UNL d   1      28.134 -12.197  10.020  0.00  0.00     0.002 A 
ATOM     39  C   UNL d   1      28.883 -12.423   8.863  0.00  0.00     0.029 A 
ENDBRANCH  31  34
ENDBRANCH  26  28
ENDBRANCH  23  24
ENDBRANCH  22  23
ENDBRANCH  21  22
ENDBRANCH   1  21
TORSDOF 12
ENDMDL
MODEL 2
REMARK VINA RESULT:    -7.859      4.376     11.211
REMARK INTER + INTRA:         -15.105
REMARK INTER:                 -11.439
REMARK INTRA:                  -3.666
REMARK CONF_INDEPENDENT:        3.580
REMARK UNBOUND:                -3.666
REMARK  12 active torsions:
REMARK  status: ('A' for Active; 'I' for Inactive)
REMARK    1  A    between atoms: C_2  and  C_3 
REMARK       I    between atoms: C_2  and  N_23 
REMARK    2  A    between atoms: C_3  and  C_4 
REMARK    3  A    between atoms: C_4  and  C_5 
REMARK    4  A    between atoms: C_5  and  C_6 
REMARK    5  A    between atoms: C_6  and  C_7 
REMARK    6  A    between atoms: C_7  and  C_8 
REMARK    7  A    between atoms: C_8  and  C_9 
REMARK    8  A    between atoms: C_9  and  C_10 
REMARK       I    between atoms: C_10  and  N_12 
REMARK    9  A    between atoms: N_12  and  N_13 
REMARK       I    between atoms: N_13  and  C_14 
REMARK       I    between atoms: C_14  and  N_16 
REMARK   10  A    between atoms: N_16  and  C_17 
REMARK   11  A    between atoms: N_23  and  N_24 
REMARK       I    between atoms: N_24  and  C_25 
REMARK       I    between atoms: C_25  and  N_27 
REMARK   12  A    between atoms: N_27  and  C_28 
ROOT
ATOM      1  C   UNL d   1      24.752 -18.055  -0.128  0.00  0.00     0.000 C 
ENDROOT
BRANCH   1   2
ATOM      2  C   UNL d   1      26.190 -18.578  -0.142  0.00  0.00     0.000 C 
BRANCH   2   3
ATOM      3  C   UNL d   1      27.136 -17.629   0.597  0.00  0.00     0.009 C 
BRANCH   3   4
ATOM      4  C   UNL d   1      28.071 -16.902  -0.378  0.00  0.00     0.104 C 
BRANCH   4   5
ATOM      5  C   UNL d   1      27.774 -15.416  -0.462  0.00  0.00     0.236 C 
ATOM      6  O   UNL d   1      27.452 -14.872  -1.520  0.00  0.00    -0.272 OA
ATOM      7  N   UNL d   1      27.871 -14.673   0.690  0.00  0.00    -0.266 N 
ATOM      8  H   UNL d   1      27.674 -13.671   0.617  0.00  0.00     0.190 HD
BRANCH   7   9
ATOM      9  N   UNL d   1      28.244 -15.131   1.975  0.00  0.00    -0.249 N 
ATOM     10  C   UNL d   1      28.238 -14.205   3.013  0.00  0.00     0.339 C 
ATOM     11  O   UNL d   1      27.916 -13.028   2.804  0.00  0.00    -0.245 OA
ATOM     12  N   UNL d   1      28.653 -14.709   4.235  0.00  0.00    -0.308 N 
ATOM     13  H   UNL d   1      29.092 -15.618   4.263  0.00  0.00     0.170 HD
ATOM     14  H   UNL d   1      28.458 -16.110   2.108  0.00  0.00     0.192 HD
BRANCH  12  15
ATOM     15  C   UNL d   1      28.659 -13.966   5.450  0.00  0.00     0.036 A 
ATOM     16  C   UNL d   1      29.375 -14.431   6.563  0.00  0.00     0.029 A 
ATOM     17  C   UNL d   1      29.288 -13.767   7.799  0.00  0.00     0.002 A 
ATOM     18  C   UNL d   1      28.509 -12.620   7.926  0.00  0.00     0.000 A 
ATOM     19  C   UNL d   1      27.807 -12.144   6.822  0.00  0.00     0.002 A 
ATOM     20  C   UNL d   1      27.889 -12.808   5.594  0.00  0.00     0.029 A 
ENDBRANCH  12  15
ENDBRANCH   7   9
ENDBRANCH   4   5
ENDBRANCH   3   4
ENDBRANCH   2   3
ENDBRANCH   1   2
BRANCH   1  21
ATOM     21  C   UNL d   1      24.700 -16.566  -0.491  0.00  0.00     0.000 C 
BRANCH  21  22
ATOM     22  C   UNL d   1      24.764 -16.363  -2.009  0.00  0.00     0.009 C 
BRANCH  22  23
ATOM     23  C   UNL d   1      24.698 -14.884  -2.433  0.00  0.00     0.104 C 
BRANCH  23  24
ATOM     24  C   UNL d   1      25.348 -14.660  -3.808  0.00  0.00     0.236 C 
ATOM     25  O   UNL d   1      24.775 -14.074  -4.728  0.00  0.00    -0.272 OA
ATOM     26  N   UNL d   1      26.630 -15.159  -3.960  0.00  0.00    -0.266 N 
ATOM     27  H   UNL d   1      27.154 -15.641  -3.229  0.00  0.00     0.190 HD
BRANCH  26  28
ATOM     28  N   UNL d   1      27.321 -14.979  -5.207  0.00  0.00    -0.249 N 
ATOM     29  C   UNL d   1      28.563 -15.576  -5.362  0.00  0.00     0.339 C 
ATOM     30  O   UNL d   1      29.041 -16.239  -4.436  0.00  0.00    -0.245 OA
ATOM     31  N   UNL d   1      29.197 -15.343  -6.580  0.00  0.00    -0.308 N 
ATOM     32  H   UNL d   1      28.863 -14.602  -7.179  0.00  0.00     0.170 HD
ATOM     33  H   UNL d   1      26.831 -14.444  -5.919  0.00  0.00     0.192 HD
BRANCH  31  34
ATOM     34  C   UNL d   1      30.462 -15.925  -6.894  0.00  0.00     0.036 A 
ATOM     35  C   UNL d   1      30.776 -17.256  -6.577  0.00  0.00     0.029 A 
ATOM     36  C   UNL d   1      32.035 -17.790  -6.921  0.00  0.00     0.002 A 
ATOM     37  C   UNL d   1      32.978 -17.007  -7.587  0.00  0.00     0.000 A 
ATOM     38  C   UNL d   1      32.687 -15.677  -7.863  0.00  0.00     0.002 A 
ATOM     39  C   UNL d   1      31.443 -15.145  -7.515  0.00  0.00     0.029 A 
ENDBRANCH  31  34
ENDBRANCH  26  28
ENDBRANCH  23  24
ENDBRANCH  22  23
ENDBRANCH  21  22
ENDBRANCH   1  21
TORSDOF 12
ENDMDL
MODEL 3
REMARK VINA RESULT:    -7.569      6.352     10.784
REMARK INTER + INTRA:         -15.093
REMARK INTER:                 -11.149
REMARK INTRA:                  -3.944
REMARK CONF_INDEPENDENT:        3.580
REMARK UNBOUND:                -3.944
REMARK  12 active torsions:
REMARK  status: ('A' for Active; 'I' for Inactive)
REMARK    1  A    between atoms: C_2  and  C_3 
REMARK       I    between atoms: C_2  and  N_23 
REMARK    2  A    between atoms: C_3  and  C_4 
REMARK    3  A    between atoms: C_4  and  C_5 
REMARK    4  A    between atoms: C_5  and  C_6 
REMARK    5  A    between atoms: C_6  and  C_7 
REMARK    6  A    between atoms: C_7  and  C_8 
REMARK    7  A    between atoms: C_8  and  C_9 
REMARK    8  A    between atoms: C_9  and  C_10 
REMARK       I    between atoms: C_10  and  N_12 
REMARK    9  A    between atoms: N_12  and  N_13 
REMARK       I    between atoms: N_13  and  C_14 
REMARK       I    between atoms: C_14  and  N_16 
REMARK   10  A    between atoms: N_16  and  C_17 
REMARK   11  A    between atoms: N_23  and  N_24 
REMARK       I    between atoms: N_24  and  C_25 
REMARK       I    between atoms: C_25  and  N_27 
REMARK   12  A    between atoms: N_27  and  C_28 
ROOT
ATOM      1  C   UNL d   1      28.445 -12.938  -2.851  0.00  0.00     0.000 C 
ENDROOT
BRANCH   1   2
ATOM      2  C   UNL d   1      27.047 -12.328  -2.735  0.00  0.00     0.000 C 
BRANCH   2   3
ATOM      3  C   UNL d   1      26.676 -11.539  -3.993  0.00  0.00     0.009 C 
BRANCH   3   4
ATOM      4  C   UNL d   1      25.530 -12.215  -4.757  0.00  0.00     0.104 C 
BRANCH   4   5
ATOM      5  C   UNL d   1      25.375 -13.679  -4.388  0.00  0.00     0.236 C 
ATOM      6  O   UNL d   1      24.494 -14.070  -3.621  0.00  0.00    -0.272 OA
ATOM      7  N   UNL d   1      26.256 -14.579  -4.939  0.00  0.00    -0.266 N 
ATOM      8  H   UNL d   1      26.143 -15.562  -4.677  0.00  0.00     0.190 HD
BRANCH   7   9
ATOM      9  N   UNL d   1      27.330 -14.298  -5.816  0.00  0.00    -0.249 N 
ATOM     10  C   UNL d   1      28.408 -15.178  -5.811  0.00  0.00     0.339 C 
ATOM     11  O   UNL d   1      28.413 -16.163  -5.062  0.00  0.00    -0.245 OA
ATOM     12  N   UNL d   1      29.443 -14.823  -6.662  0.00  0.00    -0.308 N 
ATOM     13  H   UNL d   1      29.440 -13.900  -7.072  0.00  0.00     0.170 HD
ATOM     14  H   UNL d   1      27.264 -13.507  -6.441  0.00  0.00     0.192 HD
BRANCH  12  15
ATOM     15  C   UNL d   1      30.612 -15.607  -6.875  0.00  0.00     0.036 A 
ATOM     16  C   UNL d   1      31.809 -15.000  -7.280  0.00  0.00     0.029 A 
ATOM     17  C   UNL d   1      32.932 -15.780  -7.608  0.00  0.00     0.002 A 
ATOM     18  C   UNL d   1      32.876 -17.168  -7.508  0.00  0.00     0.000 A 
ATOM     19  C   UNL d   1      31.696 -17.776  -7.092  0.00  0.00     0.002 A 
ATOM     20  C   UNL d   1      30.576 -17.001  -6.772  0.00  0.00     0.029 A 
ENDBRANCH  12  15
ENDBRANCH   7   9
ENDBRANCH   4   5
ENDBRANCH   3   4
ENDBRANCH   2   3
ENDBRANCH   1   2
BRANCH   1  21
ATOM     21  C   UNL d   1      28.498 -14.328  -2.204  0.00  0.00     0.000 C 
BRANCH  21  22
ATOM     22  C   UNL d   1      27.154 -14.692  -1.563  0.00  0.00     0.009 C 
BRANCH  22  23
ATOM     23  C   UNL d   1      26.952 -16.207  -1.382  0.00  0.00     0.104 C 
BRANCH  23  24
ATOM     24  C   UNL d   1      25.576 -16.661  -1.897  0.00  0.00     0.236 C 
ATOM     25  O   UNL d   1      25.210 -16.485  -3.061  0.00  0.00    -0.272 OA
ATOM     26  N   UNL d   1      24.759 -17.286  -0.972  0.00  0.00    -0.266 N 
ATOM     27  H   UNL d   1      25.017 -17.468  -0.001  0.00  0.00     0.190 HD
BRANCH  26  28
ATOM     28  N   UNL d   1      23.462 -17.760  -1.371  0.00  0.00    -0.249 N 
ATOM     29  C   UNL d   1      22.661 -18.365  -0.415  0.00  0.00     0.339 C 
ATOM     30  O   UNL d   1      23.076 -18.485   0.742  0.00  0.00    -0.245 OA
ATOM     31  N   UNL d   1      21.428 -18.829  -0.867  0.00  0.00    -0.308 N 
ATOM     32  H   UNL d   1      21.265 -18.919  -1.860  0.00  0.00     0.170 HD
ATOM     33  H   UNL d   1      23.199 -17.586  -2.338  0.00  0.00     0.192 HD
BRANCH  31  34
ATOM     34  C   UNL d   1      20.484 -19.439   0.012  0.00  0.00     0.036 A 
ATOM     35  C   UNL d   1      20.655 -19.452   1.406  0.00  0.00     0.029 A 
ATOM     36  C   UNL d   1      19.687 -20.054   2.235  0.00  0.00     0.002 A 
ATOM     37  C   UNL d   1      18.546 -20.636   1.683  0.00  0.00     0.000 A 
ATOM     38  C   UNL d   1      18.394 -20.665   0.302  0.00  0.00     0.002 A 
ATOM     39  C   UNL d   1      19.357 -20.074  -0.520  0.00  0.00     0.029 A 
ENDBRANCH  31  34
ENDBRANCH  26  28
ENDBRANCH  23  24
ENDBRANCH  22  23
ENDBRANCH  21  22
ENDBRANCH   1  21
TORSDOF 12
ENDMDL
MODEL 4
REMARK VINA RESULT:    -7.523      3.247      5.110
REMARK INTER + INTRA:         -15.139
REMARK INTER:                 -11.102
REMARK INTRA:                  -4.036
REMARK CONF_INDEPENDENT:        3.580
REMARK UNBOUND:                -4.036
REMARK  12 active torsions:
REMARK  status: ('A' for Active; 'I' for Inactive)
REMARK    1  A    between atoms: C_2  and  C_3 
REMARK       I    between atoms: C_2  and  N_23 
REMARK    2  A    between atoms: C_3  and  C_4 
REMARK    3  A    between atoms: C_4  and  C_5 
REMARK    4  A    between atoms: C_5  and  C_6 
REMARK    5  A    between atoms: C_6  and  C_7 
REMARK    6  A    between atoms: C_7  and  C_8 
REMARK    7  A    between atoms: C_8  and  C_9 
REMARK    8  A    between atoms: C_9  and  C_10 
REMARK       I    between atoms: C_10  and  N_12 
REMARK    9  A    between atoms: N_12  and  N_13 
REMARK       I    between atoms: N_13  and  C_14 
REMARK       I    between atoms: C_14  and  N_16 
REMARK   10  A    between atoms: N_16  and  C_17 
REMARK   11  A    between atoms: N_23  and  N_24 
REMARK       I    between atoms: N_24  and  C_25 
REMARK       I    between atoms: C_25  and  N_27 
REMARK   12  A    between atoms: N_27  and  C_28 
ROOT
ATOM      1  C   UNL d   1      27.503 -15.188  -4.778  0.00  0.00     0.000 C 
ENDROOT
BRANCH   1   2
ATOM      2  C   UNL d   1      28.531 -14.564  -5.723  0.00  0.00     0.000 C 
BRANCH   2   3
ATOM      3  C   UNL d   1      28.040 -13.222  -6.274  0.00  0.00     0.009 C 
BRANCH   3   4
ATOM      4  C   UNL d   1      27.734 -12.233  -5.142  0.00  0.00     0.104 C 
BRANCH   4   5
ATOM      5  C   UNL d   1      26.274 -11.823  -5.114  0.00  0.00     0.236 C 
ATOM      6  O   UNL d   1      25.787 -11.076  -5.965  0.00  0.00    -0.272 OA
ATOM      7  N   UNL d   1      25.485 -12.313  -4.099  0.00  0.00    -0.266 N 
ATOM      8  H   UNL d   1      24.504 -12.023  -4.090  0.00  0.00     0.190 HD
BRANCH   7   9
ATOM      9  N   UNL d   1      25.885 -13.158  -3.039  0.00  0.00    -0.249 N 
ATOM     10  C   UNL d   1      25.068 -14.245  -2.743  0.00  0.00     0.339 C 
ATOM     11  O   UNL d   1      24.034 -14.450  -3.392  0.00  0.00    -0.245 OA
ATOM     12  N   UNL d   1      25.494 -15.009  -1.668  0.00  0.00    -0.308 N 
ATOM     13  H   UNL d   1      26.226 -14.647  -1.074  0.00  0.00     0.170 HD
ATOM     14  H   UNL d   1      26.759 -12.978  -2.564  0.00  0.00     0.192 HD
BRANCH  12  15
ATOM     15  C   UNL d   1      24.858 -16.205  -1.230  0.00  0.00     0.036 A 
ATOM     16  C   UNL d   1      23.460 -16.310  -1.240  0.00  0.00     0.029 A 
ATOM     17  C   UNL d   1      22.822 -17.440  -0.698  0.00  0.00     0.002 A 
ATOM     18  C   UNL d   1      23.576 -18.484  -0.167  0.00  0.00     0.000 A 
ATOM     19  C   UNL d   1      24.965 -18.393  -0.167  0.00  0.00     0.002 A 
ATOM     20  C   UNL d   1      25.599 -17.266  -0.701  0.00  0.00     0.029 A 
ENDBRANCH  12  15
ENDBRANCH   7   9
ENDBRANCH   4   5
ENDBRANCH   3   4
ENDBRANCH   2   3
ENDBRANCH   1   2
BRANCH   1  21
ATOM     21  C   UNL d   1      28.152 -15.607  -3.453  0.00  0.00     0.000 C 
BRANCH  21  22
ATOM     22  C   UNL d   1      29.418 -14.789  -3.174  0.00  0.00     0.009 C 
BRANCH  22  23
ATOM     23  C   UNL d   1      29.171 -13.568  -2.267  0.00  0.00     0.104 C 
BRANCH  23  24
ATOM     24  C   UNL d   1      28.567 -13.980  -0.915  0.00  0.00     0.236 C 
ATOM     25  O   UNL d   1      27.434 -13.649  -0.562  0.00  0.00    -0.272 OA
ATOM     26  N   UNL d   1      29.377 -14.754  -0.102  0.00  0.00    -0.266 N 
ATOM     27  H   UNL d   1      30.316 -15.067  -0.349  0.00  0.00     0.190 HD
BRANCH  26  28
ATOM     28  N   UNL d   1      28.887 -15.200   1.174  0.00  0.00    -0.249 N 
ATOM     29  C   UNL d   1      28.954 -14.324   2.246  0.00  0.00     0.339 C 
ATOM     30  O   UNL d   1      29.428 -13.195   2.083  0.00  0.00    -0.245 OA
ATOM     31  N   UNL d   1      28.491 -14.821   3.462  0.00  0.00    -0.308 N 
ATOM     32  H   UNL d   1      28.353 -15.816   3.571  0.00  0.00     0.170 HD
ATOM     33  H   UNL d   1      28.487 -16.135   1.199  0.00  0.00     0.192 HD
BRANCH  31  34
ATOM     34  C   UNL d   1      28.463 -14.020   4.642  0.00  0.00     0.036 A 
ATOM     35  C   UNL d   1      27.790 -12.789   4.699  0.00  0.00     0.029 A 
ATOM     36  C   UNL d   1      27.778 -12.039   5.893  0.00  0.00     0.002 A 
ATOM     37  C   UNL d   1      28.427 -12.514   7.033  0.00  0.00     0.000 A 
ATOM     38  C   UNL d   1      29.131 -13.710   6.968  0.00  0.00     0.002 A 
ATOM     39  C   UNL d   1      29.149 -14.449   5.783  0.00  0.00     0.029 A 
ENDBRANCH  31  34
ENDBRANCH  26  28
ENDBRANCH  23  24
ENDBRANCH  22  23
ENDBRANCH  21  22
ENDBRANCH   1  21
TORSDOF 12
ENDMDL
MODEL 5
REMARK VINA RESULT:    -6.673      4.009      8.632
REMARK INTER + INTRA:         -15.214
REMARK INTER:                 -10.252
REMARK INTRA:                  -4.961
REMARK CONF_INDEPENDENT:        3.580
REMARK UNBOUND:                -4.961
REMARK  12 active torsions:
REMARK  status: ('A' for Active; 'I' for Inactive)
REMARK    1  A    between atoms: C_2  and  C_3 
REMARK       I    between atoms: C_2  and  N_23 
REMARK    2  A    between atoms: C_3  and  C_4 
REMARK    3  A    between atoms: C_4  and  C_5 
REMARK    4  A    between atoms: C_5  and  C_6 
REMARK    5  A    between atoms: C_6  and  C_7 
REMARK    6  A    between atoms: C_7  and  C_8 
REMARK    7  A    between atoms: C_8  and  C_9 
REMARK    8  A    between atoms: C_9  and  C_10 
REMARK       I    between atoms: C_10  and  N_12 
REMARK    9  A    between atoms: N_12  and  N_13 
REMARK       I    between atoms: N_13  and  C_14 
REMARK       I    between atoms: C_14  and  N_16 
REMARK   10  A    between atoms: N_16  and  C_17 
REMARK   11  A    between atoms: N_23  and  N_24 
REMARK       I    between atoms: N_24  and  C_25 
REMARK       I    between atoms: C_25  and  N_27 
REMARK   12  A    between atoms: N_27  and  C_28 
ROOT
ATOM      1  C   UNL d   1      29.776 -15.523  -5.861  0.00  0.00     0.000 C 
ENDROOT
BRANCH   1   2
ATOM      2  C   UNL d   1      28.519 -14.651  -5.880  0.00  0.00     0.000 C 
BRANCH   2   3
ATOM      3  C   UNL d   1      27.707 -14.813  -4.593  0.00  0.00     0.009 C 
BRANCH   3   4
ATOM      4  C   UNL d   1      26.793 -13.604  -4.354  0.00  0.00     0.104 C 
BRANCH   4   5
ATOM      5  C   UNL d   1      25.597 -13.949  -3.485  0.00  0.00     0.236 C 
ATOM      6  O   UNL d   1      24.464 -14.075  -3.952  0.00  0.00    -0.272 OA
ATOM      7  N   UNL d   1      25.808 -14.123  -2.138  0.00  0.00    -0.266 N 
ATOM      8  H   UNL d   1      24.992 -14.349  -1.564  0.00  0.00     0.190 HD
BRANCH   7   9
ATOM      9  N   UNL d   1      27.032 -13.997  -1.441  0.00  0.00    -0.249 N 
ATOM     10  C   UNL d   1      26.985 -14.035  -0.051  0.00  0.00     0.339 C 
ATOM     11  O   UNL d   1      25.905 -14.173   0.538  0.00  0.00    -0.245 OA
ATOM     12  N   UNL d   1      28.212 -13.865   0.571  0.00  0.00    -0.308 N 
ATOM     13  H   UNL d   1      28.997 -13.552   0.019  0.00  0.00     0.170 HD
ATOM     14  H   UNL d   1      27.895 -13.930  -1.963  0.00  0.00     0.192 HD
BRANCH  12  15
ATOM     15  C   UNL d   1      28.416 -13.938   1.978  0.00  0.00     0.036 A 
ATOM     16  C   UNL d   1      27.355 -13.700   2.863  0.00  0.00     0.029 A 
ATOM     17  C   UNL d   1      27.576 -13.652   4.250  0.00  0.00     0.002 A 
ATOM     18  C   UNL d   1      28.852 -13.868   4.766  0.00  0.00     0.000 A 
ATOM     19  C   UNL d   1      29.908 -14.120   3.894  0.00  0.00     0.002 A 
ATOM     20  C   UNL d   1      29.689 -14.162   2.513  0.00  0.00     0.029 A 
ENDBRANCH  12  15
ENDBRANCH   7   9
ENDBRANCH   4   5
ENDBRANCH   3   4
ENDBRANCH   2   3
ENDBRANCH   1   2
BRANCH   1  21
ATOM     21  C   UNL d   1      29.737 -16.525  -4.699  0.00  0.00     0.000 C 
BRANCH  21  22
ATOM     22  C   UNL d   1      31.115 -16.667  -4.045  0.00  0.00     0.009 C 
BRANCH  22  23
ATOM     23  C   UNL d   1      31.327 -15.719  -2.850  0.00  0.00     0.104 C 
BRANCH  23  24
ATOM     24  C   UNL d   1      30.181 -15.828  -1.831  0.00  0.00     0.236 C 
ATOM     25  O   UNL d   1      29.494 -14.861  -1.495  0.00  0.00    -0.272 OA
ATOM     26  N   UNL d   1      29.958 -17.088  -1.303  0.00  0.00    -0.266 N 
ATOM     27  H   UNL d   1      30.487 -17.923  -1.555  0.00  0.00     0.190 HD
BRANCH  26  28
ATOM     28  N   UNL d   1      28.895 -17.285  -0.357  0.00  0.00    -0.249 N 
ATOM     29  C   UNL d   1      27.589 -17.263  -0.822  0.00  0.00     0.339 C 
ATOM     30  O   UNL d   1      27.371 -17.075  -2.023  0.00  0.00    -0.245 OA
ATOM     31  N   UNL d   1      26.601 -17.432   0.145  0.00  0.00    -0.308 N 
ATOM     32  H   UNL d   1      26.840 -17.332   1.122  0.00  0.00     0.170 HD
ATOM     33  H   UNL d   1      29.176 -17.464   0.604  0.00  0.00     0.192 HD
BRANCH  31  34
ATOM     34  C   UNL d   1      25.215 -17.470  -0.192  0.00  0.00     0.036 A 
ATOM     35  C   UNL d   1      24.498 -16.318  -0.554  0.00  0.00     0.029 A 
ATOM     36  C   UNL d   1      23.132 -16.409  -0.894  0.00  0.00     0.002 A 
ATOM     37  C   UNL d   1      22.481 -17.642  -0.884  0.00  0.00     0.000 A 
ATOM     38  C   UNL d   1      23.175 -18.777  -0.484  0.00  0.00     0.002 A 
ATOM     39  C   UNL d   1      24.526 -18.686  -0.140  0.00  0.00     0.029 A 
ENDBRANCH  31  34
ENDBRANCH  26  28
ENDBRANCH  23  24
ENDBRANCH  22  23
ENDBRANCH  21  22
ENDBRANCH   1  21
TORSDOF 12
ENDMDL
MODEL 6
REMARK VINA RESULT:    -6.538      5.282      7.337
REMARK INTER + INTRA:         -15.444
REMARK INTER:                 -10.117
REMARK INTRA:                  -5.326
REMARK CONF_INDEPENDENT:        3.580
REMARK UNBOUND:                -5.326
REMARK  12 active torsions:
REMARK  status: ('A' for Active; 'I' for Inactive)
REMARK    1  A    between atoms: C_2  and  C_3 
REMARK       I    between atoms: C_2  and  N_23 
REMARK    2  A    between atoms: C_3  and  C_4 
REMARK    3  A    between atoms: C_4  and  C_5 
REMARK    4  A    between atoms: C_5  and  C_6 
REMARK    5  A    between atoms: C_6  and  C_7 
REMARK    6  A    between atoms: C_7  and  C_8 
REMARK    7  A    between atoms: C_8  and  C_9 
REMARK    8  A    between atoms: C_9  and  C_10 
REMARK       I    between atoms: C_10  and  N_12 
REMARK    9  A    between atoms: N_12  and  N_13 
REMARK       I    between atoms: N_13  and  C_14 
REMARK       I    between atoms: C_14  and  N_16 
REMARK   10  A    between atoms: N_16  and  C_17 
REMARK   11  A    between atoms: N_23  and  N_24 
REMARK       I    between atoms: N_24  and  C_25 
REMARK       I    between atoms: C_25  and  N_27 
REMARK   12  A    between atoms: N_27  and  C_28 
ROOT
ATOM      1  C   UNL d   1      30.409 -19.111  -6.187  0.00  0.00     0.000 C 
ENDROOT
BRANCH   1   2
ATOM      2  C   UNL d   1      30.146 -17.814  -5.420  0.00  0.00     0.000 C 
BRANCH   2   3
ATOM      3  C   UNL d   1      30.507 -16.586  -6.260  0.00  0.00     0.009 C 
BRANCH   3   4
ATOM      4  C   UNL d   1      30.089 -15.287  -5.558  0.00  0.00     0.104 C 
BRANCH   4   5
ATOM      5  C   UNL d   1      28.763 -14.756  -6.072  0.00  0.00     0.236 C 
ATOM      6  O   UNL d   1      28.645 -14.273  -7.199  0.00  0.00    -0.272 OA
ATOM      7  N   UNL d   1      27.673 -14.825  -5.237  0.00  0.00    -0.266 N 
ATOM      8  H   UNL d   1      26.787 -14.457  -5.596  0.00  0.00     0.190 HD
BRANCH   7   9
ATOM      9  N   UNL d   1      27.639 -15.327  -3.916  0.00  0.00    -0.249 N 
ATOM     10  C   UNL d   1      26.394 -15.651  -3.385  0.00  0.00     0.339 C 
ATOM     11  O   UNL d   1      25.365 -15.500  -4.057  0.00  0.00    -0.245 OA
ATOM     12  N   UNL d   1      26.426 -16.098  -2.074  0.00  0.00    -0.308 N 
ATOM     13  H   UNL d   1      27.279 -15.989  -1.544  0.00  0.00     0.170 HD
ATOM     14  H   UNL d   1      28.507 -15.475  -3.420  0.00  0.00     0.192 HD
BRANCH  12  15
ATOM     15  C   UNL d   1      25.287 -16.552  -1.352  0.00  0.00     0.036 A 
ATOM     16  C   UNL d   1      25.375 -17.678  -0.521  0.00  0.00     0.029 A 
ATOM     17  C   UNL d   1      24.228 -18.203   0.100  0.00  0.00     0.002 A 
ATOM     18  C   UNL d   1      22.990 -17.592  -0.083  0.00  0.00     0.000 A 
ATOM     19  C   UNL d   1      22.896 -16.466  -0.895  0.00  0.00     0.002 A 
ATOM     20  C   UNL d   1      24.037 -15.947  -1.517  0.00  0.00     0.029 A 
ENDBRANCH  12  15
ENDBRANCH   7   9
ENDBRANCH   4   5
ENDBRANCH   3   4
ENDBRANCH   2   3
ENDBRANCH   1   2
BRANCH   1  21
ATOM     21  C   UNL d   1      31.606 -19.869  -5.598  0.00  0.00     0.000 C 
BRANCH  21  22
ATOM     22  C   UNL d   1      31.935 -19.372  -4.186  0.00  0.00     0.009 C 
BRANCH  22  23
ATOM     23  C   UNL d   1      31.656 -20.416  -3.089  0.00  0.00     0.104 C 
BRANCH  23  24
ATOM     24  C   UNL d   1      31.289 -19.749  -1.753  0.00  0.00     0.236 C 
ATOM     25  O   UNL d   1      31.634 -20.208  -0.662  0.00  0.00    -0.272 OA
ATOM     26  N   UNL d   1      30.538 -18.590  -1.842  0.00  0.00    -0.266 N 
ATOM     27  H   UNL d   1      30.236 -18.161  -2.717  0.00  0.00     0.190 HD
BRANCH  26  28
ATOM     28  N   UNL d   1      30.164 -17.890  -0.644  0.00  0.00    -0.249 N 
ATOM     29  C   UNL d   1      29.473 -16.695  -0.770  0.00  0.00     0.339 C 
ATOM     30  O   UNL d   1      29.199 -16.263  -1.895  0.00  0.00    -0.245 OA
ATOM     31  N   UNL d   1      29.164 -16.047   0.424  0.00  0.00    -0.308 N 
ATOM     32  H   UNL d   1      29.628 -16.328   1.276  0.00  0.00     0.170 HD
ATOM     33  H   UNL d   1      30.407 -18.341   0.234  0.00  0.00     0.192 HD
BRANCH  31  34
ATOM     34  C   UNL d   1      28.422 -14.829   0.449  0.00  0.00     0.036 A 
ATOM     35  C   UNL d   1      27.413 -14.582   1.395  0.00  0.00     0.029 A 
ATOM     36  C   UNL d   1      26.717 -13.356   1.389  0.00  0.00     0.002 A 
ATOM     37  C   UNL d   1      27.028 -12.371   0.451  0.00  0.00     0.000 A 
ATOM     38  C   UNL d   1      27.994 -12.628  -0.513  0.00  0.00     0.002 A 
ATOM     39  C   UNL d   1      28.678 -13.846  -0.512  0.00  0.00     0.029 A 
ENDBRANCH  31  34
ENDBRANCH  26  28
ENDBRANCH  23  24
ENDBRANCH  22  23
ENDBRANCH  21  22
ENDBRANCH   1  21
TORSDOF 12
ENDMDL
MODEL 7
REMARK VINA RESULT:    -6.326      5.070      7.247
REMARK INTER + INTRA:         -15.337
REMARK INTER:                  -9.905
REMARK INTRA:                  -5.432
REMARK CONF_INDEPENDENT:        3.580
REMARK UNBOUND:                -5.432
REMARK  12 active torsions:
REMARK  status: ('A' for Active; 'I' for Inactive)
REMARK    1  A    between atoms: C_2  and  C_3 
REMARK       I    between atoms: C_2  and  N_23 
REMARK    2  A    between atoms: C_3  and  C_4 
REMARK    3  A    between atoms: C_4  and  C_5 
REMARK    4  A    between atoms: C_5  and  C_6 
REMARK    5  A    between atoms: C_6  and  C_7 
REMARK    6  A    between atoms: C_7  and  C_8 
REMARK    7  A    between atoms: C_8  and  C_9 
REMARK    8  A    between atoms: C_9  and  C_10 
REMARK       I    between atoms: C_10  and  N_12 
REMARK    9  A    between atoms: N_12  and  N_13 
REMARK       I    between atoms: N_13  and  C_14 
REMARK       I    between atoms: C_14  and  N_16 
REMARK   10  A    between atoms: N_16  and  C_17 
REMARK   11  A    between atoms: N_23  and  N_24 
REMARK       I    between atoms: N_24  and  C_25 
REMARK       I    between atoms: C_25  and  N_27 
REMARK   12  A    between atoms: N_27  and  C_28 
ROOT
ATOM      1  C   UNL d   1      30.270 -16.528  -6.451  0.00  0.00     0.000 C 
ENDROOT
BRANCH   1   2
ATOM      2  C   UNL d   1      31.142 -15.608  -7.309  0.00  0.00     0.000 C 
BRANCH   2   3
ATOM      3  C   UNL d   1      31.019 -14.149  -6.866  0.00  0.00     0.009 C 
BRANCH   3   4
ATOM      4  C   UNL d   1      30.055 -14.005  -5.681  0.00  0.00     0.104 C 
BRANCH   4   5
ATOM      5  C   UNL d   1      28.615 -13.827  -6.127  0.00  0.00     0.236 C 
ATOM      6  O   UNL d   1      28.320 -13.213  -7.154  0.00  0.00    -0.272 OA
ATOM      7  N   UNL d   1      27.626 -14.378  -5.348  0.00  0.00    -0.266 N 
ATOM      8  H   UNL d   1      26.659 -14.244  -5.659  0.00  0.00     0.190 HD
BRANCH   7   9
ATOM      9  N   UNL d   1      27.788 -15.091  -4.138  0.00  0.00    -0.249 N 
ATOM     10  C   UNL d   1      26.635 -15.531  -3.494  0.00  0.00     0.339 C 
ATOM     11  O   UNL d   1      25.519 -15.298  -3.974  0.00  0.00    -0.245 OA
ATOM     12  N   UNL d   1      26.862 -16.187  -2.295  0.00  0.00    -0.308 N 
ATOM     13  H   UNL d   1      27.784 -16.145  -1.884  0.00  0.00     0.170 HD
ATOM     14  H   UNL d   1      28.720 -15.297  -3.806  0.00  0.00     0.192 HD
BRANCH  12  15
ATOM     15  C   UNL d   1      25.842 -16.784  -1.501  0.00  0.00     0.036 A 
ATOM     16  C   UNL d   1      24.504 -16.396  -1.655  0.00  0.00     0.029 A 
ATOM     17  C   UNL d   1      23.510 -16.892  -0.793  0.00  0.00     0.002 A 
ATOM     18  C   UNL d   1      23.841 -17.800   0.211  0.00  0.00     0.000 A 
ATOM     19  C   UNL d   1      25.165 -18.201   0.360  0.00  0.00     0.002 A 
ATOM     20  C   UNL d   1      26.155 -17.702  -0.493  0.00  0.00     0.029 A 
ENDBRANCH  12  15
ENDBRANCH   7   9
ENDBRANCH   4   5
ENDBRANCH   3   4
ENDBRANCH   2   3
ENDBRANCH   1   2
BRANCH   1  21
ATOM     21  C   UNL d   1      30.777 -17.975  -6.500  0.00  0.00     0.000 C 
BRANCH  21  22
ATOM     22  C   UNL d   1      30.546 -18.687  -5.162  0.00  0.00     0.009 C 
BRANCH  22  23
ATOM     23  C   UNL d   1      31.338 -18.068  -3.995  0.00  0.00     0.104 C 
BRANCH  23  24
ATOM     24  C   UNL d   1      30.410 -17.633  -2.849  0.00  0.00     0.236 C 
ATOM     25  O   UNL d   1      29.256 -17.243  -3.038  0.00  0.00    -0.272 OA
ATOM     26  N   UNL d   1      30.947 -17.703  -1.575  0.00  0.00    -0.266 N 
ATOM     27  H   UNL d   1      31.890 -18.029  -1.362  0.00  0.00     0.190 HD
BRANCH  26  28
ATOM     28  N   UNL d   1      30.144 -17.332  -0.442  0.00  0.00    -0.249 N 
ATOM     29  C   UNL d   1      29.544 -16.083  -0.443  0.00  0.00     0.339 C 
ATOM     30  O   UNL d   1      29.712 -15.325  -1.404  0.00  0.00    -0.245 OA
ATOM     31  N   UNL d   1      28.803 -15.768   0.694  0.00  0.00    -0.308 N 
ATOM     32  H   UNL d   1      28.914 -16.326   1.529  0.00  0.00     0.170 HD
ATOM     33  H   UNL d   1      30.041 -18.036   0.284  0.00  0.00     0.192 HD
BRANCH  31  34
ATOM     34  C   UNL d   1      28.098 -14.533   0.815  0.00  0.00     0.036 A 
ATOM     35  C   UNL d   1      27.348 -13.989  -0.239  0.00  0.00     0.029 A 
ATOM     36  C   UNL d   1      26.656 -12.773  -0.066  0.00  0.00     0.002 A 
ATOM     37  C   UNL d   1      26.702 -12.101   1.156  0.00  0.00     0.000 A 
ATOM     38  C   UNL d   1      27.478 -12.614   2.188  0.00  0.00     0.002 A 
ATOM     39  C   UNL d   1      28.169 -13.815   2.013  0.00  0.00     0.029 A 
ENDBRANCH  31  34
ENDBRANCH  26  28
ENDBRANCH  23  24
ENDBRANCH  22  23
ENDBRANCH  21  22
ENDBRANCH   1  21
TORSDOF 12
ENDMDL
