MODEL 1
REMARK VINA RESULT:    -9.274      0.000      0.000
REMARK INTER + INTRA:         -14.708
REMARK INTER:                 -12.257
REMARK INTRA:                  -2.451
REMARK CONF_INDEPENDENT:        2.983
REMARK UNBOUND:                -2.451
REMARK  10 active torsions:
REMARK  status: ('A' for Active; 'I' for Inactive)
REMARK    1  A    between atoms: C_2  and  C_3 
REMARK       I    between atoms: C_2  and  N_14 
REMARK    2  A    between atoms: C_4  and  C_5 
REMARK    3  A    between atoms: C_8  and  N_9 
REMARK    4  A    between atoms: N_14  and  C_15 
REMARK    5  A    between atoms: C_15  and  N_17 
REMARK    6  A    between atoms: N_17  and  N_18 
REMARK       I    between atoms: N_18  and  C_19 
REMARK    7  A    between atoms: C_19  and  C_21 
REMARK    8  A    between atoms: C_21  and  O_22 
REMARK    9  A    between atoms: O_22  and  C_23 
REMARK   10  A    between atoms: C_28  and  C_29 
ROOT
ATOM      1  N   UNL d   1      30.735 -14.212   1.309  0.00  0.00    -0.273 N 
ATOM      2  H   UNL d   1      30.517 -13.445   0.672  0.00  0.00     0.189 HD
ENDROOT
BRANCH   1   3
ATOM      3  C   UNL d   1      31.689 -14.230   2.332  0.00  0.00     0.193 C 
ATOM      4  S   UNL d   1      33.229 -13.627   1.969  0.00  0.00    -0.039 SA
BRANCH   3   5
ATOM      5  N   UNL d   1      31.242 -14.764   3.568  0.00  0.00    -0.299 N 
ATOM      6  C   UNL d   1      30.194 -14.473   4.471  0.00  0.00     0.247 C 
ATOM      7  O   UNL d   1      30.028 -15.154   5.485  0.00  0.00    -0.268 OA
ATOM      8  H   UNL d   1      31.763 -15.559   3.923  0.00  0.00     0.171 HD
BRANCH   6   9
ATOM      9  C   UNL d   1      29.289 -13.342   4.160  0.00  0.00     0.075 C 
ATOM     10  C   UNL d   1      28.188 -13.305   3.398  0.00  0.00     0.017 C 
BRANCH  10  11
ATOM     11  C   UNL d   1      27.521 -12.004   3.137  0.00  0.00    -0.036 A 
ATOM     12  C   UNL d   1      27.087 -11.679   1.848  0.00  0.00     0.014 A 
ATOM     13  C   UNL d   1      26.636 -10.383   1.552  0.00  0.00     0.037 A 
ATOM     14  C   UNL d   1      26.528  -9.429   2.572  0.00  0.00     0.102 A 
ATOM     15  C   UNL d   1      26.909  -9.749   3.877  0.00  0.00     0.037 A 
ATOM     16  C   UNL d   1      27.405 -11.027   4.149  0.00  0.00     0.014 A 
BRANCH  14  17
ATOM     17  N   UNL d   1      25.971  -8.100   2.283  0.00  0.00    -0.116 N 
ATOM     18  O   UNL d   1      25.155  -8.006   1.356  0.00  0.00    -0.532 OA
ATOM     19  O   UNL d   1      26.336  -7.153   2.996  0.00  0.00    -0.532 OA
ENDBRANCH  14  17
ENDBRANCH  10  11
ENDBRANCH   6   9
ENDBRANCH   3   5
ENDBRANCH   1   3
BRANCH   1  20
ATOM     20  N   UNL d   1      29.998 -15.426   1.095  0.00  0.00    -0.266 N 
ATOM     21  C   UNL d   1      28.855 -15.484   0.328  0.00  0.00     0.260 C 
ATOM     22  O   UNL d   1      28.368 -14.469  -0.177  0.00  0.00    -0.269 OA
ATOM     23  H   UNL d   1      30.367 -16.244   1.585  0.00  0.00     0.190 HD
BRANCH  21  24
ATOM     24  C   UNL d   1      28.254 -16.903   0.212  0.00  0.00     0.280 C 
BRANCH  24  25
ATOM     25  O   UNL d   1      27.396 -17.006  -0.924  0.00  0.00    -0.341 OA
BRANCH  25  26
ATOM     26  C   UNL d   1      26.029 -16.982  -0.774  0.00  0.00     0.080 A 
ATOM     27  C   UNL d   1      25.514 -18.001   0.042  0.00  0.00     0.037 A 
ATOM     28  C   UNL d   1      24.132 -18.200   0.179  0.00  0.00     0.003 A 
ATOM     29  C   UNL d   1      23.239 -17.351  -0.459  0.00  0.00     0.001 A 
ATOM     30  C   UNL d   1      23.735 -16.339  -1.270  0.00  0.00     0.015 A 
ATOM     31  C   UNL d   1      25.124 -16.147  -1.454  0.00  0.00     0.007 A 
BRANCH  31  32
ATOM     32  C   UNL d   1      25.526 -15.111  -2.395  0.00  0.00    -0.023 A 
ATOM     33  C   UNL d   1      25.905 -13.848  -1.918  0.00  0.00     0.012 A 
ATOM     34  C   UNL d   1      26.266 -12.846  -2.809  0.00  0.00     0.001 A 
ATOM     35  C   UNL d   1      26.364 -13.132  -4.170  0.00  0.00     0.000 A 
ATOM     36  C   UNL d   1      26.046 -14.401  -4.653  0.00  0.00     0.001 A 
ATOM     37  C   UNL d   1      25.586 -15.374  -3.774  0.00  0.00     0.012 A 
ENDBRANCH  31  32
ENDBRANCH  25  26
ENDBRANCH  24  25
ENDBRANCH  21  24
ENDBRANCH   1  20
TORSDOF 10
ENDMDL
MODEL 2
REMARK VINA RESULT:    -9.271      0.919      2.980
REMARK INTER + INTRA:         -14.650
REMARK INTER:                 -12.254
REMARK INTRA:                  -2.396
REMARK CONF_INDEPENDENT:        2.983
REMARK UNBOUND:                -2.396
REMARK  10 active torsions:
REMARK  status: ('A' for Active; 'I' for Inactive)
REMARK    1  A    between atoms: C_2  and  C_3 
REMARK       I    between atoms: C_2  and  N_14 
REMARK    2  A    between atoms: C_4  and  C_5 
REMARK    3  A    between atoms: C_8  and  N_9 
REMARK    4  A    between atoms: N_14  and  C_15 
REMARK    5  A    between atoms: C_15  and  N_17 
REMARK    6  A    between atoms: N_17  and  N_18 
REMARK       I    between atoms: N_18  and  C_19 
REMARK    7  A    between atoms: C_19  and  C_21 
REMARK    8  A    between atoms: C_21  and  O_22 
REMARK    9  A    between atoms: O_22  and  C_23 
REMARK   10  A    between atoms: C_28  and  C_29 
ROOT
ATOM      1  N   UNL d   1      31.443 -14.600   1.583  0.00  0.00    -0.273 N 
ATOM      2  H   UNL d   1      32.088 -14.695   0.798  0.00  0.00     0.189 HD
ENDROOT
BRANCH   1   3
ATOM      3  C   UNL d   1      31.692 -14.016   2.830  0.00  0.00     0.193 C 
ATOM      4  S   UNL d   1      32.686 -12.646   2.862  0.00  0.00    -0.039 SA
BRANCH   3   5
ATOM      5  N   UNL d   1      31.073 -14.657   3.934  0.00  0.00    -0.299 N 
ATOM      6  C   UNL d   1      29.919 -14.426   4.716  0.00  0.00     0.247 C 
ATOM      7  O   UNL d   1      29.605 -15.199   5.622  0.00  0.00    -0.268 OA
ATOM      8  H   UNL d   1      31.527 -15.501   4.270  0.00  0.00     0.171 HD
BRANCH   6   9
ATOM      9  C   UNL d   1      29.084 -13.241   4.407  0.00  0.00     0.075 C 
ATOM     10  C   UNL d   1      27.953 -13.146   3.695  0.00  0.00     0.017 C 
BRANCH  10  11
ATOM     11  C   UNL d   1      27.371 -11.808   3.420  0.00  0.00    -0.036 A 
ATOM     12  C   UNL d   1      26.666 -11.575   2.235  0.00  0.00     0.014 A 
ATOM     13  C   UNL d   1      26.283 -10.273   1.876  0.00  0.00     0.037 A 
ATOM     14  C   UNL d   1      26.522  -9.206   2.752  0.00  0.00     0.102 A 
ATOM     15  C   UNL d   1      27.180  -9.426   3.963  0.00  0.00     0.037 A 
ATOM     16  C   UNL d   1      27.603 -10.718   4.286  0.00  0.00     0.014 A 
BRANCH  14  17
ATOM     17  N   UNL d   1      26.042  -7.858   2.419  0.00  0.00    -0.116 N 
ATOM     18  O   UNL d   1      25.409  -7.715   1.364  0.00  0.00    -0.532 OA
ATOM     19  O   UNL d   1      26.281  -6.944   3.224  0.00  0.00    -0.532 OA
ENDBRANCH  14  17
ENDBRANCH  10  11
ENDBRANCH   6   9
ENDBRANCH   3   5
ENDBRANCH   1   3
BRANCH   1  20
ATOM     20  N   UNL d   1      30.141 -15.174   1.391  0.00  0.00    -0.266 N 
ATOM     21  C   UNL d   1      29.065 -14.453   0.920  0.00  0.00     0.260 C 
ATOM     22  O   UNL d   1      29.154 -13.244   0.688  0.00  0.00    -0.269 OA
ATOM     23  H   UNL d   1      30.061 -16.157   1.664  0.00  0.00     0.190 HD
BRANCH  21  24
ATOM     24  C   UNL d   1      27.776 -15.290   0.762  0.00  0.00     0.280 C 
BRANCH  24  25
ATOM     25  O   UNL d   1      26.684 -14.476   0.334  0.00  0.00    -0.341 OA
BRANCH  25  26
ATOM     26  C   UNL d   1      26.375 -14.364  -1.001  0.00  0.00     0.080 A 
ATOM     27  C   UNL d   1      26.889 -13.216  -1.625  0.00  0.00     0.037 A 
ATOM     28  C   UNL d   1      26.544 -12.883  -2.943  0.00  0.00     0.003 A 
ATOM     29  C   UNL d   1      25.717 -13.720  -3.679  0.00  0.00     0.001 A 
ATOM     30  C   UNL d   1      25.200 -14.858  -3.075  0.00  0.00     0.015 A 
ATOM     31  C   UNL d   1      25.503 -15.189  -1.733  0.00  0.00     0.007 A 
BRANCH  31  32
ATOM     32  C   UNL d   1      24.834 -16.358  -1.178  0.00  0.00    -0.023 A 
ATOM     33  C   UNL d   1      25.598 -17.410  -0.650  0.00  0.00     0.012 A 
ATOM     34  C   UNL d   1      24.970 -18.539  -0.140  0.00  0.00     0.001 A 
ATOM     35  C   UNL d   1      23.579 -18.576  -0.047  0.00  0.00     0.000 A 
ATOM     36  C   UNL d   1      22.809 -17.512  -0.516  0.00  0.00     0.001 A 
ATOM     37  C   UNL d   1      23.432 -16.426  -1.119  0.00  0.00     0.012 A 
ENDBRANCH  31  32
ENDBRANCH  25  26
ENDBRANCH  24  25
ENDBRANCH  21  24
ENDBRANCH   1  20
TORSDOF 10
ENDMDL
MODEL 3
REMARK VINA RESULT:    -8.674      3.993      6.776
REMARK INTER + INTRA:         -14.399
REMARK INTER:                 -11.657
REMARK INTRA:                  -2.742
REMARK CONF_INDEPENDENT:        2.983
REMARK UNBOUND:                -2.742
REMARK  10 active torsions:
REMARK  status: ('A' for Active; 'I' for Inactive)
REMARK    1  A    between atoms: C_2  and  C_3 
REMARK       I    between atoms: C_2  and  N_14 
REMARK    2  A    between atoms: C_4  and  C_5 
REMARK    3  A    between atoms: C_8  and  N_9 
REMARK    4  A    between atoms: N_14  and  C_15 
REMARK    5  A    between atoms: C_15  and  N_17 
REMARK    6  A    between atoms: N_17  and  N_18 
REMARK       I    between atoms: N_18  and  C_19 
REMARK    7  A    between atoms: C_19  and  C_21 
REMARK    8  A    between atoms: C_21  and  O_22 
REMARK    9  A    between atoms: O_22  and  C_23 
REMARK   10  A    between atoms: C_28  and  C_29 
ROOT
ATOM      1  N   UNL d   1      25.537 -11.840  -4.836  0.00  0.00    -0.273 N 
ATOM      2  H   UNL d   1      24.695 -11.720  -4.271  0.00  0.00     0.189 HD
ENDROOT
BRANCH   1   3
ATOM      3  C   UNL d   1      26.133 -10.908  -5.692  0.00  0.00     0.193 C 
ATOM      4  S   UNL d   1      27.735 -11.196  -6.159  0.00  0.00    -0.039 SA
BRANCH   3   5
ATOM      5  N   UNL d   1      25.309  -9.816  -6.067  0.00  0.00    -0.299 N 
ATOM      6  C   UNL d   1      24.798  -8.669  -5.419  0.00  0.00     0.247 C 
ATOM      7  O   UNL d   1      24.110  -7.851  -6.032  0.00  0.00    -0.268 OA
ATOM      8  H   UNL d   1      24.998  -9.806  -7.034  0.00  0.00     0.171 HD
BRANCH   6   9
ATOM      9  C   UNL d   1      25.124  -8.465  -3.987  0.00  0.00     0.075 C 
ATOM     10  C   UNL d   1      26.270  -8.679  -3.326  0.00  0.00     0.017 C 
BRANCH  10  11
ATOM     11  C   UNL d   1      26.306  -8.516  -1.851  0.00  0.00    -0.036 A 
ATOM     12  C   UNL d   1      27.127  -9.335  -1.070  0.00  0.00     0.014 A 
ATOM     13  C   UNL d   1      27.023  -9.323   0.330  0.00  0.00     0.037 A 
ATOM     14  C   UNL d   1      26.160  -8.418   0.961  0.00  0.00     0.102 A 
ATOM     15  C   UNL d   1      25.368  -7.556   0.200  0.00  0.00     0.037 A 
ATOM     16  C   UNL d   1      25.441  -7.614  -1.195  0.00  0.00     0.014 A 
BRANCH  14  17
ATOM     17  N   UNL d   1      26.116  -8.341   2.427  0.00  0.00    -0.116 N 
ATOM     18  O   UNL d   1      26.648  -7.363   2.970  0.00  0.00    -0.532 OA
ATOM     19  O   UNL d   1      25.532  -9.250   3.037  0.00  0.00    -0.532 OA
ENDBRANCH  14  17
ENDBRANCH  10  11
ENDBRANCH   6   9
ENDBRANCH   3   5
ENDBRANCH   1   3
BRANCH   1  20
ATOM     20  N   UNL d   1      26.149 -13.137  -4.770  0.00  0.00    -0.266 N 
ATOM     21  C   UNL d   1      25.494 -14.254  -4.298  0.00  0.00     0.260 C 
ATOM     22  O   UNL d   1      24.346 -14.183  -3.850  0.00  0.00    -0.269 OA
ATOM     23  H   UNL d   1      27.127 -13.165  -5.069  0.00  0.00     0.190 HD
BRANCH  21  24
ATOM     24  C   UNL d   1      26.342 -15.544  -4.355  0.00  0.00     0.280 C 
BRANCH  24  25
ATOM     25  O   UNL d   1      27.176 -15.662  -3.201  0.00  0.00    -0.341 OA
BRANCH  25  26
ATOM     26  C   UNL d   1      27.010 -14.819  -2.128  0.00  0.00     0.080 A 
ATOM     27  C   UNL d   1      27.802 -13.660  -2.169  0.00  0.00     0.037 A 
ATOM     28  C   UNL d   1      27.856 -12.772  -1.085  0.00  0.00     0.003 A 
ATOM     29  C   UNL d   1      27.079 -13.001   0.042  0.00  0.00     0.001 A 
ATOM     30  C   UNL d   1      26.291 -14.143   0.097  0.00  0.00     0.015 A 
ATOM     31  C   UNL d   1      26.255 -15.072  -0.970  0.00  0.00     0.007 A 
BRANCH  31  32
ATOM     32  C   UNL d   1      25.462 -16.277  -0.765  0.00  0.00    -0.023 A 
ATOM     33  C   UNL d   1      26.058 -17.412  -0.197  0.00  0.00     0.012 A 
ATOM     34  C   UNL d   1      25.316 -18.573  -0.019  0.00  0.00     0.001 A 
ATOM     35  C   UNL d   1      23.950 -18.572  -0.299  0.00  0.00     0.000 A 
ATOM     36  C   UNL d   1      23.332 -17.432  -0.810  0.00  0.00     0.001 A 
ATOM     37  C   UNL d   1      24.094 -16.302  -1.084  0.00  0.00     0.012 A 
ENDBRANCH  31  32
ENDBRANCH  25  26
ENDBRANCH  24  25
ENDBRANCH  21  24
ENDBRANCH   1  20
TORSDOF 10
ENDMDL
MODEL 4
REMARK VINA RESULT:    -8.484      4.411      7.681
REMARK INTER + INTRA:         -14.909
REMARK INTER:                 -11.467
REMARK INTRA:                  -3.441
REMARK CONF_INDEPENDENT:        2.983
REMARK UNBOUND:                -3.441
REMARK  10 active torsions:
REMARK  status: ('A' for Active; 'I' for Inactive)
REMARK    1  A    between atoms: C_2  and  C_3 
REMARK       I    between atoms: C_2  and  N_14 
REMARK    2  A    between atoms: C_4  and  C_5 
REMARK    3  A    between atoms: C_8  and  N_9 
REMARK    4  A    between atoms: N_14  and  C_15 
REMARK    5  A    between atoms: C_15  and  N_17 
REMARK    6  A    between atoms: N_17  and  N_18 
REMARK       I    between atoms: N_18  and  C_19 
REMARK    7  A    between atoms: C_19  and  C_21 
REMARK    8  A    between atoms: C_21  and  O_22 
REMARK    9  A    between atoms: O_22  and  C_23 
REMARK   10  A    between atoms: C_28  and  C_29 
ROOT
ATOM      1  N   UNL d   1      27.190 -14.476  -1.434  0.00  0.00    -0.273 N 
ATOM      2  H   UNL d   1      26.342 -14.325  -0.887  0.00  0.00     0.189 HD
ENDROOT
BRANCH   1   3
ATOM      3  C   UNL d   1      28.512 -14.479  -0.980  0.00  0.00     0.193 C 
ATOM      4  S   UNL d   1      29.253 -12.976  -0.733  0.00  0.00    -0.039 SA
BRANCH   3   5
ATOM      5  N   UNL d   1      29.082 -15.763  -0.781  0.00  0.00    -0.299 N 
ATOM      6  C   UNL d   1      28.589 -17.086  -0.722  0.00  0.00     0.247 C 
ATOM      7  O   UNL d   1      29.355 -18.038  -0.562  0.00  0.00    -0.268 OA
ATOM      8  H   UNL d   1      30.090 -15.788  -0.661  0.00  0.00     0.171 HD
BRANCH   6   9
ATOM      9  C   UNL d   1      27.131 -17.303  -0.875  0.00  0.00     0.075 C 
ATOM     10  C   UNL d   1      26.143 -17.184   0.022  0.00  0.00     0.017 C 
BRANCH  10  11
ATOM     11  C   UNL d   1      24.764 -17.587  -0.349  0.00  0.00    -0.036 A 
ATOM     12  C   UNL d   1      23.817 -16.620  -0.702  0.00  0.00     0.014 A 
ATOM     13  C   UNL d   1      22.467 -16.968  -0.863  0.00  0.00     0.037 A 
ATOM     14  C   UNL d   1      22.072 -18.309  -0.764  0.00  0.00     0.102 A 
ATOM     15  C   UNL d   1      23.011 -19.297  -0.462  0.00  0.00     0.037 A 
ATOM     16  C   UNL d   1      24.344 -18.931  -0.252  0.00  0.00     0.014 A 
BRANCH  14  17
ATOM     17  N   UNL d   1      20.676 -18.688  -1.022  0.00  0.00    -0.116 N 
ATOM     18  O   UNL d   1      20.439 -19.876  -1.276  0.00  0.00    -0.532 OA
ATOM     19  O   UNL d   1      19.813 -17.799  -0.949  0.00  0.00    -0.532 OA
ENDBRANCH  14  17
ENDBRANCH  10  11
ENDBRANCH   6   9
ENDBRANCH   3   5
ENDBRANCH   1   3
BRANCH   1  20
ATOM     20  N   UNL d   1      26.993 -14.666  -2.844  0.00  0.00    -0.266 N 
ATOM     21  C   UNL d   1      25.746 -14.753  -3.423  0.00  0.00     0.260 C 
ATOM     22  O   UNL d   1      24.718 -14.724  -2.740  0.00  0.00    -0.269 OA
ATOM     23  H   UNL d   1      27.854 -14.770  -3.387  0.00  0.00     0.190 HD
BRANCH  21  24
ATOM     24  C   UNL d   1      25.782 -14.922  -4.958  0.00  0.00     0.280 C 
BRANCH  24  25
ATOM     25  O   UNL d   1      27.043 -15.436  -5.389  0.00  0.00    -0.341 OA
BRANCH  25  26
ATOM     26  C   UNL d   1      28.128 -14.604  -5.522  0.00  0.00     0.080 A 
ATOM     27  C   UNL d   1      27.813 -13.286  -5.888  0.00  0.00     0.037 A 
ATOM     28  C   UNL d   1      28.812 -12.354  -6.203  0.00  0.00     0.003 A 
ATOM     29  C   UNL d   1      30.150 -12.710  -6.110  0.00  0.00     0.001 A 
ATOM     30  C   UNL d   1      30.478 -14.011  -5.751  0.00  0.00     0.015 A 
ATOM     31  C   UNL d   1      29.483 -14.976  -5.469  0.00  0.00     0.007 A 
BRANCH  31  32
ATOM     32  C   UNL d   1      29.943 -16.330  -5.189  0.00  0.00    -0.023 A 
ATOM     33  C   UNL d   1      30.293 -17.177  -6.250  0.00  0.00     0.012 A 
ATOM     34  C   UNL d   1      30.709 -18.478  -5.995  0.00  0.00     0.001 A 
ATOM     35  C   UNL d   1      30.889 -18.902  -4.679  0.00  0.00     0.000 A 
ATOM     36  C   UNL d   1      30.599 -18.050  -3.614  0.00  0.00     0.001 A 
ATOM     37  C   UNL d   1      30.086 -16.784  -3.867  0.00  0.00     0.012 A 
ENDBRANCH  31  32
ENDBRANCH  25  26
ENDBRANCH  24  25
ENDBRANCH  21  24
ENDBRANCH   1  20
TORSDOF 10
ENDMDL
MODEL 5
REMARK VINA RESULT:    -8.458      4.439      7.535
REMARK INTER + INTRA:         -14.796
REMARK INTER:                 -11.441
REMARK INTRA:                  -3.355
REMARK CONF_INDEPENDENT:        2.983
REMARK UNBOUND:                -3.355
REMARK  10 active torsions:
REMARK  status: ('A' for Active; 'I' for Inactive)
REMARK    1  A    between atoms: C_2  and  C_3 
REMARK       I    between atoms: C_2  and  N_14 
REMARK    2  A    between atoms: C_4  and  C_5 
REMARK    3  A    between atoms: C_8  and  N_9 
REMARK    4  A    between atoms: N_14  and  C_15 
REMARK    5  A    between atoms: C_15  and  N_17 
REMARK    6  A    between atoms: N_17  and  N_18 
REMARK       I    between atoms: N_18  and  C_19 
REMARK    7  A    between atoms: C_19  and  C_21 
REMARK    8  A    between atoms: C_21  and  O_22 
REMARK    9  A    between atoms: O_22  and  C_23 
REMARK   10  A    between atoms: C_28  and  C_29 
ROOT
ATOM      1  N   UNL d   1      26.252 -13.758  -1.956  0.00  0.00    -0.273 N 
ATOM      2  H   UNL d   1      25.405 -13.189  -1.961  0.00  0.00     0.189 HD
ENDROOT
BRANCH   1   3
ATOM      3  C   UNL d   1      27.291 -13.739  -1.020  0.00  0.00     0.193 C 
ATOM      4  S   UNL d   1      27.396 -12.389  -0.004  0.00  0.00    -0.039 SA
BRANCH   3   5
ATOM      5  N   UNL d   1      28.146 -14.871  -1.040  0.00  0.00    -0.299 N 
ATOM      6  C   UNL d   1      27.962 -16.272  -1.053  0.00  0.00     0.247 C 
ATOM      7  O   UNL d   1      28.928 -17.035  -1.104  0.00  0.00    -0.268 OA
ATOM      8  H   UNL d   1      29.142 -14.676  -1.066  0.00  0.00     0.171 HD
BRANCH   6   9
ATOM      9  C   UNL d   1      26.578 -16.802  -1.022  0.00  0.00     0.075 C 
ATOM     10  C   UNL d   1      25.520 -16.408  -0.301  0.00  0.00     0.017 C 
BRANCH  10  11
ATOM     11  C   UNL d   1      24.262 -17.193  -0.356  0.00  0.00    -0.036 A 
ATOM     12  C   UNL d   1      24.286 -18.579  -0.176  0.00  0.00     0.014 A 
ATOM     13  C   UNL d   1      23.139 -19.352  -0.419  0.00  0.00     0.037 A 
ATOM     14  C   UNL d   1      21.931 -18.725  -0.753  0.00  0.00     0.102 A 
ATOM     15  C   UNL d   1      21.874 -17.337  -0.889  0.00  0.00     0.037 A 
ATOM     16  C   UNL d   1      23.035 -16.584  -0.696  0.00  0.00     0.014 A 
BRANCH  14  17
ATOM     17  N   UNL d   1      20.708 -19.523  -0.920  0.00  0.00    -0.116 N 
ATOM     18  O   UNL d   1      20.159 -19.956   0.102  0.00  0.00    -0.532 OA
ATOM     19  O   UNL d   1      20.286 -19.700  -2.073  0.00  0.00    -0.532 OA
ENDBRANCH  14  17
ENDBRANCH  10  11
ENDBRANCH   6   9
ENDBRANCH   3   5
ENDBRANCH   1   3
BRANCH   1  20
ATOM     20  N   UNL d   1      26.406 -14.653  -3.070  0.00  0.00    -0.266 N 
ATOM     21  C   UNL d   1      25.514 -14.705  -4.119  0.00  0.00     0.260 C 
ATOM     22  O   UNL d   1      24.492 -14.012  -4.128  0.00  0.00    -0.269 OA
ATOM     23  H   UNL d   1      27.213 -15.278  -3.009  0.00  0.00     0.190 HD
BRANCH  21  24
ATOM     24  C   UNL d   1      25.904 -15.718  -5.218  0.00  0.00     0.280 C 
BRANCH  24  25
ATOM     25  O   UNL d   1      27.001 -15.237  -5.995  0.00  0.00    -0.341 OA
BRANCH  25  26
ATOM     26  C   UNL d   1      28.142 -14.776  -5.384  0.00  0.00     0.080 A 
ATOM     27  C   UNL d   1      28.966 -15.781  -4.851  0.00  0.00     0.037 A 
ATOM     28  C   UNL d   1      30.090 -15.469  -4.073  0.00  0.00     0.003 A 
ATOM     29  C   UNL d   1      30.441 -14.145  -3.854  0.00  0.00     0.001 A 
ATOM     30  C   UNL d   1      29.635 -13.140  -4.374  0.00  0.00     0.015 A 
ATOM     31  C   UNL d   1      28.474 -13.434  -5.127  0.00  0.00     0.007 A 
BRANCH  31  32
ATOM     32  C   UNL d   1      27.658 -12.302  -5.546  0.00  0.00    -0.023 A 
ATOM     33  C   UNL d   1      27.763 -11.819  -6.858  0.00  0.00     0.012 A 
ATOM     34  C   UNL d   1      27.008 -10.725  -7.260  0.00  0.00     0.001 A 
ATOM     35  C   UNL d   1      26.061 -10.181  -6.393  0.00  0.00     0.000 A 
ATOM     36  C   UNL d   1      25.905 -10.689  -5.104  0.00  0.00     0.001 A 
ATOM     37  C   UNL d   1      26.732 -11.717  -4.667  0.00  0.00     0.012 A 
ENDBRANCH  31  32
ENDBRANCH  25  26
ENDBRANCH  24  25
ENDBRANCH  21  24
ENDBRANCH   1  20
TORSDOF 10
ENDMDL
MODEL 6
REMARK VINA RESULT:    -8.439      0.954      1.158
REMARK INTER + INTRA:         -14.698
REMARK INTER:                 -11.422
REMARK INTRA:                  -3.276
REMARK CONF_INDEPENDENT:        2.983
REMARK UNBOUND:                -3.276
REMARK  10 active torsions:
REMARK  status: ('A' for Active; 'I' for Inactive)
REMARK    1  A    between atoms: C_2  and  C_3 
REMARK       I    between atoms: C_2  and  N_14 
REMARK    2  A    between atoms: C_4  and  C_5 
REMARK    3  A    between atoms: C_8  and  N_9 
REMARK    4  A    between atoms: N_14  and  C_15 
REMARK    5  A    between atoms: C_15  and  N_17 
REMARK    6  A    between atoms: N_17  and  N_18 
REMARK       I    between atoms: N_18  and  C_19 
REMARK    7  A    between atoms: C_19  and  C_21 
REMARK    8  A    between atoms: C_21  and  O_22 
REMARK    9  A    between atoms: O_22  and  C_23 
REMARK   10  A    between atoms: C_28  and  C_29 
ROOT
ATOM      1  N   UNL d   1      30.341 -14.246   1.200  0.00  0.00    -0.273 N 
ATOM      2  H   UNL d   1      30.473 -13.603   0.420  0.00  0.00     0.189 HD
ENDROOT
BRANCH   1   3
ATOM      3  C   UNL d   1      30.942 -14.195   2.462  0.00  0.00     0.193 C 
ATOM      4  S   UNL d   1      32.435 -13.406   2.581  0.00  0.00    -0.039 SA
BRANCH   3   5
ATOM      5  N   UNL d   1      30.215 -14.825   3.505  0.00  0.00    -0.299 N 
ATOM      6  C   UNL d   1      29.036 -14.536   4.228  0.00  0.00     0.247 C 
ATOM      7  O   UNL d   1      28.616 -15.314   5.087  0.00  0.00    -0.268 OA
ATOM      8  H   UNL d   1      30.589 -15.709   3.836  0.00  0.00     0.171 HD
BRANCH   6   9
ATOM      9  C   UNL d   1      28.306 -13.285   3.916  0.00  0.00     0.075 C 
ATOM     10  C   UNL d   1      27.859 -12.819   2.742  0.00  0.00     0.017 C 
BRANCH  10  11
ATOM     11  C   UNL d   1      27.263 -11.461   2.671  0.00  0.00    -0.036 A 
ATOM     12  C   UNL d   1      26.691 -11.002   1.481  0.00  0.00     0.014 A 
ATOM     13  C   UNL d   1      26.304  -9.659   1.346  0.00  0.00     0.037 A 
ATOM     14  C   UNL d   1      26.401  -8.789   2.440  0.00  0.00     0.102 A 
ATOM     15  C   UNL d   1      26.923  -9.241   3.653  0.00  0.00     0.037 A 
ATOM     16  C   UNL d   1      27.353 -10.566   3.759  0.00  0.00     0.014 A 
BRANCH  14  17
ATOM     17  N   UNL d   1      25.912  -7.408   2.328  0.00  0.00    -0.116 N 
ATOM     18  O   UNL d   1      26.296  -6.590   3.175  0.00  0.00    -0.532 OA
ATOM     19  O   UNL d   1      25.159  -7.135   1.380  0.00  0.00    -0.532 OA
ENDBRANCH  14  17
ENDBRANCH  10  11
ENDBRANCH   6   9
ENDBRANCH   3   5
ENDBRANCH   1   3
BRANCH   1  20
ATOM     20  N   UNL d   1      29.465 -15.357   0.949  0.00  0.00    -0.266 N 
ATOM     21  C   UNL d   1      29.352 -15.959  -0.285  0.00  0.00     0.260 C 
ATOM     22  O   UNL d   1      29.967 -15.532  -1.266  0.00  0.00    -0.269 OA
ATOM     23  H   UNL d   1      28.901 -15.648   1.751  0.00  0.00     0.190 HD
BRANCH  21  24
ATOM     24  C   UNL d   1      28.374 -17.155  -0.307  0.00  0.00     0.280 C 
BRANCH  24  25
ATOM     25  O   UNL d   1      27.274 -16.936   0.576  0.00  0.00    -0.341 OA
BRANCH  25  26
ATOM     26  C   UNL d   1      25.981 -17.073   0.130  0.00  0.00     0.080 A 
ATOM     27  C   UNL d   1      25.317 -18.216   0.603  0.00  0.00     0.037 A 
ATOM     28  C   UNL d   1      24.047 -18.574   0.129  0.00  0.00     0.003 A 
ATOM     29  C   UNL d   1      23.395 -17.768  -0.793  0.00  0.00     0.001 A 
ATOM     30  C   UNL d   1      24.038 -16.635  -1.271  0.00  0.00     0.015 A 
ATOM     31  C   UNL d   1      25.337 -16.278  -0.836  0.00  0.00     0.007 A 
BRANCH  31  32
ATOM     32  C   UNL d   1      25.948 -15.118  -1.471  0.00  0.00    -0.023 A 
ATOM     33  C   UNL d   1      26.501 -14.103  -0.678  0.00  0.00     0.012 A 
ATOM     34  C   UNL d   1      27.064 -12.982  -1.274  0.00  0.00     0.001 A 
ATOM     35  C   UNL d   1      27.183 -12.922  -2.662  0.00  0.00     0.000 A 
ATOM     36  C   UNL d   1      26.689 -13.952  -3.461  0.00  0.00     0.001 A 
ATOM     37  C   UNL d   1      26.034 -15.026  -2.871  0.00  0.00     0.012 A 
ENDBRANCH  31  32
ENDBRANCH  25  26
ENDBRANCH  24  25
ENDBRANCH  21  24
ENDBRANCH   1  20
TORSDOF 10
ENDMDL
MODEL 7
REMARK VINA RESULT:    -8.358      1.976      3.539
REMARK INTER + INTRA:         -14.319
REMARK INTER:                 -11.341
REMARK INTRA:                  -2.978
REMARK CONF_INDEPENDENT:        2.983
REMARK UNBOUND:                -2.978
REMARK  10 active torsions:
REMARK  status: ('A' for Active; 'I' for Inactive)
REMARK    1  A    between atoms: C_2  and  C_3 
REMARK       I    between atoms: C_2  and  N_14 
REMARK    2  A    between atoms: C_4  and  C_5 
REMARK    3  A    between atoms: C_8  and  N_9 
REMARK    4  A    between atoms: N_14  and  C_15 
REMARK    5  A    between atoms: C_15  and  N_17 
REMARK    6  A    between atoms: N_17  and  N_18 
REMARK       I    between atoms: N_18  and  C_19 
REMARK    7  A    between atoms: C_19  and  C_21 
REMARK    8  A    between atoms: C_21  and  O_22 
REMARK    9  A    between atoms: O_22  and  C_23 
REMARK   10  A    between atoms: C_28  and  C_29 
ROOT
ATOM      1  N   UNL d   1      28.970 -15.573   0.990  0.00  0.00    -0.273 N 
ATOM      2  H   UNL d   1      29.838 -15.969   1.352  0.00  0.00     0.189 HD
ENDROOT
BRANCH   1   3
ATOM      3  C   UNL d   1      27.991 -14.868   1.698  0.00  0.00     0.193 C 
ATOM      4  S   UNL d   1      26.774 -14.111   0.797  0.00  0.00    -0.039 SA
BRANCH   3   5
ATOM      5  N   UNL d   1      28.143 -14.871   3.109  0.00  0.00    -0.299 N 
ATOM      6  C   UNL d   1      27.922 -13.939   4.148  0.00  0.00     0.247 C 
ATOM      7  O   UNL d   1      28.120 -14.247   5.325  0.00  0.00    -0.268 OA
ATOM      8  H   UNL d   1      28.475 -15.739   3.518  0.00  0.00     0.171 HD
BRANCH   6   9
ATOM      9  C   UNL d   1      27.427 -12.589   3.791  0.00  0.00     0.075 C 
ATOM     10  C   UNL d   1      27.945 -11.674   2.960  0.00  0.00     0.017 C 
BRANCH  10  11
ATOM     11  C   UNL d   1      27.321 -10.330   2.870  0.00  0.00    -0.036 A 
ATOM     12  C   UNL d   1      26.283 -10.092   1.964  0.00  0.00     0.014 A 
ATOM     13  C   UNL d   1      25.822  -8.786   1.732  0.00  0.00     0.037 A 
ATOM     14  C   UNL d   1      26.336  -7.719   2.480  0.00  0.00     0.102 A 
ATOM     15  C   UNL d   1      27.339  -7.942   3.426  0.00  0.00     0.037 A 
ATOM     16  C   UNL d   1      27.826  -9.239   3.610  0.00  0.00     0.014 A 
BRANCH  14  17
ATOM     17  N   UNL d   1      25.792  -6.366   2.303  0.00  0.00    -0.116 N 
ATOM     18  O   UNL d   1      24.948  -6.195   1.413  0.00  0.00    -0.532 OA
ATOM     19  O   UNL d   1      26.195  -5.476   3.069  0.00  0.00    -0.532 OA
ENDBRANCH  14  17
ENDBRANCH  10  11
ENDBRANCH   6   9
ENDBRANCH   3   5
ENDBRANCH   1   3
BRANCH   1  20
ATOM     20  N   UNL d   1      28.711 -15.810  -0.402  0.00  0.00    -0.266 N 
ATOM     21  C   UNL d   1      29.682 -15.702  -1.374  0.00  0.00     0.260 C 
ATOM     22  O   UNL d   1      30.828 -15.337  -1.099  0.00  0.00    -0.269 OA
ATOM     23  H   UNL d   1      27.738 -16.032  -0.626  0.00  0.00     0.190 HD
BRANCH  21  24
ATOM     24  C   UNL d   1      29.179 -16.038  -2.797  0.00  0.00     0.280 C 
BRANCH  24  25
ATOM     25  O   UNL d   1      27.811 -16.446  -2.775  0.00  0.00    -0.341 OA
BRANCH  25  26
ATOM     26  C   UNL d   1      26.813 -15.570  -3.129  0.00  0.00     0.080 A 
ATOM     27  C   UNL d   1      27.205 -14.575  -4.039  0.00  0.00     0.037 A 
ATOM     28  C   UNL d   1      26.347 -13.523  -4.388  0.00  0.00     0.003 A 
ATOM     29  C   UNL d   1      25.060 -13.473  -3.871  0.00  0.00     0.001 A 
ATOM     30  C   UNL d   1      24.658 -14.449  -2.969  0.00  0.00     0.015 A 
ATOM     31  C   UNL d   1      25.524 -15.496  -2.573  0.00  0.00     0.007 A 
BRANCH  31  32
ATOM     32  C   UNL d   1      25.025 -16.411  -1.555  0.00  0.00    -0.023 A 
ATOM     33  C   UNL d   1      23.653 -16.451  -1.270  0.00  0.00     0.012 A 
ATOM     34  C   UNL d   1      23.171 -17.303  -0.284  0.00  0.00     0.001 A 
ATOM     35  C   UNL d   1      24.036 -18.201   0.339  0.00  0.00     0.000 A 
ATOM     36  C   UNL d   1      25.394 -18.212   0.024  0.00  0.00     0.001 A 
ATOM     37  C   UNL d   1      25.895 -17.290  -0.888  0.00  0.00     0.012 A 
ENDBRANCH  31  32
ENDBRANCH  25  26
ENDBRANCH  24  25
ENDBRANCH  21  24
ENDBRANCH   1  20
TORSDOF 10
ENDMDL
MODEL 8
REMARK VINA RESULT:    -7.668      3.835      7.353
REMARK INTER + INTRA:         -14.746
REMARK INTER:                 -10.651
REMARK INTRA:                  -4.095
REMARK CONF_INDEPENDENT:        2.983
REMARK UNBOUND:                -4.095
REMARK  10 active torsions:
REMARK  status: ('A' for Active; 'I' for Inactive)
REMARK    1  A    between atoms: C_2  and  C_3 
REMARK       I    between atoms: C_2  and  N_14 
REMARK    2  A    between atoms: C_4  and  C_5 
REMARK    3  A    between atoms: C_8  and  N_9 
REMARK    4  A    between atoms: N_14  and  C_15 
REMARK    5  A    between atoms: C_15  and  N_17 
REMARK    6  A    between atoms: N_17  and  N_18 
REMARK       I    between atoms: N_18  and  C_19 
REMARK    7  A    between atoms: C_19  and  C_21 
REMARK    8  A    between atoms: C_21  and  O_22 
REMARK    9  A    between atoms: O_22  and  C_23 
REMARK   10  A    between atoms: C_28  and  C_29 
ROOT
ATOM      1  N   UNL d   1      27.445 -12.910  -0.735  0.00  0.00    -0.273 N 
ATOM      2  H   UNL d   1      26.643 -12.284  -0.657  0.00  0.00     0.189 HD
ENDROOT
BRANCH   1   3
ATOM      3  C   UNL d   1      27.753 -14.011   0.070  0.00  0.00     0.193 C 
ATOM      4  S   UNL d   1      27.324 -13.922   1.706  0.00  0.00    -0.039 SA
BRANCH   3   5
ATOM      5  N   UNL d   1      28.401 -15.085  -0.593  0.00  0.00    -0.299 N 
ATOM      6  C   UNL d   1      27.993 -16.315  -1.156  0.00  0.00     0.247 C 
ATOM      7  O   UNL d   1      28.805 -17.055  -1.714  0.00  0.00    -0.268 OA
ATOM      8  H   UNL d   1      29.401 -14.982  -0.733  0.00  0.00     0.171 HD
BRANCH   6   9
ATOM      9  C   UNL d   1      26.560 -16.687  -1.075  0.00  0.00     0.075 C 
ATOM     10  C   UNL d   1      25.819 -17.033  -0.014  0.00  0.00     0.017 C 
BRANCH  10  11
ATOM     11  C   UNL d   1      24.421 -17.491  -0.214  0.00  0.00    -0.036 A 
ATOM     12  C   UNL d   1      24.113 -18.854  -0.183  0.00  0.00     0.014 A 
ATOM     13  C   UNL d   1      22.840 -19.308  -0.563  0.00  0.00     0.037 A 
ATOM     14  C   UNL d   1      21.836 -18.386  -0.888  0.00  0.00     0.102 A 
ATOM     15  C   UNL d   1      22.109 -17.017  -0.877  0.00  0.00     0.037 A 
ATOM     16  C   UNL d   1      23.395 -16.580  -0.547  0.00  0.00     0.014 A 
BRANCH  14  17
ATOM     17  N   UNL d   1      20.478 -18.855  -1.198  0.00  0.00    -0.116 N 
ATOM     18  O   UNL d   1      19.530 -18.117  -0.895  0.00  0.00    -0.532 OA
ATOM     19  O   UNL d   1      20.361 -19.953  -1.765  0.00  0.00    -0.532 OA
ENDBRANCH  14  17
ENDBRANCH  10  11
ENDBRANCH   6   9
ENDBRANCH   3   5
ENDBRANCH   1   3
BRANCH   1  20
ATOM     20  N   UNL d   1      28.385 -12.589  -1.772  0.00  0.00    -0.266 N 
ATOM     21  C   UNL d   1      29.749 -12.675  -1.602  0.00  0.00     0.260 C 
ATOM     22  O   UNL d   1      30.242 -12.986  -0.513  0.00  0.00    -0.269 OA
ATOM     23  H   UNL d   1      27.965 -12.254  -2.643  0.00  0.00     0.190 HD
BRANCH  21  24
ATOM     24  C   UNL d   1      30.560 -12.313  -2.867  0.00  0.00     0.280 C 
BRANCH  24  25
ATOM     25  O   UNL d   1      29.730 -12.322  -4.028  0.00  0.00    -0.341 OA
BRANCH  25  26
ATOM     26  C   UNL d   1      29.735 -13.397  -4.884  0.00  0.00     0.080 A 
ATOM     27  C   UNL d   1      30.940 -13.583  -5.581  0.00  0.00     0.037 A 
ATOM     28  C   UNL d   1      31.059 -14.545  -6.594  0.00  0.00     0.003 A 
ATOM     29  C   UNL d   1      29.988 -15.374  -6.896  0.00  0.00     0.001 A 
ATOM     30  C   UNL d   1      28.790 -15.202  -6.217  0.00  0.00     0.015 A 
ATOM     31  C   UNL d   1      28.637 -14.209  -5.219  0.00  0.00     0.007 A 
BRANCH  31  32
ATOM     32  C   UNL d   1      27.310 -14.062  -4.636  0.00  0.00    -0.023 A 
ATOM     33  C   UNL d   1      26.685 -15.168  -4.045  0.00  0.00     0.012 A 
ATOM     34  C   UNL d   1      25.410 -15.044  -3.508  0.00  0.00     0.001 A 
ATOM     35  C   UNL d   1      24.801 -13.791  -3.453  0.00  0.00     0.000 A 
ATOM     36  C   UNL d   1      25.437 -12.670  -3.986  0.00  0.00     0.001 A 
ATOM     37  C   UNL d   1      26.668 -12.812  -4.615  0.00  0.00     0.012 A 
ENDBRANCH  31  32
ENDBRANCH  25  26
ENDBRANCH  24  25
ENDBRANCH  21  24
ENDBRANCH   1  20
TORSDOF 10
ENDMDL
MODEL 9
REMARK VINA RESULT:    -6.873      2.747      5.890
REMARK INTER + INTRA:         -14.331
REMARK INTER:                  -9.856
REMARK INTRA:                  -4.475
REMARK CONF_INDEPENDENT:        2.983
REMARK UNBOUND:                -4.475
REMARK  10 active torsions:
REMARK  status: ('A' for Active; 'I' for Inactive)
REMARK    1  A    between atoms: C_2  and  C_3 
REMARK       I    between atoms: C_2  and  N_14 
REMARK    2  A    between atoms: C_4  and  C_5 
REMARK    3  A    between atoms: C_8  and  N_9 
REMARK    4  A    between atoms: N_14  and  C_15 
REMARK    5  A    between atoms: C_15  and  N_17 
REMARK    6  A    between atoms: N_17  and  N_18 
REMARK       I    between atoms: N_18  and  C_19 
REMARK    7  A    between atoms: C_19  and  C_21 
REMARK    8  A    between atoms: C_21  and  O_22 
REMARK    9  A    between atoms: O_22  and  C_23 
REMARK   10  A    between atoms: C_28  and  C_29 
ROOT
ATOM      1  N   UNL d   1      28.857 -14.796   2.905  0.00  0.00    -0.273 N 
ATOM      2  H   UNL d   1      28.494 -15.713   3.169  0.00  0.00     0.189 HD
ENDROOT
BRANCH   1   3
ATOM      3  C   UNL d   1      29.849 -14.050   3.550  0.00  0.00     0.193 C 
ATOM      4  S   UNL d   1      29.339 -12.843   4.622  0.00  0.00    -0.039 SA
BRANCH   3   5
ATOM      5  N   UNL d   1      31.183 -14.401   3.219  0.00  0.00    -0.299 N 
ATOM      6  C   UNL d   1      31.869 -14.752   2.035  0.00  0.00     0.247 C 
ATOM      7  O   UNL d   1      33.079 -14.983   2.050  0.00  0.00    -0.268 OA
ATOM      8  H   UNL d   1      31.846 -14.400   3.988  0.00  0.00     0.171 HD
BRANCH   6   9
ATOM      9  C   UNL d   1      31.101 -14.819   0.769  0.00  0.00     0.075 C 
ATOM     10  C   UNL d   1      30.646 -15.882   0.092  0.00  0.00     0.017 C 
BRANCH  10  11
ATOM     11  C   UNL d   1      30.007 -15.689  -1.234  0.00  0.00    -0.036 A 
ATOM     12  C   UNL d   1      29.480 -16.781  -1.930  0.00  0.00     0.014 A 
ATOM     13  C   UNL d   1      29.053 -16.642  -3.260  0.00  0.00     0.037 A 
ATOM     14  C   UNL d   1      29.065 -15.381  -3.871  0.00  0.00     0.102 A 
ATOM     15  C   UNL d   1      29.541 -14.268  -3.176  0.00  0.00     0.037 A 
ATOM     16  C   UNL d   1      30.012 -14.429  -1.870  0.00  0.00     0.014 A 
BRANCH  14  17
ATOM     17  N   UNL d   1      28.534 -15.217  -5.231  0.00  0.00    -0.116 N 
ATOM     18  O   UNL d   1      27.368 -15.574  -5.443  0.00  0.00    -0.532 OA
ATOM     19  O   UNL d   1      29.280 -14.710  -6.085  0.00  0.00    -0.532 OA
ENDBRANCH  14  17
ENDBRANCH  10  11
ENDBRANCH   6   9
ENDBRANCH   3   5
ENDBRANCH   1   3
BRANCH   1  20
ATOM     20  N   UNL d   1      28.242 -14.192   1.757  0.00  0.00    -0.266 N 
ATOM     21  C   UNL d   1      27.127 -13.385   1.841  0.00  0.00     0.260 C 
ATOM     22  O   UNL d   1      26.561 -13.183   2.918  0.00  0.00    -0.269 OA
ATOM     23  H   UNL d   1      28.673 -14.433   0.861  0.00  0.00     0.190 HD
BRANCH  21  24
ATOM     24  C   UNL d   1      26.664 -12.819   0.479  0.00  0.00     0.280 C 
BRANCH  24  25
ATOM     25  O   UNL d   1      27.306 -13.494  -0.603  0.00  0.00    -0.341 OA
BRANCH  25  26
ATOM     26  C   UNL d   1      26.644 -13.701  -1.790  0.00  0.00     0.080 A 
ATOM     27  C   UNL d   1      26.642 -12.598  -2.657  0.00  0.00     0.037 A 
ATOM     28  C   UNL d   1      25.890 -12.599  -3.841  0.00  0.00     0.003 A 
ATOM     29  C   UNL d   1      25.165 -13.725  -4.205  0.00  0.00     0.001 A 
ATOM     30  C   UNL d   1      25.157 -14.823  -3.356  0.00  0.00     0.015 A 
ATOM     31  C   UNL d   1      25.875 -14.826  -2.137  0.00  0.00     0.007 A 
BRANCH  31  32
ATOM     32  C   UNL d   1      25.722 -15.999  -1.287  0.00  0.00    -0.023 A 
ATOM     33  C   UNL d   1      26.767 -16.378  -0.433  0.00  0.00     0.012 A 
ATOM     34  C   UNL d   1      26.640 -17.509   0.364  0.00  0.00     0.001 A 
ATOM     35  C   UNL d   1      25.428 -18.199   0.400  0.00  0.00     0.000 A 
ATOM     36  C   UNL d   1      24.361 -17.797  -0.402  0.00  0.00     0.001 A 
ATOM     37  C   UNL d   1      24.521 -16.729  -1.275  0.00  0.00     0.012 A 
ENDBRANCH  31  32
ENDBRANCH  25  26
ENDBRANCH  24  25
ENDBRANCH  21  24
ENDBRANCH   1  20
TORSDOF 10
ENDMDL
