MODEL 1
REMARK VINA RESULT:   -10.681      0.000      0.000
REMARK INTER + INTRA:         -14.813
REMARK INTER:                 -13.067
REMARK INTRA:                  -1.745
REMARK CONF_INDEPENDENT:        2.386
REMARK UNBOUND:                -1.745
REMARK  8 active torsions:
REMARK  status: ('A' for Active; 'I' for Inactive)
REMARK    1  A    between atoms: C_2  and  O_3 
REMARK    2  A    between atoms: O_3  and  C_4 
REMARK    3  A    between atoms: C_7  and  N_8 
REMARK       I    between atoms: N_8  and  C_9 
REMARK       I    between atoms: C_9  and  N_22 
REMARK       I    between atoms: N_10  and  C_11 
REMARK    4  A    between atoms: C_11  and  C_13 
REMARK    5  A    between atoms: C_17  and  N_18 
REMARK    6  A    between atoms: N_22  and  C_23 
REMARK    7  A    between atoms: C_23  and  C_24 
REMARK    8  A    between atoms: C_24  and  C_25 
ROOT
ATOM      1  N   UNL d   1      26.272 -17.140   0.286  0.00  0.00    -0.190 N 
ATOM      2  C   UNL d   1      27.263 -16.208  -0.093  0.00  0.00     0.704 C 
ATOM      3  N   UNL d   1      27.267 -15.291  -1.024  0.00  0.00    -0.023 NA
ATOM      4  C   UNL d   1      26.496 -15.521  -2.132  0.00  0.00     0.294 C 
ATOM      5  O   UNL d   1      26.497 -16.575  -2.729  0.00  0.00    -0.265 OA
ATOM      6  N   UNL d   1      28.461 -16.251   0.639  0.00  0.00    -0.224 N 
ATOM      7  H   UNL d   1      26.575 -17.934   0.831  0.00  0.00     0.184 HD
ATOM      8  H   UNL d   1      28.693 -17.088   1.159  0.00  0.00     0.177 HD
ENDROOT
BRANCH   1   9
ATOM      9  C   UNL d   1      24.948 -17.312  -0.243  0.00  0.00     0.049 C 
ATOM     10  C   UNL d   1      24.036 -16.298  -0.520  0.00  0.00     0.033 C 
ATOM     11  C   UNL d   1      22.652 -16.595  -0.757  0.00  0.00     0.039 C 
ATOM     12  C   UNL d   1      22.144 -17.889  -0.613  0.00  0.00     0.068 C 
ATOM     13  C   UNL d   1      23.063 -18.874  -0.407  0.00  0.00     0.039 C 
ATOM     14  C   UNL d   1      24.425 -18.559  -0.508  0.00  0.00     0.033 C 
BRANCH  12  15
ATOM     15  O   UNL d   1      20.834 -18.153  -0.894  0.00  0.00    -0.352 OA
BRANCH  15  16
ATOM     16  C   UNL d   1      20.393 -19.517  -0.774  0.00  0.00     0.171 C 
ATOM     17  C   UNL d   1      19.918 -19.745   0.653  0.00  0.00     0.034 C 
ENDBRANCH  15  16
ENDBRANCH  12  15
ENDBRANCH   1   9
BRANCH   6  18
ATOM     18  C   UNL d   1      29.603 -15.408   0.192  0.00  0.00     0.142 C 
BRANCH  18  19
ATOM     19  C   UNL d   1      29.597 -13.983   0.737  0.00  0.00     0.057 C 
BRANCH  19  20
ATOM     20  C   UNL d   1      30.053 -13.776   2.164  0.00  0.00    -0.048 A 
ATOM     21  C   UNL d   1      29.185 -13.886   3.175  0.00  0.00    -0.006 A 
ATOM     22  C   UNL d   1      27.800 -14.190   3.177  0.00  0.00     0.014 A 
ATOM     23  C   UNL d   1      29.916 -13.563   4.407  0.00  0.00     0.038 A 
ATOM     24  C   UNL d   1      27.127 -14.074   4.326  0.00  0.00     0.001 A 
ATOM     25  C   UNL d   1      27.812 -13.777   5.575  0.00  0.00     0.002 A 
ATOM     26  C   UNL d   1      29.136 -13.532   5.664  0.00  0.00     0.030 A 
ATOM     27  N   UNL d   1      31.154 -13.341   4.171  0.00  0.00    -0.385 N 
ATOM     28  C   UNL d   1      31.416 -13.401   2.695  0.00  0.00     0.155 A 
ATOM     29  H   UNL d   1      31.829 -13.154   4.914  0.00  0.00     0.160 HD
ENDBRANCH  19  20
ENDBRANCH  18  19
ENDBRANCH   6  18
BRANCH   4  30
ATOM     30  C   UNL d   1      25.915 -14.334  -2.833  0.00  0.00     0.036 A 
ATOM     31  C   UNL d   1      25.226 -14.200  -4.048  0.00  0.00     0.017 A 
ATOM     32  C   UNL d   1      25.155 -12.950  -4.651  0.00  0.00     0.003 A 
ATOM     33  C   UNL d   1      25.661 -11.836  -3.981  0.00  0.00     0.029 A 
ATOM     34  C   UNL d   1      26.333 -11.945  -2.753  0.00  0.00     0.030 A 
ATOM     35  C   UNL d   1      26.444 -13.220  -2.235  0.00  0.00     0.046 A 
BRANCH  34  36
ATOM     36  N   UNL d   1      26.897 -10.897  -2.065  0.00  0.00    -0.390 N 
ATOM     37  C   UNL d   1      27.743 -11.111  -0.908  0.00  0.00     0.149 C 
ATOM     38  C   UNL d   1      26.654  -9.498  -2.424  0.00  0.00     0.149 C 
ENDBRANCH  34  36
ENDBRANCH   4  30
TORSDOF 8
ENDMDL
MODEL 2
REMARK VINA RESULT:    -9.998      2.263      2.922
REMARK INTER + INTRA:         -13.806
REMARK INTER:                 -12.385
REMARK INTRA:                  -1.421
REMARK CONF_INDEPENDENT:        2.386
REMARK UNBOUND:                -1.421
REMARK  8 active torsions:
REMARK  status: ('A' for Active; 'I' for Inactive)
REMARK    1  A    between atoms: C_2  and  O_3 
REMARK    2  A    between atoms: O_3  and  C_4 
REMARK    3  A    between atoms: C_7  and  N_8 
REMARK       I    between atoms: N_8  and  C_9 
REMARK       I    between atoms: C_9  and  N_22 
REMARK       I    between atoms: N_10  and  C_11 
REMARK    4  A    between atoms: C_11  and  C_13 
REMARK    5  A    between atoms: C_17  and  N_18 
REMARK    6  A    between atoms: N_22  and  C_23 
REMARK    7  A    between atoms: C_23  and  C_24 
REMARK    8  A    between atoms: C_24  and  C_25 
ROOT
ATOM      1  N   UNL d   1      26.757 -16.467   0.851  0.00  0.00    -0.190 N 
ATOM      2  C   UNL d   1      27.817 -15.616   0.463  0.00  0.00     0.704 C 
ATOM      3  N   UNL d   1      28.149 -15.140  -0.707  0.00  0.00    -0.023 NA
ATOM      4  C   UNL d   1      27.825 -15.893  -1.804  0.00  0.00     0.294 C 
ATOM      5  O   UNL d   1      28.042 -17.083  -1.875  0.00  0.00    -0.265 OA
ATOM      6  N   UNL d   1      28.674 -15.193   1.491  0.00  0.00    -0.224 N 
ATOM      7  H   UNL d   1      26.849 -16.933   1.741  0.00  0.00     0.184 HD
ATOM      8  H   UNL d   1      28.708 -15.719   2.356  0.00  0.00     0.177 HD
ENDROOT
BRANCH   1   9
ATOM      9  C   UNL d   1      25.709 -17.025   0.043  0.00  0.00     0.049 C 
ATOM     10  C   UNL d   1      24.860 -16.321  -0.804  0.00  0.00     0.033 C 
ATOM     11  C   UNL d   1      23.669 -16.927  -1.326  0.00  0.00     0.039 C 
ATOM     12  C   UNL d   1      23.256 -18.200  -0.922  0.00  0.00     0.068 C 
ATOM     13  C   UNL d   1      24.133 -18.896  -0.146  0.00  0.00     0.039 C 
ATOM     14  C   UNL d   1      25.417 -18.372   0.059  0.00  0.00     0.033 C 
BRANCH  12  15
ATOM     15  O   UNL d   1      22.145 -18.774  -1.473  0.00  0.00    -0.352 OA
BRANCH  15  16
ATOM     16  C   UNL d   1      21.170 -19.326  -0.572  0.00  0.00     0.171 C 
ATOM     17  C   UNL d   1      19.818 -19.329  -1.269  0.00  0.00     0.034 C 
ENDBRANCH  15  16
ENDBRANCH  12  15
ENDBRANCH   1   9
BRANCH   6  18
ATOM     18  C   UNL d   1      29.898 -14.427   1.131  0.00  0.00     0.142 C 
BRANCH  18  19
ATOM     19  C   UNL d   1      30.611 -13.772   2.310  0.00  0.00     0.057 C 
BRANCH  19  20
ATOM     20  C   UNL d   1      30.057 -14.028   3.695  0.00  0.00    -0.048 A 
ATOM     21  C   UNL d   1      29.257 -13.132   4.280  0.00  0.00    -0.006 A 
ATOM     22  C   UNL d   1      28.776 -11.879   3.820  0.00  0.00     0.014 A 
ATOM     23  C   UNL d   1      28.953 -13.639   5.624  0.00  0.00     0.038 A 
ATOM     24  C   UNL d   1      28.115 -11.099   4.680  0.00  0.00     0.001 A 
ATOM     25  C   UNL d   1      27.773 -11.567   6.014  0.00  0.00     0.002 A 
ATOM     26  C   UNL d   1      28.144 -12.769   6.506  0.00  0.00     0.030 A 
ATOM     27  N   UNL d   1      29.473 -14.793   5.817  0.00  0.00    -0.385 N 
ATOM     28  C   UNL d   1      30.294 -15.192   4.626  0.00  0.00     0.155 A 
ATOM     29  H   UNL d   1      29.322 -15.326   6.674  0.00  0.00     0.160 HD
ENDBRANCH  19  20
ENDBRANCH  18  19
ENDBRANCH   6  18
BRANCH   4  30
ATOM     30  C   UNL d   1      27.529 -15.171  -3.081  0.00  0.00     0.036 A 
ATOM     31  C   UNL d   1      26.363 -14.568  -3.574  0.00  0.00     0.017 A 
ATOM     32  C   UNL d   1      26.250 -14.328  -4.939  0.00  0.00     0.003 A 
ATOM     33  C   UNL d   1      27.342 -14.578  -5.770  0.00  0.00     0.029 A 
ATOM     34  C   UNL d   1      28.527 -15.158  -5.293  0.00  0.00     0.030 A 
ATOM     35  C   UNL d   1      28.558 -15.449  -3.943  0.00  0.00     0.046 A 
BRANCH  34  36
ATOM     36  N   UNL d   1      29.619 -15.476  -6.066  0.00  0.00    -0.390 N 
ATOM     37  C   UNL d   1      30.355 -16.710  -5.877  0.00  0.00     0.149 C 
ATOM     38  C   UNL d   1      30.139 -14.578  -7.100  0.00  0.00     0.149 C 
ENDBRANCH  34  36
ENDBRANCH   4  30
TORSDOF 8
ENDMDL
MODEL 3
REMARK VINA RESULT:    -9.839      1.928      2.452
REMARK INTER + INTRA:         -13.902
REMARK INTER:                 -12.225
REMARK INTRA:                  -1.677
REMARK CONF_INDEPENDENT:        2.386
REMARK UNBOUND:                -1.677
REMARK  8 active torsions:
REMARK  status: ('A' for Active; 'I' for Inactive)
REMARK    1  A    between atoms: C_2  and  O_3 
REMARK    2  A    between atoms: O_3  and  C_4 
REMARK    3  A    between atoms: C_7  and  N_8 
REMARK       I    between atoms: N_8  and  C_9 
REMARK       I    between atoms: C_9  and  N_22 
REMARK       I    between atoms: N_10  and  C_11 
REMARK    4  A    between atoms: C_11  and  C_13 
REMARK    5  A    between atoms: C_17  and  N_18 
REMARK    6  A    between atoms: N_22  and  C_23 
REMARK    7  A    between atoms: C_23  and  C_24 
REMARK    8  A    between atoms: C_24  and  C_25 
ROOT
ATOM      1  N   UNL d   1      27.389 -16.629   0.595  0.00  0.00    -0.190 N 
ATOM      2  C   UNL d   1      28.342 -15.676   0.168  0.00  0.00     0.704 C 
ATOM      3  N   UNL d   1      28.342 -14.862  -0.853  0.00  0.00    -0.023 NA
ATOM      4  C   UNL d   1      27.651 -15.256  -1.968  0.00  0.00     0.294 C 
ATOM      5  O   UNL d   1      27.751 -16.364  -2.449  0.00  0.00    -0.265 OA
ATOM      6  N   UNL d   1      29.496 -15.563   0.960  0.00  0.00    -0.224 N 
ATOM      7  H   UNL d   1      27.710 -17.341   1.235  0.00  0.00     0.184 HD
ATOM      8  H   UNL d   1      29.750 -16.325   1.578  0.00  0.00     0.177 HD
ENDROOT
BRANCH   1   9
ATOM      9  C   UNL d   1      26.111 -16.943   0.021  0.00  0.00     0.049 C 
ATOM     10  C   UNL d   1      25.234 -16.042  -0.576  0.00  0.00     0.033 C 
ATOM     11  C   UNL d   1      23.872 -16.404  -0.841  0.00  0.00     0.039 C 
ATOM     12  C   UNL d   1      23.340 -17.625  -0.416  0.00  0.00     0.068 C 
ATOM     13  C   UNL d   1      24.229 -18.516   0.107  0.00  0.00     0.039 C 
ATOM     14  C   UNL d   1      25.598 -18.222   0.039  0.00  0.00     0.033 C 
BRANCH  12  15
ATOM     15  O   UNL d   1      22.054 -17.965  -0.726  0.00  0.00    -0.352 OA
BRANCH  15  16
ATOM     16  C   UNL d   1      21.652 -19.324  -0.479  0.00  0.00     0.171 C 
ATOM     17  C   UNL d   1      20.136 -19.404  -0.587  0.00  0.00     0.034 C 
ENDBRANCH  15  16
ENDBRANCH  12  15
ENDBRANCH   1   9
BRANCH   6  18
ATOM     18  C   UNL d   1      30.607 -14.696   0.484  0.00  0.00     0.142 C 
BRANCH  18  19
ATOM     19  C   UNL d   1      30.564 -13.261   1.000  0.00  0.00     0.057 C 
BRANCH  19  20
ATOM     20  C   UNL d   1      29.366 -12.849   1.827  0.00  0.00    -0.048 A 
ATOM     21  C   UNL d   1      29.162 -13.382   3.036  0.00  0.00    -0.006 A 
ATOM     22  C   UNL d   1      29.914 -14.338   3.766  0.00  0.00     0.014 A 
ATOM     23  C   UNL d   1      27.897 -12.834   3.540  0.00  0.00     0.038 A 
ATOM     24  C   UNL d   1      29.395 -14.824   4.897  0.00  0.00     0.001 A 
ATOM     25  C   UNL d   1      28.155 -14.297   5.446  0.00  0.00     0.002 A 
ATOM     26  C   UNL d   1      27.411 -13.347   4.841  0.00  0.00     0.030 A 
ATOM     27  N   UNL d   1      27.402 -11.977   2.728  0.00  0.00    -0.385 N 
ATOM     28  C   UNL d   1      28.246 -11.894   1.491  0.00  0.00     0.155 A 
ATOM     29  H   UNL d   1      26.553 -11.451   2.936  0.00  0.00     0.160 HD
ENDBRANCH  19  20
ENDBRANCH  18  19
ENDBRANCH   6  18
BRANCH   4  30
ATOM     30  C   UNL d   1      27.038 -14.190  -2.819  0.00  0.00     0.036 A 
ATOM     31  C   UNL d   1      25.840 -13.469  -2.711  0.00  0.00     0.017 A 
ATOM     32  C   UNL d   1      25.326 -12.837  -3.838  0.00  0.00     0.003 A 
ATOM     33  C   UNL d   1      26.070 -12.829  -5.018  0.00  0.00     0.029 A 
ATOM     34  C   UNL d   1      27.284 -13.524  -5.140  0.00  0.00     0.030 A 
ATOM     35  C   UNL d   1      27.711 -14.200  -4.014  0.00  0.00     0.046 A 
BRANCH  34  36
ATOM     36  N   UNL d   1      28.040 -13.598  -6.286  0.00  0.00    -0.390 N 
ATOM     37  C   UNL d   1      28.815 -14.778  -6.614  0.00  0.00     0.149 C 
ATOM     38  C   UNL d   1      28.149 -12.483  -7.230  0.00  0.00     0.149 C 
ENDBRANCH  34  36
ENDBRANCH   4  30
TORSDOF 8
ENDMDL
MODEL 4
REMARK VINA RESULT:    -9.284      2.318      4.309
REMARK INTER + INTRA:         -14.615
REMARK INTER:                 -11.671
REMARK INTRA:                  -2.944
REMARK CONF_INDEPENDENT:        2.386
REMARK UNBOUND:                -2.944
REMARK  8 active torsions:
REMARK  status: ('A' for Active; 'I' for Inactive)
REMARK    1  A    between atoms: C_2  and  O_3 
REMARK    2  A    between atoms: O_3  and  C_4 
REMARK    3  A    between atoms: C_7  and  N_8 
REMARK       I    between atoms: N_8  and  C_9 
REMARK       I    between atoms: C_9  and  N_22 
REMARK       I    between atoms: N_10  and  C_11 
REMARK    4  A    between atoms: C_11  and  C_13 
REMARK    5  A    between atoms: C_17  and  N_18 
REMARK    6  A    between atoms: N_22  and  C_23 
REMARK    7  A    between atoms: C_23  and  C_24 
REMARK    8  A    between atoms: C_24  and  C_25 
ROOT
ATOM      1  N   UNL d   1      26.283 -17.142   0.294  0.00  0.00    -0.190 N 
ATOM      2  C   UNL d   1      27.270 -16.203  -0.081  0.00  0.00     0.704 C 
ATOM      3  N   UNL d   1      27.271 -15.285  -1.010  0.00  0.00    -0.023 NA
ATOM      4  C   UNL d   1      26.506 -15.518  -2.122  0.00  0.00     0.294 C 
ATOM      5  O   UNL d   1      26.515 -16.571  -2.720  0.00  0.00    -0.265 OA
ATOM      6  N   UNL d   1      28.465 -16.240   0.655  0.00  0.00    -0.224 N 
ATOM      7  H   UNL d   1      26.590 -17.935   0.838  0.00  0.00     0.184 HD
ATOM      8  H   UNL d   1      28.701 -17.076   1.175  0.00  0.00     0.177 HD
ENDROOT
BRANCH   1   9
ATOM      9  C   UNL d   1      24.962 -17.321  -0.240  0.00  0.00     0.049 C 
ATOM     10  C   UNL d   1      24.062 -16.310  -0.564  0.00  0.00     0.033 C 
ATOM     11  C   UNL d   1      22.678 -16.602  -0.802  0.00  0.00     0.039 C 
ATOM     12  C   UNL d   1      22.156 -17.885  -0.613  0.00  0.00     0.068 C 
ATOM     13  C   UNL d   1      23.063 -18.870  -0.361  0.00  0.00     0.039 C 
ATOM     14  C   UNL d   1      24.429 -18.572  -0.463  0.00  0.00     0.033 C 
BRANCH  12  15
ATOM     15  O   UNL d   1      20.845 -18.147  -0.896  0.00  0.00    -0.352 OA
BRANCH  15  16
ATOM     16  C   UNL d   1      20.429 -19.523  -0.886  0.00  0.00     0.171 C 
ATOM     17  C   UNL d   1      19.565 -19.756   0.344  0.00  0.00     0.034 C 
ENDBRANCH  15  16
ENDBRANCH  12  15
ENDBRANCH   1   9
BRANCH   6  18
ATOM     18  C   UNL d   1      29.604 -15.389   0.214  0.00  0.00     0.142 C 
BRANCH  18  19
ATOM     19  C   UNL d   1      30.692 -16.128  -0.558  0.00  0.00     0.057 C 
BRANCH  19  20
ATOM     20  C   UNL d   1      30.382 -16.549  -1.978  0.00  0.00    -0.048 A 
ATOM     21  C   UNL d   1      29.988 -15.646  -2.881  0.00  0.00    -0.006 A 
ATOM     22  C   UNL d   1      29.788 -14.247  -2.766  0.00  0.00     0.014 A 
ATOM     23  C   UNL d   1      29.704 -16.376  -4.124  0.00  0.00     0.038 A 
ATOM     24  C   UNL d   1      29.227 -13.599  -3.791  0.00  0.00     0.001 A 
ATOM     25  C   UNL d   1      28.948 -14.275  -5.049  0.00  0.00     0.002 A 
ATOM     26  C   UNL d   1      29.163 -15.591  -5.256  0.00  0.00     0.030 A 
ATOM     27  N   UNL d   1      29.973 -17.621  -4.006  0.00  0.00    -0.385 N 
ATOM     28  C   UNL d   1      30.405 -17.924  -2.602  0.00  0.00     0.155 A 
ATOM     29  H   UNL d   1      29.891 -18.276  -4.785  0.00  0.00     0.160 HD
ENDBRANCH  19  20
ENDBRANCH  18  19
ENDBRANCH   6  18
BRANCH   4  30
ATOM     30  C   UNL d   1      25.919 -14.334  -2.823  0.00  0.00     0.036 A 
ATOM     31  C   UNL d   1      25.231 -14.203  -4.038  0.00  0.00     0.017 A 
ATOM     32  C   UNL d   1      25.154 -12.952  -4.641  0.00  0.00     0.003 A 
ATOM     33  C   UNL d   1      25.655 -11.837  -3.970  0.00  0.00     0.029 A 
ATOM     34  C   UNL d   1      26.326 -11.942  -2.742  0.00  0.00     0.030 A 
ATOM     35  C   UNL d   1      26.443 -13.217  -2.224  0.00  0.00     0.046 A 
BRANCH  34  36
ATOM     36  N   UNL d   1      26.886 -10.892  -2.054  0.00  0.00    -0.390 N 
ATOM     37  C   UNL d   1      26.653  -9.515  -2.443  0.00  0.00     0.149 C 
ATOM     38  C   UNL d   1      27.784 -11.087  -0.914  0.00  0.00     0.149 C 
ENDBRANCH  34  36
ENDBRANCH   4  30
TORSDOF 8
ENDMDL
MODEL 5
REMARK VINA RESULT:    -9.229      2.305      4.315
REMARK INTER + INTRA:         -14.682
REMARK INTER:                 -11.615
REMARK INTRA:                  -3.067
REMARK CONF_INDEPENDENT:        2.386
REMARK UNBOUND:                -3.067
REMARK  8 active torsions:
REMARK  status: ('A' for Active; 'I' for Inactive)
REMARK    1  A    between atoms: C_2  and  O_3 
REMARK    2  A    between atoms: O_3  and  C_4 
REMARK    3  A    between atoms: C_7  and  N_8 
REMARK       I    between atoms: N_8  and  C_9 
REMARK       I    between atoms: C_9  and  N_22 
REMARK       I    between atoms: N_10  and  C_11 
REMARK    4  A    between atoms: C_11  and  C_13 
REMARK    5  A    between atoms: C_17  and  N_18 
REMARK    6  A    between atoms: N_22  and  C_23 
REMARK    7  A    between atoms: C_23  and  C_24 
REMARK    8  A    between atoms: C_24  and  C_25 
ROOT
ATOM      1  N   UNL d   1      26.230 -17.140   0.325  0.00  0.00    -0.190 N 
ATOM      2  C   UNL d   1      27.222 -16.206  -0.050  0.00  0.00     0.704 C 
ATOM      3  N   UNL d   1      27.232 -15.294  -0.985  0.00  0.00    -0.023 NA
ATOM      4  C   UNL d   1      26.473 -15.533  -2.100  0.00  0.00     0.294 C 
ATOM      5  O   UNL d   1      26.483 -16.590  -2.691  0.00  0.00    -0.265 OA
ATOM      6  N   UNL d   1      28.413 -16.241   0.694  0.00  0.00    -0.224 N 
ATOM      7  H   UNL d   1      26.531 -17.930   0.877  0.00  0.00     0.184 HD
ATOM      8  H   UNL d   1      28.643 -17.075   1.221  0.00  0.00     0.177 HD
ENDROOT
BRANCH   1   9
ATOM      9  C   UNL d   1      24.912 -17.319  -0.216  0.00  0.00     0.049 C 
ATOM     10  C   UNL d   1      24.004 -16.309  -0.520  0.00  0.00     0.033 C 
ATOM     11  C   UNL d   1      22.623 -16.609  -0.767  0.00  0.00     0.039 C 
ATOM     12  C   UNL d   1      22.112 -17.900  -0.608  0.00  0.00     0.068 C 
ATOM     13  C   UNL d   1      23.027 -18.882  -0.375  0.00  0.00     0.039 C 
ATOM     14  C   UNL d   1      24.391 -18.570  -0.467  0.00  0.00     0.033 C 
BRANCH  12  15
ATOM     15  O   UNL d   1      20.805 -18.167  -0.899  0.00  0.00    -0.352 OA
BRANCH  15  16
ATOM     16  C   UNL d   1      20.388 -19.543  -0.868  0.00  0.00     0.171 C 
ATOM     17  C   UNL d   1      19.523 -19.756   0.366  0.00  0.00     0.034 C 
ENDBRANCH  15  16
ENDBRANCH  12  15
ENDBRANCH   1   9
BRANCH   6  18
ATOM     18  C   UNL d   1      29.556 -15.396   0.254  0.00  0.00     0.142 C 
BRANCH  18  19
ATOM     19  C   UNL d   1      30.005 -15.628  -1.185  0.00  0.00     0.057 C 
BRANCH  19  20
ATOM     20  C   UNL d   1      29.819 -14.493  -2.168  0.00  0.00    -0.048 A 
ATOM     21  C   UNL d   1      29.438 -14.742  -3.425  0.00  0.00    -0.006 A 
ATOM     22  C   UNL d   1      29.142 -15.967  -4.078  0.00  0.00     0.014 A 
ATOM     23  C   UNL d   1      29.416 -13.455  -4.132  0.00  0.00     0.038 A 
ATOM     24  C   UNL d   1      28.941 -15.949  -5.399  0.00  0.00     0.001 A 
ATOM     25  C   UNL d   1      28.890 -14.696  -6.137  0.00  0.00     0.002 A 
ATOM     26  C   UNL d   1      29.104 -13.487  -5.578  0.00  0.00     0.030 A 
ATOM     27  N   UNL d   1      29.696 -12.485  -3.345  0.00  0.00    -0.385 N 
ATOM     28  C   UNL d   1      30.039 -13.011  -1.982  0.00  0.00     0.155 A 
ATOM     29  H   UNL d   1      29.676 -11.511  -3.647  0.00  0.00     0.160 HD
ENDBRANCH  19  20
ENDBRANCH  18  19
ENDBRANCH   6  18
BRANCH   4  30
ATOM     30  C   UNL d   1      25.894 -14.352  -2.812  0.00  0.00     0.036 A 
ATOM     31  C   UNL d   1      25.226 -14.225  -4.039  0.00  0.00     0.017 A 
ATOM     32  C   UNL d   1      25.155 -12.976  -4.645  0.00  0.00     0.003 A 
ATOM     33  C   UNL d   1      25.640 -11.857  -3.967  0.00  0.00     0.029 A 
ATOM     34  C   UNL d   1      26.290 -11.959  -2.727  0.00  0.00     0.030 A 
ATOM     35  C   UNL d   1      26.403 -13.232  -2.206  0.00  0.00     0.046 A 
BRANCH  34  36
ATOM     36  N   UNL d   1      26.834 -10.905  -2.032  0.00  0.00    -0.390 N 
ATOM     37  C   UNL d   1      27.596 -11.106  -0.815  0.00  0.00     0.149 C 
ATOM     38  C   UNL d   1      26.649  -9.511  -2.442  0.00  0.00     0.149 C 
ENDBRANCH  34  36
ENDBRANCH   4  30
TORSDOF 8
ENDMDL
MODEL 6
REMARK VINA RESULT:    -8.972      2.750      4.906
REMARK INTER + INTRA:         -14.072
REMARK INTER:                 -11.359
REMARK INTRA:                  -2.713
REMARK CONF_INDEPENDENT:        2.386
REMARK UNBOUND:                -2.713
REMARK  8 active torsions:
REMARK  status: ('A' for Active; 'I' for Inactive)
REMARK    1  A    between atoms: C_2  and  O_3 
REMARK    2  A    between atoms: O_3  and  C_4 
REMARK    3  A    between atoms: C_7  and  N_8 
REMARK       I    between atoms: N_8  and  C_9 
REMARK       I    between atoms: C_9  and  N_22 
REMARK       I    between atoms: N_10  and  C_11 
REMARK    4  A    between atoms: C_11  and  C_13 
REMARK    5  A    between atoms: C_17  and  N_18 
REMARK    6  A    between atoms: N_22  and  C_23 
REMARK    7  A    between atoms: C_23  and  C_24 
REMARK    8  A    between atoms: C_24  and  C_25 
ROOT
ATOM      1  N   UNL d   1      26.917 -16.876   0.392  0.00  0.00    -0.190 N 
ATOM      2  C   UNL d   1      27.917 -15.974  -0.037  0.00  0.00     0.704 C 
ATOM      3  N   UNL d   1      27.937 -15.126  -1.030  0.00  0.00    -0.023 NA
ATOM      4  C   UNL d   1      27.184 -15.433  -2.131  0.00  0.00     0.294 C 
ATOM      5  O   UNL d   1      27.193 -16.527  -2.652  0.00  0.00    -0.265 OA
ATOM      6  N   UNL d   1      29.102 -15.966   0.716  0.00  0.00    -0.224 N 
ATOM      7  H   UNL d   1      27.210 -17.629   0.997  0.00  0.00     0.184 HD
ATOM      8  H   UNL d   1      29.324 -16.764   1.299  0.00  0.00     0.177 HD
ENDROOT
BRANCH   1   9
ATOM      9  C   UNL d   1      25.601 -17.083  -0.145  0.00  0.00     0.049 C 
ATOM     10  C   UNL d   1      24.735 -16.095  -0.602  0.00  0.00     0.033 C 
ATOM     11  C   UNL d   1      23.348 -16.380  -0.833  0.00  0.00     0.039 C 
ATOM     12  C   UNL d   1      22.789 -17.619  -0.508  0.00  0.00     0.068 C 
ATOM     13  C   UNL d   1      23.664 -18.590  -0.125  0.00  0.00     0.039 C 
ATOM     14  C   UNL d   1      25.040 -18.339  -0.232  0.00  0.00     0.033 C 
BRANCH  12  15
ATOM     15  O   UNL d   1      21.477 -17.880  -0.786  0.00  0.00    -0.352 OA
BRANCH  15  16
ATOM     16  C   UNL d   1      21.088 -19.259  -0.909  0.00  0.00     0.171 C 
ATOM     17  C   UNL d   1      19.595 -19.364  -0.638  0.00  0.00     0.034 C 
ENDBRANCH  15  16
ENDBRANCH  12  15
ENDBRANCH   1   9
BRANCH   6  18
ATOM     18  C   UNL d   1      30.253 -15.158   0.229  0.00  0.00     0.142 C 
BRANCH  18  19
ATOM     19  C   UNL d   1      31.103 -15.836  -0.840  0.00  0.00     0.057 C 
BRANCH  19  20
ATOM     20  C   UNL d   1      30.873 -15.430  -2.280  0.00  0.00    -0.048 A 
ATOM     21  C   UNL d   1      30.663 -16.357  -3.219  0.00  0.00    -0.006 A 
ATOM     22  C   UNL d   1      30.603 -17.771  -3.128  0.00  0.00     0.014 A 
ATOM     23  C   UNL d   1      30.546 -15.651  -4.502  0.00  0.00     0.038 A 
ATOM     24  C   UNL d   1      30.542 -18.477  -4.261  0.00  0.00     0.001 A 
ATOM     25  C   UNL d   1      30.404 -17.822  -5.553  0.00  0.00     0.002 A 
ATOM     26  C   UNL d   1      30.395 -16.483  -5.717  0.00  0.00     0.030 A 
ATOM     27  N   UNL d   1      30.610 -14.382  -4.345  0.00  0.00    -0.385 N 
ATOM     28  C   UNL d   1      30.873 -14.055  -2.905  0.00  0.00     0.155 A 
ATOM     29  H   UNL d   1      30.493 -13.727  -5.119  0.00  0.00     0.160 HD
ENDBRANCH  19  20
ENDBRANCH  18  19
ENDBRANCH   6  18
BRANCH   4  30
ATOM     30  C   UNL d   1      26.617 -14.299  -2.924  0.00  0.00     0.036 A 
ATOM     31  C   UNL d   1      25.335 -13.731  -2.974  0.00  0.00     0.017 A 
ATOM     32  C   UNL d   1      24.977 -12.963  -4.077  0.00  0.00     0.003 A 
ATOM     33  C   UNL d   1      25.934 -12.673  -5.049  0.00  0.00     0.029 A 
ATOM     34  C   UNL d   1      27.230 -13.211  -5.006  0.00  0.00     0.030 A 
ATOM     35  C   UNL d   1      27.510 -14.031  -3.930  0.00  0.00     0.046 A 
BRANCH  34  36
ATOM     36  N   UNL d   1      28.203 -13.006  -5.955  0.00  0.00    -0.390 N 
ATOM     37  C   UNL d   1      28.944 -11.762  -6.031  0.00  0.00     0.149 C 
ATOM     38  C   UNL d   1      28.531 -14.004  -6.975  0.00  0.00     0.149 C 
ENDBRANCH  34  36
ENDBRANCH   4  30
TORSDOF 8
ENDMDL
MODEL 7
REMARK VINA RESULT:    -8.969      2.997      7.217
REMARK INTER + INTRA:         -13.893
REMARK INTER:                 -11.356
REMARK INTRA:                  -2.538
REMARK CONF_INDEPENDENT:        2.386
REMARK UNBOUND:                -2.538
REMARK  8 active torsions:
REMARK  status: ('A' for Active; 'I' for Inactive)
REMARK    1  A    between atoms: C_2  and  O_3 
REMARK    2  A    between atoms: O_3  and  C_4 
REMARK    3  A    between atoms: C_7  and  N_8 
REMARK       I    between atoms: N_8  and  C_9 
REMARK       I    between atoms: C_9  and  N_22 
REMARK       I    between atoms: N_10  and  C_11 
REMARK    4  A    between atoms: C_11  and  C_13 
REMARK    5  A    between atoms: C_17  and  N_18 
REMARK    6  A    between atoms: N_22  and  C_23 
REMARK    7  A    between atoms: C_23  and  C_24 
REMARK    8  A    between atoms: C_24  and  C_25 
ROOT
ATOM      1  N   UNL d   1      29.438 -14.722   2.700  0.00  0.00    -0.190 N 
ATOM      2  C   UNL d   1      29.284 -14.771   1.296  0.00  0.00     0.704 C 
ATOM      3  N   UNL d   1      28.647 -13.980   0.476  0.00  0.00    -0.023 NA
ATOM      4  C   UNL d   1      27.558 -13.312   0.969  0.00  0.00     0.294 C 
ATOM      5  O   UNL d   1      26.692 -13.853   1.621  0.00  0.00    -0.265 OA
ATOM      6  N   UNL d   1      29.914 -15.844   0.646  0.00  0.00    -0.224 N 
ATOM      7  H   UNL d   1      29.724 -15.575   3.159  0.00  0.00     0.184 HD
ATOM      8  H   UNL d   1      30.169 -16.667   1.179  0.00  0.00     0.177 HD
ENDROOT
BRANCH   1   9
ATOM      9  C   UNL d   1      28.949 -13.739   3.626  0.00  0.00     0.049 C 
ATOM     10  C   UNL d   1      29.502 -12.484   3.860  0.00  0.00     0.033 C 
ATOM     11  C   UNL d   1      29.119 -11.711   5.006  0.00  0.00     0.039 C 
ATOM     12  C   UNL d   1      28.266 -12.226   5.986  0.00  0.00     0.068 C 
ATOM     13  C   UNL d   1      27.686 -13.426   5.706  0.00  0.00     0.039 C 
ATOM     14  C   UNL d   1      27.852 -13.973   4.426  0.00  0.00     0.033 C 
BRANCH  12  15
ATOM     15  O   UNL d   1      27.877 -11.450   7.042  0.00  0.00    -0.352 OA
BRANCH  15  16
ATOM     16  C   UNL d   1      28.787 -11.337   8.150  0.00  0.00     0.171 C 
ATOM     17  C   UNL d   1      28.536 -12.499   9.099  0.00  0.00     0.034 C 
ENDBRANCH  15  16
ENDBRANCH  12  15
ENDBRANCH   1   9
BRANCH   6  18
ATOM     18  C   UNL d   1      29.664 -16.046  -0.807  0.00  0.00     0.142 C 
BRANCH  18  19
ATOM     19  C   UNL d   1      28.478 -16.949  -1.132  0.00  0.00     0.057 C 
BRANCH  19  20
ATOM     20  C   UNL d   1      27.150 -16.284  -1.423  0.00  0.00    -0.048 A 
ATOM     21  C   UNL d   1      26.022 -16.764  -0.891  0.00  0.00    -0.006 A 
ATOM     22  C   UNL d   1      25.801 -17.867  -0.026  0.00  0.00     0.014 A 
ATOM     23  C   UNL d   1      24.918 -15.950  -1.416  0.00  0.00     0.038 A 
ATOM     24  C   UNL d   1      24.541 -18.231   0.228  0.00  0.00     0.001 A 
ATOM     25  C   UNL d   1      23.416 -17.444  -0.253  0.00  0.00     0.002 A 
ATOM     26  C   UNL d   1      23.545 -16.349  -1.032  0.00  0.00     0.030 A 
ATOM     27  N   UNL d   1      25.349 -15.001  -2.159  0.00  0.00    -0.385 N 
ATOM     28  C   UNL d   1      26.838 -15.102  -2.309  0.00  0.00     0.155 A 
ATOM     29  H   UNL d   1      24.730 -14.300  -2.568  0.00  0.00     0.160 HD
ENDBRANCH  19  20
ENDBRANCH  18  19
ENDBRANCH   6  18
BRANCH   4  30
ATOM     30  C   UNL d   1      27.245 -11.969   0.390  0.00  0.00     0.036 A 
ATOM     31  C   UNL d   1      27.405 -11.436  -0.898  0.00  0.00     0.017 A 
ATOM     32  C   UNL d   1      27.411 -10.056  -1.064  0.00  0.00     0.003 A 
ATOM     33  C   UNL d   1      27.137  -9.234   0.029  0.00  0.00     0.029 A 
ATOM     34  C   UNL d   1      26.950  -9.747   1.322  0.00  0.00     0.030 A 
ATOM     35  C   UNL d   1      27.031 -11.120   1.446  0.00  0.00     0.046 A 
BRANCH  34  36
ATOM     36  N   UNL d   1      26.727  -8.991   2.448  0.00  0.00    -0.390 N 
ATOM     37  C   UNL d   1      26.574  -7.551   2.382  0.00  0.00     0.149 C 
ATOM     38  C   UNL d   1      26.669  -9.575   3.790  0.00  0.00     0.149 C 
ENDBRANCH  34  36
ENDBRANCH   4  30
TORSDOF 8
ENDMDL
MODEL 8
REMARK VINA RESULT:    -8.714      3.152      4.969
REMARK INTER + INTRA:         -14.097
REMARK INTER:                 -11.100
REMARK INTRA:                  -2.997
REMARK CONF_INDEPENDENT:        2.386
REMARK UNBOUND:                -2.997
REMARK  8 active torsions:
REMARK  status: ('A' for Active; 'I' for Inactive)
REMARK    1  A    between atoms: C_2  and  O_3 
REMARK    2  A    between atoms: O_3  and  C_4 
REMARK    3  A    between atoms: C_7  and  N_8 
REMARK       I    between atoms: N_8  and  C_9 
REMARK       I    between atoms: C_9  and  N_22 
REMARK       I    between atoms: N_10  and  C_11 
REMARK    4  A    between atoms: C_11  and  C_13 
REMARK    5  A    between atoms: C_17  and  N_18 
REMARK    6  A    between atoms: N_22  and  C_23 
REMARK    7  A    between atoms: C_23  and  C_24 
REMARK    8  A    between atoms: C_24  and  C_25 
ROOT
ATOM      1  N   UNL d   1      27.400 -16.291   0.813  0.00  0.00    -0.190 N 
ATOM      2  C   UNL d   1      28.477 -15.518   0.324  0.00  0.00     0.704 C 
ATOM      3  N   UNL d   1      28.765 -15.118  -0.885  0.00  0.00    -0.023 NA
ATOM      4  C   UNL d   1      28.342 -15.906  -1.922  0.00  0.00     0.294 C 
ATOM      5  O   UNL d   1      28.495 -17.108  -1.943  0.00  0.00    -0.265 OA
ATOM      6  N   UNL d   1      29.411 -15.091   1.281  0.00  0.00    -0.224 N 
ATOM      7  H   UNL d   1      27.518 -16.718   1.720  0.00  0.00     0.184 HD
ATOM      8  H   UNL d   1      29.468 -15.575   2.169  0.00  0.00     0.177 HD
ENDROOT
BRANCH   1   9
ATOM      9  C   UNL d   1      26.281 -16.833   0.094  0.00  0.00     0.049 C 
ATOM     10  C   UNL d   1      25.460 -16.142  -0.792  0.00  0.00     0.033 C 
ATOM     11  C   UNL d   1      24.206 -16.692  -1.218  0.00  0.00     0.039 C 
ATOM     12  C   UNL d   1      23.707 -17.883  -0.683  0.00  0.00     0.068 C 
ATOM     13  C   UNL d   1      24.553 -18.575   0.131  0.00  0.00     0.039 C 
ATOM     14  C   UNL d   1      25.882 -18.143   0.247  0.00  0.00     0.033 C 
BRANCH  12  15
ATOM     15  O   UNL d   1      22.534 -18.410  -1.143  0.00  0.00    -0.352 OA
BRANCH  15  16
ATOM     16  C   UNL d   1      21.635 -18.972  -0.171  0.00  0.00     0.171 C 
ATOM     17  C   UNL d   1      20.315 -19.284  -0.861  0.00  0.00     0.034 C 
ENDBRANCH  15  16
ENDBRANCH  12  15
ENDBRANCH   1   9
BRANCH   6  18
ATOM     18  C   UNL d   1      30.650 -14.409   0.816  0.00  0.00     0.142 C 
BRANCH  18  19
ATOM     19  C   UNL d   1      31.774 -15.347   0.390  0.00  0.00     0.057 C 
BRANCH  19  20
ATOM     20  C   UNL d   1      31.804 -15.795  -1.055  0.00  0.00    -0.048 A 
ATOM     21  C   UNL d   1      31.529 -17.063  -1.376  0.00  0.00    -0.006 A 
ATOM     22  C   UNL d   1      31.179 -18.170  -0.561  0.00  0.00     0.014 A 
ATOM     23  C   UNL d   1      31.709 -17.188  -2.828  0.00  0.00     0.038 A 
ATOM     24  C   UNL d   1      31.115 -19.379  -1.127  0.00  0.00     0.001 A 
ATOM     25  C   UNL d   1      31.266 -19.549  -2.564  0.00  0.00     0.002 A 
ATOM     26  C   UNL d   1      31.543 -18.537  -3.414  0.00  0.00     0.030 A 
ATOM     27  N   UNL d   1      32.004 -16.062  -3.361  0.00  0.00    -0.385 N 
ATOM     28  C   UNL d   1      32.152 -15.013  -2.299  0.00  0.00     0.155 A 
ATOM     29  H   UNL d   1      32.113 -15.944  -4.369  0.00  0.00     0.160 HD
ENDBRANCH  19  20
ENDBRANCH  18  19
ENDBRANCH   6  18
BRANCH   4  30
ATOM     30  C   UNL d   1      28.010 -15.233  -3.216  0.00  0.00     0.036 A 
ATOM     31  C   UNL d   1      26.839 -14.621  -3.688  0.00  0.00     0.017 A 
ATOM     32  C   UNL d   1      26.675 -14.438  -5.056  0.00  0.00     0.003 A 
ATOM     33  C   UNL d   1      27.723 -14.753  -5.920  0.00  0.00     0.029 A 
ATOM     34  C   UNL d   1      28.913 -15.344  -5.466  0.00  0.00     0.030 A 
ATOM     35  C   UNL d   1      28.994 -15.576  -4.107  0.00  0.00     0.046 A 
BRANCH  34  36
ATOM     36  N   UNL d   1      29.963 -15.724  -6.269  0.00  0.00    -0.390 N 
ATOM     37  C   UNL d   1      30.406 -17.102  -6.343  0.00  0.00     0.149 C 
ATOM     38  C   UNL d   1      30.729 -14.766  -7.069  0.00  0.00     0.149 C 
ENDBRANCH  34  36
ENDBRANCH   4  30
TORSDOF 8
ENDMDL
MODEL 9
REMARK VINA RESULT:    -8.054      2.544      3.916
REMARK INTER + INTRA:         -14.068
REMARK INTER:                 -10.440
REMARK INTRA:                  -3.628
REMARK CONF_INDEPENDENT:        2.386
REMARK UNBOUND:                -3.628
REMARK  8 active torsions:
REMARK  status: ('A' for Active; 'I' for Inactive)
REMARK    1  A    between atoms: C_2  and  O_3 
REMARK    2  A    between atoms: O_3  and  C_4 
REMARK    3  A    between atoms: C_7  and  N_8 
REMARK       I    between atoms: N_8  and  C_9 
REMARK       I    between atoms: C_9  and  N_22 
REMARK       I    between atoms: N_10  and  C_11 
REMARK    4  A    between atoms: C_11  and  C_13 
REMARK    5  A    between atoms: C_17  and  N_18 
REMARK    6  A    between atoms: N_22  and  C_23 
REMARK    7  A    between atoms: C_23  and  C_24 
REMARK    8  A    between atoms: C_24  and  C_25 
ROOT
ATOM      1  N   UNL d   1      27.885 -16.170   0.645  0.00  0.00    -0.190 N 
ATOM      2  C   UNL d   1      29.064 -15.616   0.098  0.00  0.00     0.704 C 
ATOM      3  N   UNL d   1      29.417 -15.405  -1.142  0.00  0.00    -0.023 NA
ATOM      4  C   UNL d   1      28.896 -16.243  -2.092  0.00  0.00     0.294 C 
ATOM      5  O   UNL d   1      28.879 -17.449  -1.970  0.00  0.00    -0.265 OA
ATOM      6  N   UNL d   1      30.041 -15.213   1.022  0.00  0.00    -0.224 N 
ATOM      7  H   UNL d   1      27.934 -16.499   1.598  0.00  0.00     0.184 HD
ATOM      8  H   UNL d   1      30.021 -15.592   1.961  0.00  0.00     0.177 HD
ENDROOT
BRANCH   1   9
ATOM      9  C   UNL d   1      26.707 -16.633  -0.035  0.00  0.00     0.049 C 
ATOM     10  C   UNL d   1      25.796 -15.844  -0.729  0.00  0.00     0.033 C 
ATOM     11  C   UNL d   1      24.512 -16.360  -1.109  0.00  0.00     0.039 C 
ATOM     12  C   UNL d   1      24.083 -17.628  -0.706  0.00  0.00     0.068 C 
ATOM     13  C   UNL d   1      25.013 -18.407  -0.085  0.00  0.00     0.039 C 
ATOM     14  C   UNL d   1      26.341 -17.961  -0.036  0.00  0.00     0.033 C 
BRANCH  12  15
ATOM     15  O   UNL d   1      22.877 -18.115  -1.124  0.00  0.00    -0.352 OA
BRANCH  15  16
ATOM     16  C   UNL d   1      22.040 -18.744  -0.139  0.00  0.00     0.171 C 
ATOM     17  C   UNL d   1      20.664 -18.970  -0.748  0.00  0.00     0.034 C 
ENDBRANCH  15  16
ENDBRANCH  12  15
ENDBRANCH   1   9
BRANCH   6  18
ATOM     18  C   UNL d   1      31.367 -14.768   0.514  0.00  0.00     0.142 C 
BRANCH  18  19
ATOM     19  C   UNL d   1      31.496 -13.264   0.297  0.00  0.00     0.057 C 
BRANCH  19  20
ATOM     20  C   UNL d   1      30.908 -12.685  -0.971  0.00  0.00    -0.048 A 
ATOM     21  C   UNL d   1      29.619 -12.335  -1.020  0.00  0.00    -0.006 A 
ATOM     22  C   UNL d   1      28.603 -12.398  -0.033  0.00  0.00     0.014 A 
ATOM     23  C   UNL d   1      29.349 -11.879  -2.390  0.00  0.00     0.038 A 
ATOM     24  C   UNL d   1      27.345 -12.133  -0.399  0.00  0.00     0.001 A 
ATOM     25  C   UNL d   1      27.033 -11.659  -1.738  0.00  0.00     0.002 A 
ATOM     26  C   UNL d   1      27.951 -11.516  -2.716  0.00  0.00     0.030 A 
ATOM     27  N   UNL d   1      30.412 -11.885  -3.103  0.00  0.00    -0.385 N 
ATOM     28  C   UNL d   1      31.558 -12.444  -2.312  0.00  0.00     0.155 A 
ATOM     29  H   UNL d   1      30.429 -11.548  -4.066  0.00  0.00     0.160 HD
ENDBRANCH  19  20
ENDBRANCH  18  19
ENDBRANCH   6  18
BRANCH   4  30
ATOM     30  C   UNL d   1      28.674 -15.688  -3.463  0.00  0.00     0.036 A 
ATOM     31  C   UNL d   1      29.524 -15.532  -4.567  0.00  0.00     0.017 A 
ATOM     32  C   UNL d   1      29.178 -14.629  -5.566  0.00  0.00     0.003 A 
ATOM     33  C   UNL d   1      27.940 -13.989  -5.511  0.00  0.00     0.029 A 
ATOM     34  C   UNL d   1      27.063 -14.149  -4.427  0.00  0.00     0.030 A 
ATOM     35  C   UNL d   1      27.489 -14.997  -3.424  0.00  0.00     0.046 A 
BRANCH  34  36
ATOM     36  N   UNL d   1      25.853 -13.511  -4.288  0.00  0.00    -0.390 N 
ATOM     37  C   UNL d   1      24.778 -14.078  -3.498  0.00  0.00     0.149 C 
ATOM     38  C   UNL d   1      25.551 -12.243  -4.955  0.00  0.00     0.149 C 
ENDBRANCH  34  36
ENDBRANCH   4  30
TORSDOF 8
ENDMDL
