MODEL 1
REMARK VINA RESULT:   -10.163      0.000      0.000
REMARK INTER + INTRA:         -13.996
REMARK INTER:                 -12.251
REMARK INTRA:                  -1.745
REMARK CONF_INDEPENDENT:        2.088
REMARK UNBOUND:                -1.745
REMARK  7 active torsions:
REMARK  status: ('A' for Active; 'I' for Inactive)
REMARK       I    between atoms: C_2  and  N_3 
REMARK    1  A    between atoms: C_2  and  C_15 
REMARK    2  A    between atoms: N_3  and  N_4 
REMARK    3  A    between atoms: N_4  and  C_5 
REMARK    4  A    between atoms: C_5  and  N_7 
REMARK       I    between atoms: N_7  and  C_8 
REMARK    5  A    between atoms: C_8  and  C_10 
REMARK    6  A    between atoms: C_18  and  N_19 
REMARK       I    between atoms: N_19  and  C_20 
REMARK    7  A    between atoms: C_20  and  C_22 
ROOT
ATOM      1  O   UNL d   1      27.049 -14.826  -2.231  0.00  0.00    -0.266 OA
ATOM      2  C   UNL d   1      27.136 -15.976  -1.806  0.00  0.00     0.270 C 
ATOM      3  N   UNL d   1      28.301 -16.723  -1.895  0.00  0.00    -0.264 N 
ATOM      4  H   UNL d   1      28.314 -17.720  -1.681  0.00  0.00     0.190 HD
ENDROOT
BRANCH   2   5
ATOM      5  C   UNL d   1      25.930 -16.669  -1.212  0.00  0.00     0.033 A 
ATOM      6  C   UNL d   1      26.000 -17.695  -0.254  0.00  0.00     0.019 A 
ATOM      7  C   UNL d   1      24.820 -18.341   0.215  0.00  0.00     0.030 A 
ATOM      8  C   UNL d   1      23.547 -17.932  -0.214  0.00  0.00     0.035 A 
ATOM      9  C   UNL d   1      23.502 -16.903  -1.159  0.00  0.00     0.030 A 
ATOM     10  C   UNL d   1      24.663 -16.272  -1.641  0.00  0.00     0.019 A 
BRANCH   8  11
ATOM     11  N   UNL d   1      22.367 -18.527   0.334  0.00  0.00    -0.323 N 
ATOM     12  C   UNL d   1      21.324 -19.072  -0.417  0.00  0.00     0.256 C 
ATOM     13  O   UNL d   1      21.279 -19.157  -1.643  0.00  0.00    -0.267 OA
ATOM     14  H   UNL d   1      22.279 -18.542   1.344  0.00  0.00     0.169 HD
BRANCH  12  15
ATOM     15  C   UNL d   1      20.129 -19.604   0.287  0.00  0.00     0.032 A 
ATOM     16  C   UNL d   1      20.207 -19.743   1.686  0.00  0.00     0.017 A 
ATOM     17  C   UNL d   1      19.226 -20.446   2.387  0.00  0.00     0.001 A 
ATOM     18  C   UNL d   1      18.132 -20.968   1.703  0.00  0.00     0.000 A 
ATOM     19  C   UNL d   1      18.044 -20.825   0.315  0.00  0.00     0.001 A 
ATOM     20  C   UNL d   1      19.045 -20.155  -0.399  0.00  0.00     0.017 A 
ENDBRANCH  12  15
ENDBRANCH   8  11
ENDBRANCH   2   5
BRANCH   3  21
ATOM     21  N   UNL d   1      29.504 -16.218  -2.548  0.00  0.00    -0.273 N 
ATOM     22  H   UNL d   1      30.334 -16.200  -1.957  0.00  0.00     0.189 HD
BRANCH  21  23
ATOM     23  C   UNL d   1      29.417 -15.807  -3.893  0.00  0.00     0.193 C 
ATOM     24  S   UNL d   1      30.237 -16.695  -5.076  0.00  0.00    -0.039 SA
BRANCH  23  25
ATOM     25  N   UNL d   1      28.648 -14.643  -4.138  0.00  0.00    -0.298 N 
ATOM     26  C   UNL d   1      27.825 -14.382  -5.266  0.00  0.00     0.264 C 
ATOM     27  O   UNL d   1      27.687 -15.200  -6.185  0.00  0.00    -0.267 OA
ATOM     28  H   UNL d   1      28.636 -13.931  -3.420  0.00  0.00     0.171 HD
BRANCH  26  29
ATOM     29  C   UNL d   1      27.117 -13.102  -5.352  0.00  0.00     0.072 A 
ATOM     30  C   UNL d   1      26.246 -12.479  -4.474  0.00  0.00     0.025 A 
ATOM     31  C   UNL d   1      25.905 -11.146  -4.879  0.00  0.00     0.009 A 
ATOM     32  C   UNL d   1      26.517 -10.782  -6.058  0.00  0.00     0.050 A 
ATOM     33  S   UNL d   1      27.518 -12.032  -6.654  0.00  0.00    -0.097 SA
ENDBRANCH  26  29
ENDBRANCH  23  25
ENDBRANCH  21  23
ENDBRANCH   3  21
TORSDOF 7
ENDMDL
MODEL 2
REMARK VINA RESULT:    -9.902      3.526      5.113
REMARK INTER + INTRA:         -13.560
REMARK INTER:                 -11.991
REMARK INTRA:                  -1.570
REMARK CONF_INDEPENDENT:        2.088
REMARK UNBOUND:                -1.570
REMARK  7 active torsions:
REMARK  status: ('A' for Active; 'I' for Inactive)
REMARK       I    between atoms: C_2  and  N_3 
REMARK    1  A    between atoms: C_2  and  C_15 
REMARK    2  A    between atoms: N_3  and  N_4 
REMARK    3  A    between atoms: N_4  and  C_5 
REMARK    4  A    between atoms: C_5  and  N_7 
REMARK       I    between atoms: N_7  and  C_8 
REMARK    5  A    between atoms: C_8  and  C_10 
REMARK    6  A    between atoms: C_18  and  N_19 
REMARK       I    between atoms: N_19  and  C_20 
REMARK    7  A    between atoms: C_20  and  C_22 
ROOT
ATOM      1  O   UNL d   1      26.903 -15.432  -2.737  0.00  0.00    -0.266 OA
ATOM      2  C   UNL d   1      26.860 -15.755  -1.553  0.00  0.00     0.270 C 
ATOM      3  N   UNL d   1      27.903 -15.517  -0.671  0.00  0.00    -0.264 N 
ATOM      4  H   UNL d   1      27.916 -15.925   0.264  0.00  0.00     0.190 HD
ENDROOT
BRANCH   2   5
ATOM      5  C   UNL d   1      25.665 -16.503  -1.003  0.00  0.00     0.033 A 
ATOM      6  C   UNL d   1      25.753 -17.642  -0.186  0.00  0.00     0.019 A 
ATOM      7  C   UNL d   1      24.581 -18.328   0.245  0.00  0.00     0.030 A 
ATOM      8  C   UNL d   1      23.300 -17.851  -0.077  0.00  0.00     0.035 A 
ATOM      9  C   UNL d   1      23.237 -16.710  -0.881  0.00  0.00     0.030 A 
ATOM     10  C   UNL d   1      24.390 -16.038  -1.326  0.00  0.00     0.019 A 
BRANCH   8  11
ATOM     11  N   UNL d   1      22.131 -18.495   0.439  0.00  0.00    -0.323 N 
ATOM     12  C   UNL d   1      21.178 -19.161  -0.335  0.00  0.00     0.256 C 
ATOM     13  O   UNL d   1      21.217 -19.325  -1.553  0.00  0.00    -0.267 OA
ATOM     14  H   UNL d   1      21.980 -18.454   1.440  0.00  0.00     0.169 HD
BRANCH  12  15
ATOM     15  C   UNL d   1      19.981 -19.734   0.331  0.00  0.00     0.032 A 
ATOM     16  C   UNL d   1      19.955 -19.729   1.738  0.00  0.00     0.017 A 
ATOM     17  C   UNL d   1      18.984 -20.451   2.435  0.00  0.00     0.001 A 
ATOM     18  C   UNL d   1      18.001 -21.139   1.730  0.00  0.00     0.000 A 
ATOM     19  C   UNL d   1      18.015 -21.140   0.332  0.00  0.00     0.001 A 
ATOM     20  C   UNL d   1      19.009 -20.449  -0.372  0.00  0.00     0.017 A 
ENDBRANCH  12  15
ENDBRANCH   8  11
ENDBRANCH   2   5
BRANCH   3  21
ATOM     21  N   UNL d   1      29.159 -14.909  -1.094  0.00  0.00    -0.273 N 
ATOM     22  H   UNL d   1      29.172 -14.583  -2.059  0.00  0.00     0.189 HD
BRANCH  21  23
ATOM     23  C   UNL d   1      30.216 -14.832  -0.165  0.00  0.00     0.193 C 
ATOM     24  S   UNL d   1      31.807 -14.777  -0.736  0.00  0.00    -0.039 SA
BRANCH  23  25
ATOM     25  N   UNL d   1      29.843 -14.828   1.201  0.00  0.00    -0.298 N 
ATOM     26  C   UNL d   1      28.977 -13.907   1.850  0.00  0.00     0.264 C 
ATOM     27  O   UNL d   1      28.429 -12.978   1.243  0.00  0.00    -0.267 OA
ATOM     28  H   UNL d   1      30.183 -15.583   1.781  0.00  0.00     0.171 HD
BRANCH  26  29
ATOM     29  C   UNL d   1      28.724 -14.055   3.286  0.00  0.00     0.072 A 
ATOM     30  C   UNL d   1      27.544 -14.073   4.009  0.00  0.00     0.025 A 
ATOM     31  C   UNL d   1      27.741 -14.408   5.390  0.00  0.00     0.009 A 
ATOM     32  C   UNL d   1      29.066 -14.631   5.693  0.00  0.00     0.050 A 
ATOM     33  S   UNL d   1      30.058 -14.467   4.312  0.00  0.00    -0.097 SA
ENDBRANCH  26  29
ENDBRANCH  23  25
ENDBRANCH  21  23
ENDBRANCH   3  21
TORSDOF 7
ENDMDL
MODEL 3
REMARK VINA RESULT:    -9.779      2.313      3.985
REMARK INTER + INTRA:         -13.381
REMARK INTER:                 -11.867
REMARK INTRA:                  -1.513
REMARK CONF_INDEPENDENT:        2.088
REMARK UNBOUND:                -1.513
REMARK  7 active torsions:
REMARK  status: ('A' for Active; 'I' for Inactive)
REMARK       I    between atoms: C_2  and  N_3 
REMARK    1  A    between atoms: C_2  and  C_15 
REMARK    2  A    between atoms: N_3  and  N_4 
REMARK    3  A    between atoms: N_4  and  C_5 
REMARK    4  A    between atoms: C_5  and  N_7 
REMARK       I    between atoms: N_7  and  C_8 
REMARK    5  A    between atoms: C_8  and  C_10 
REMARK    6  A    between atoms: C_18  and  N_19 
REMARK       I    between atoms: N_19  and  C_20 
REMARK    7  A    between atoms: C_20  and  C_22 
ROOT
ATOM      1  O   UNL d   1      26.810 -14.312  -1.761  0.00  0.00    -0.266 OA
ATOM      2  C   UNL d   1      26.863 -15.537  -1.838  0.00  0.00     0.270 C 
ATOM      3  N   UNL d   1      27.907 -16.205  -2.459  0.00  0.00    -0.264 N 
ATOM      4  H   UNL d   1      27.861 -17.207  -2.650  0.00  0.00     0.190 HD
ENDROOT
BRANCH   2   5
ATOM      5  C   UNL d   1      25.734 -16.390  -1.303  0.00  0.00     0.033 A 
ATOM      6  C   UNL d   1      25.916 -17.532  -0.504  0.00  0.00     0.019 A 
ATOM      7  C   UNL d   1      24.805 -18.319  -0.087  0.00  0.00     0.030 A 
ATOM      8  C   UNL d   1      23.489 -17.946  -0.404  0.00  0.00     0.035 A 
ATOM      9  C   UNL d   1      23.331 -16.801  -1.190  0.00  0.00     0.030 A 
ATOM     10  C   UNL d   1      24.425 -16.029  -1.622  0.00  0.00     0.019 A 
BRANCH   8  11
ATOM     11  N   UNL d   1      22.377 -18.694   0.098  0.00  0.00    -0.323 N 
ATOM     12  C   UNL d   1      21.063 -18.575  -0.357  0.00  0.00     0.256 C 
ATOM     13  O   UNL d   1      20.672 -17.849  -1.269  0.00  0.00    -0.267 OA
ATOM     14  H   UNL d   1      22.559 -19.351   0.848  0.00  0.00     0.169 HD
BRANCH  12  15
ATOM     15  C   UNL d   1      19.997 -19.375   0.300  0.00  0.00     0.032 A 
ATOM     16  C   UNL d   1      20.109 -19.594   1.686  0.00  0.00     0.017 A 
ATOM     17  C   UNL d   1      19.286 -20.519   2.329  0.00  0.00     0.001 A 
ATOM     18  C   UNL d   1      18.308 -21.193   1.602  0.00  0.00     0.000 A 
ATOM     19  C   UNL d   1      18.185 -20.973   0.226  0.00  0.00     0.001 A 
ATOM     20  C   UNL d   1      19.035 -20.074  -0.431  0.00  0.00     0.017 A 
ENDBRANCH  12  15
ENDBRANCH   8  11
ENDBRANCH   2   5
BRANCH   3  21
ATOM     21  N   UNL d   1      29.001 -15.503  -3.118  0.00  0.00    -0.273 N 
ATOM     22  H   UNL d   1      29.717 -15.142  -2.489  0.00  0.00     0.189 HD
BRANCH  21  23
ATOM     23  C   UNL d   1      28.975 -15.380  -4.522  0.00  0.00     0.193 C 
ATOM     24  S   UNL d   1      28.289 -13.997  -5.211  0.00  0.00    -0.039 SA
BRANCH  23  25
ATOM     25  N   UNL d   1      29.520 -16.466  -5.250  0.00  0.00    -0.298 N 
ATOM     26  C   UNL d   1      30.030 -17.682  -4.720  0.00  0.00     0.264 C 
ATOM     27  O   UNL d   1      30.033 -17.923  -3.507  0.00  0.00    -0.267 OA
ATOM     28  H   UNL d   1      29.510 -16.404  -6.259  0.00  0.00     0.171 HD
BRANCH  26  29
ATOM     29  C   UNL d   1      30.576 -18.686  -5.638  0.00  0.00     0.072 A 
ATOM     30  C   UNL d   1      30.720 -20.057  -5.511  0.00  0.00     0.025 A 
ATOM     31  C   UNL d   1      31.156 -20.686  -6.725  0.00  0.00     0.009 A 
ATOM     32  C   UNL d   1      31.341 -19.783  -7.748  0.00  0.00     0.050 A 
ATOM     33  S   UNL d   1      30.961 -18.193  -7.254  0.00  0.00    -0.097 SA
ENDBRANCH  26  29
ENDBRANCH  23  25
ENDBRANCH  21  23
ENDBRANCH   3  21
TORSDOF 7
ENDMDL
MODEL 4
REMARK VINA RESULT:    -9.675      2.056      3.887
REMARK INTER + INTRA:         -13.470
REMARK INTER:                 -11.763
REMARK INTRA:                  -1.707
REMARK CONF_INDEPENDENT:        2.088
REMARK UNBOUND:                -1.707
REMARK  7 active torsions:
REMARK  status: ('A' for Active; 'I' for Inactive)
REMARK       I    between atoms: C_2  and  N_3 
REMARK    1  A    between atoms: C_2  and  C_15 
REMARK    2  A    between atoms: N_3  and  N_4 
REMARK    3  A    between atoms: N_4  and  C_5 
REMARK    4  A    between atoms: C_5  and  N_7 
REMARK       I    between atoms: N_7  and  C_8 
REMARK    5  A    between atoms: C_8  and  C_10 
REMARK    6  A    between atoms: C_18  and  N_19 
REMARK       I    between atoms: N_19  and  C_20 
REMARK    7  A    between atoms: C_20  and  C_22 
ROOT
ATOM      1  O   UNL d   1      27.011 -14.053  -1.305  0.00  0.00    -0.266 OA
ATOM      2  C   UNL d   1      26.850 -15.152  -1.830  0.00  0.00     0.270 C 
ATOM      3  N   UNL d   1      27.561 -15.559  -2.950  0.00  0.00    -0.264 N 
ATOM      4  H   UNL d   1      27.310 -16.404  -3.463  0.00  0.00     0.190 HD
ENDROOT
BRANCH   2   5
ATOM      5  C   UNL d   1      25.801 -16.108  -1.308  0.00  0.00     0.033 A 
ATOM      6  C   UNL d   1      26.086 -17.261  -0.557  0.00  0.00     0.019 A 
ATOM      7  C   UNL d   1      25.046 -18.146  -0.150  0.00  0.00     0.030 A 
ATOM      8  C   UNL d   1      23.700 -17.863  -0.429  0.00  0.00     0.035 A 
ATOM      9  C   UNL d   1      23.439 -16.706  -1.168  0.00  0.00     0.030 A 
ATOM     10  C   UNL d   1      24.462 -15.836  -1.589  0.00  0.00     0.019 A 
BRANCH   8  11
ATOM     11  N   UNL d   1      22.658 -18.712   0.064  0.00  0.00    -0.323 N 
ATOM     12  C   UNL d   1      21.332 -18.685  -0.371  0.00  0.00     0.256 C 
ATOM     13  O   UNL d   1      20.872 -17.967  -1.256  0.00  0.00    -0.267 OA
ATOM     14  H   UNL d   1      22.903 -19.373   0.792  0.00  0.00     0.169 HD
BRANCH  12  15
ATOM     15  C   UNL d   1      20.344 -19.587   0.275  0.00  0.00     0.032 A 
ATOM     16  C   UNL d   1      19.314 -20.106  -0.531  0.00  0.00     0.017 A 
ATOM     17  C   UNL d   1      18.225 -20.764   0.041  0.00  0.00     0.001 A 
ATOM     18  C   UNL d   1      18.183 -20.955   1.420  0.00  0.00     0.000 A 
ATOM     19  C   UNL d   1      19.208 -20.450   2.226  0.00  0.00     0.001 A 
ATOM     20  C   UNL d   1      20.283 -19.754   1.660  0.00  0.00     0.017 A 
ENDBRANCH  12  15
ENDBRANCH   8  11
ENDBRANCH   2   5
BRANCH   3  21
ATOM     21  N   UNL d   1      28.520 -14.692  -3.624  0.00  0.00    -0.273 N 
ATOM     22  H   UNL d   1      29.087 -14.118  -3.002  0.00  0.00     0.189 HD
BRANCH  21  23
ATOM     23  C   UNL d   1      28.574 -14.716  -5.032  0.00  0.00     0.193 C 
ATOM     24  S   UNL d   1      27.822 -13.476  -5.903  0.00  0.00    -0.039 SA
BRANCH  23  25
ATOM     25  N   UNL d   1      29.254 -15.816  -5.608  0.00  0.00    -0.298 N 
ATOM     26  C   UNL d   1      29.665 -17.008  -4.953  0.00  0.00     0.264 C 
ATOM     27  O   UNL d   1      29.442 -17.210  -3.752  0.00  0.00    -0.267 OA
ATOM     28  H   UNL d   1      29.433 -15.787  -6.603  0.00  0.00     0.171 HD
BRANCH  26  29
ATOM     29  C   UNL d   1      30.380 -18.033  -5.718  0.00  0.00     0.072 A 
ATOM     30  C   UNL d   1      30.450 -19.407  -5.562  0.00  0.00     0.025 A 
ATOM     31  C   UNL d   1      31.139 -20.056  -6.641  0.00  0.00     0.009 A 
ATOM     32  C   UNL d   1      31.585 -19.165  -7.591  0.00  0.00     0.050 A 
ATOM     33  S   UNL d   1      31.148 -17.561  -7.198  0.00  0.00    -0.097 SA
ENDBRANCH  26  29
ENDBRANCH  23  25
ENDBRANCH  21  23
ENDBRANCH   3  21
TORSDOF 7
ENDMDL
MODEL 5
REMARK VINA RESULT:    -9.665      3.889      5.348
REMARK INTER + INTRA:         -13.855
REMARK INTER:                 -11.753
REMARK INTRA:                  -2.101
REMARK CONF_INDEPENDENT:        2.088
REMARK UNBOUND:                -2.101
REMARK  7 active torsions:
REMARK  status: ('A' for Active; 'I' for Inactive)
REMARK       I    between atoms: C_2  and  N_3 
REMARK    1  A    between atoms: C_2  and  C_15 
REMARK    2  A    between atoms: N_3  and  N_4 
REMARK    3  A    between atoms: N_4  and  C_5 
REMARK    4  A    between atoms: C_5  and  N_7 
REMARK       I    between atoms: N_7  and  C_8 
REMARK    5  A    between atoms: C_8  and  C_10 
REMARK    6  A    between atoms: C_18  and  N_19 
REMARK       I    between atoms: N_19  and  C_20 
REMARK    7  A    between atoms: C_20  and  C_22 
ROOT
ATOM      1  O   UNL d   1      27.633 -15.697  -2.440  0.00  0.00    -0.266 OA
ATOM      2  C   UNL d   1      26.797 -15.362  -1.604  0.00  0.00     0.270 C 
ATOM      3  N   UNL d   1      26.810 -14.121  -0.986  0.00  0.00    -0.264 N 
ATOM      4  H   UNL d   1      26.208 -13.915  -0.188  0.00  0.00     0.190 HD
ENDROOT
BRANCH   2   5
ATOM      5  C   UNL d   1      25.728 -16.332  -1.154  0.00  0.00     0.033 A 
ATOM      6  C   UNL d   1      25.990 -17.576  -0.555  0.00  0.00     0.019 A 
ATOM      7  C   UNL d   1      24.929 -18.462  -0.211  0.00  0.00     0.030 A 
ATOM      8  C   UNL d   1      23.586 -18.097  -0.399  0.00  0.00     0.035 A 
ATOM      9  C   UNL d   1      23.349 -16.852  -0.986  0.00  0.00     0.030 A 
ATOM     10  C   UNL d   1      24.392 -15.978  -1.345  0.00  0.00     0.019 A 
BRANCH   8  11
ATOM     11  N   UNL d   1      22.529 -18.958   0.035  0.00  0.00    -0.323 N 
ATOM     12  C   UNL d   1      21.176 -18.768  -0.250  0.00  0.00     0.256 C 
ATOM     13  O   UNL d   1      20.697 -17.868  -0.938  0.00  0.00    -0.267 OA
ATOM     14  H   UNL d   1      22.783 -19.759   0.602  0.00  0.00     0.169 HD
BRANCH  12  15
ATOM     15  C   UNL d   1      20.179 -19.712   0.318  0.00  0.00     0.032 A 
ATOM     16  C   UNL d   1      19.129 -20.131  -0.520  0.00  0.00     0.017 A 
ATOM     17  C   UNL d   1      18.036 -20.825   0.001  0.00  0.00     0.001 A 
ATOM     18  C   UNL d   1      18.010 -21.151   1.354  0.00  0.00     0.000 A 
ATOM     19  C   UNL d   1      19.055 -20.746   2.191  0.00  0.00     0.001 A 
ATOM     20  C   UNL d   1      20.135 -20.016   1.680  0.00  0.00     0.017 A 
ENDBRANCH  12  15
ENDBRANCH   8  11
ENDBRANCH   2   5
BRANCH   3  21
ATOM     21  N   UNL d   1      27.851 -13.133  -1.240  0.00  0.00    -0.273 N 
ATOM     22  H   UNL d   1      28.410 -13.306  -2.075  0.00  0.00     0.189 HD
BRANCH  21  23
ATOM     23  C   UNL d   1      27.997 -12.060  -0.338  0.00  0.00     0.193 C 
ATOM     24  S   UNL d   1      27.964 -10.477  -0.932  0.00  0.00    -0.039 SA
BRANCH  23  25
ATOM     25  N   UNL d   1      28.184 -12.414   1.021  0.00  0.00    -0.298 N 
ATOM     26  C   UNL d   1      27.219 -12.976   1.900  0.00  0.00     0.264 C 
ATOM     27  O   UNL d   1      26.066 -13.235   1.534  0.00  0.00    -0.267 OA
ATOM     28  H   UNL d   1      29.111 -12.304   1.410  0.00  0.00     0.171 HD
BRANCH  26  29
ATOM     29  C   UNL d   1      27.597 -13.258   3.288  0.00  0.00     0.072 A 
ATOM     30  C   UNL d   1      27.780 -14.454   3.960  0.00  0.00     0.025 A 
ATOM     31  C   UNL d   1      28.313 -14.275   5.281  0.00  0.00     0.009 A 
ATOM     32  C   UNL d   1      28.519 -12.949   5.589  0.00  0.00     0.050 A 
ATOM     33  S   UNL d   1      28.101 -11.932   4.282  0.00  0.00    -0.097 SA
ENDBRANCH  26  29
ENDBRANCH  23  25
ENDBRANCH  21  23
ENDBRANCH   3  21
TORSDOF 7
ENDMDL
MODEL 6
REMARK VINA RESULT:    -9.624      1.510      2.100
REMARK INTER + INTRA:         -13.568
REMARK INTER:                 -11.712
REMARK INTRA:                  -1.856
REMARK CONF_INDEPENDENT:        2.088
REMARK UNBOUND:                -1.856
REMARK  7 active torsions:
REMARK  status: ('A' for Active; 'I' for Inactive)
REMARK       I    between atoms: C_2  and  N_3 
REMARK    1  A    between atoms: C_2  and  C_15 
REMARK    2  A    between atoms: N_3  and  N_4 
REMARK    3  A    between atoms: N_4  and  C_5 
REMARK    4  A    between atoms: C_5  and  N_7 
REMARK       I    between atoms: N_7  and  C_8 
REMARK    5  A    between atoms: C_8  and  C_10 
REMARK    6  A    between atoms: C_18  and  N_19 
REMARK       I    between atoms: N_19  and  C_20 
REMARK    7  A    between atoms: C_20  and  C_22 
ROOT
ATOM      1  O   UNL d   1      28.184 -16.108  -1.047  0.00  0.00    -0.266 OA
ATOM      2  C   UNL d   1      27.133 -15.979  -1.671  0.00  0.00     0.270 C 
ATOM      3  N   UNL d   1      27.023 -15.181  -2.800  0.00  0.00    -0.264 N 
ATOM      4  H   UNL d   1      26.116 -14.963  -3.214  0.00  0.00     0.190 HD
ENDROOT
BRANCH   2   5
ATOM      5  C   UNL d   1      25.865 -16.649  -1.188  0.00  0.00     0.033 A 
ATOM      6  C   UNL d   1      24.579 -16.103  -1.333  0.00  0.00     0.019 A 
ATOM      7  C   UNL d   1      23.437 -16.767  -0.799  0.00  0.00     0.030 A 
ATOM      8  C   UNL d   1      23.550 -18.017  -0.170  0.00  0.00     0.035 A 
ATOM      9  C   UNL d   1      24.838 -18.545  -0.047  0.00  0.00     0.030 A 
ATOM     10  C   UNL d   1      25.973 -17.887  -0.555  0.00  0.00     0.019 A 
BRANCH   8  11
ATOM     11  N   UNL d   1      22.385 -18.716   0.280  0.00  0.00    -0.323 N 
ATOM     12  C   UNL d   1      21.117 -18.604  -0.292  0.00  0.00     0.256 C 
ATOM     13  O   UNL d   1      20.820 -17.930  -1.276  0.00  0.00    -0.267 OA
ATOM     14  H   UNL d   1      22.489 -19.327   1.082  0.00  0.00     0.169 HD
BRANCH  12  15
ATOM     15  C   UNL d   1      19.983 -19.345   0.319  0.00  0.00     0.032 A 
ATOM     16  C   UNL d   1      20.036 -19.589   1.704  0.00  0.00     0.017 A 
ATOM     17  C   UNL d   1      19.137 -20.470   2.307  0.00  0.00     0.001 A 
ATOM     18  C   UNL d   1      18.145 -21.073   1.540  0.00  0.00     0.000 A 
ATOM     19  C   UNL d   1      18.080 -20.828   0.164  0.00  0.00     0.001 A 
ATOM     20  C   UNL d   1      19.004 -19.975  -0.453  0.00  0.00     0.017 A 
ENDBRANCH  12  15
ENDBRANCH   8  11
ENDBRANCH   2   5
BRANCH   3  21
ATOM     21  N   UNL d   1      28.137 -14.389  -3.307  0.00  0.00    -0.273 N 
ATOM     22  H   UNL d   1      28.862 -14.184  -2.621  0.00  0.00     0.189 HD
BRANCH  21  23
ATOM     23  C   UNL d   1      28.115 -13.982  -4.656  0.00  0.00     0.193 C 
ATOM     24  S   UNL d   1      28.760 -15.011  -5.834  0.00  0.00    -0.039 SA
BRANCH  23  25
ATOM     25  N   UNL d   1      27.558 -12.706  -4.911  0.00  0.00    -0.298 N 
ATOM     26  C   UNL d   1      26.270 -12.241  -4.527  0.00  0.00     0.264 C 
ATOM     27  O   UNL d   1      25.478 -12.946  -3.890  0.00  0.00    -0.267 OA
ATOM     28  H   UNL d   1      28.143 -12.023  -5.373  0.00  0.00     0.171 HD
BRANCH  26  29
ATOM     29  C   UNL d   1      25.861 -10.884  -4.901  0.00  0.00     0.072 A 
ATOM     30  C   UNL d   1      25.528 -10.336  -6.128  0.00  0.00     0.025 A 
ATOM     31  C   UNL d   1      25.024  -8.997  -6.022  0.00  0.00     0.009 A 
ATOM     32  C   UNL d   1      24.989  -8.551  -4.719  0.00  0.00     0.050 A 
ATOM     33  S   UNL d   1      25.532  -9.751  -3.633  0.00  0.00    -0.097 SA
ENDBRANCH  26  29
ENDBRANCH  23  25
ENDBRANCH  21  23
ENDBRANCH   3  21
TORSDOF 7
ENDMDL
MODEL 7
REMARK VINA RESULT:    -9.207      2.147      2.983
REMARK INTER + INTRA:         -12.752
REMARK INTER:                 -11.295
REMARK INTRA:                  -1.456
REMARK CONF_INDEPENDENT:        2.088
REMARK UNBOUND:                -1.456
REMARK  7 active torsions:
REMARK  status: ('A' for Active; 'I' for Inactive)
REMARK       I    between atoms: C_2  and  N_3 
REMARK    1  A    between atoms: C_2  and  C_15 
REMARK    2  A    between atoms: N_3  and  N_4 
REMARK    3  A    between atoms: N_4  and  C_5 
REMARK    4  A    between atoms: C_5  and  N_7 
REMARK       I    between atoms: N_7  and  C_8 
REMARK    5  A    between atoms: C_8  and  C_10 
REMARK    6  A    between atoms: C_18  and  N_19 
REMARK       I    between atoms: N_19  and  C_20 
REMARK    7  A    between atoms: C_20  and  C_22 
ROOT
ATOM      1  O   UNL d   1      28.096 -16.291  -1.434  0.00  0.00    -0.266 OA
ATOM      2  C   UNL d   1      27.014 -16.118  -1.990  0.00  0.00     0.270 C 
ATOM      3  N   UNL d   1      26.871 -15.338  -3.128  0.00  0.00    -0.264 N 
ATOM      4  H   UNL d   1      25.951 -15.080  -3.486  0.00  0.00     0.190 HD
ENDROOT
BRANCH   2   5
ATOM      5  C   UNL d   1      25.749 -16.710  -1.410  0.00  0.00     0.033 A 
ATOM      6  C   UNL d   1      24.477 -16.124  -1.526  0.00  0.00     0.019 A 
ATOM      7  C   UNL d   1      23.339 -16.712  -0.901  0.00  0.00     0.030 A 
ATOM      8  C   UNL d   1      23.439 -17.927  -0.205  0.00  0.00     0.035 A 
ATOM      9  C   UNL d   1      24.712 -18.497  -0.112  0.00  0.00     0.030 A 
ATOM     10  C   UNL d   1      25.843 -17.914  -0.711  0.00  0.00     0.019 A 
BRANCH   8  11
ATOM     11  N   UNL d   1      22.273 -18.554   0.339  0.00  0.00    -0.323 N 
ATOM     12  C   UNL d   1      21.211 -19.057  -0.414  0.00  0.00     0.256 C 
ATOM     13  O   UNL d   1      21.134 -19.073  -1.641  0.00  0.00    -0.267 OA
ATOM     14  H   UNL d   1      22.211 -18.625   1.348  0.00  0.00     0.169 HD
BRANCH  12  15
ATOM     15  C   UNL d   1      20.035 -19.629   0.290  0.00  0.00     0.032 A 
ATOM     16  C   UNL d   1      20.099 -19.723   1.693  0.00  0.00     0.017 A 
ATOM     17  C   UNL d   1      19.145 -20.454   2.402  0.00  0.00     0.001 A 
ATOM     18  C   UNL d   1      18.089 -21.051   1.720  0.00  0.00     0.000 A 
ATOM     19  C   UNL d   1      18.013 -20.953   0.327  0.00  0.00     0.001 A 
ATOM     20  C   UNL d   1      18.990 -20.254  -0.393  0.00  0.00     0.017 A 
ENDBRANCH  12  15
ENDBRANCH   8  11
ENDBRANCH   2   5
BRANCH   3  21
ATOM     21  N   UNL d   1      27.988 -14.616  -3.725  0.00  0.00    -0.273 N 
ATOM     22  H   UNL d   1      28.908 -14.908  -3.399  0.00  0.00     0.189 HD
BRANCH  21  23
ATOM     23  C   UNL d   1      27.710 -13.605  -4.667  0.00  0.00     0.193 C 
ATOM     24  S   UNL d   1      26.232 -12.788  -4.580  0.00  0.00    -0.039 SA
BRANCH  23  25
ATOM     25  N   UNL d   1      28.711 -13.371  -5.641  0.00  0.00    -0.298 N 
ATOM     26  C   UNL d   1      29.309 -14.331  -6.502  0.00  0.00     0.264 C 
ATOM     27  O   UNL d   1      28.982 -15.525  -6.487  0.00  0.00    -0.267 OA
ATOM     28  H   UNL d   1      29.011 -12.416  -5.784  0.00  0.00     0.171 HD
BRANCH  26  29
ATOM     29  C   UNL d   1      30.351 -13.899  -7.437  0.00  0.00     0.072 A 
ATOM     30  C   UNL d   1      31.573 -14.460  -7.765  0.00  0.00     0.025 A 
ATOM     31  C   UNL d   1      32.216 -13.792  -8.861  0.00  0.00     0.009 A 
ATOM     32  C   UNL d   1      31.475 -12.735  -9.340  0.00  0.00     0.050 A 
ATOM     33  S   UNL d   1      30.001 -12.570  -8.492  0.00  0.00    -0.097 SA
ENDBRANCH  26  29
ENDBRANCH  23  25
ENDBRANCH  21  23
ENDBRANCH   3  21
TORSDOF 7
ENDMDL
MODEL 8
REMARK VINA RESULT:    -9.046      1.545      2.072
REMARK INTER + INTRA:         -13.002
REMARK INTER:                 -11.134
REMARK INTRA:                  -1.869
REMARK CONF_INDEPENDENT:        2.088
REMARK UNBOUND:                -1.869
REMARK  7 active torsions:
REMARK  status: ('A' for Active; 'I' for Inactive)
REMARK       I    between atoms: C_2  and  N_3 
REMARK    1  A    between atoms: C_2  and  C_15 
REMARK    2  A    between atoms: N_3  and  N_4 
REMARK    3  A    between atoms: N_4  and  C_5 
REMARK    4  A    between atoms: C_5  and  N_7 
REMARK       I    between atoms: N_7  and  C_8 
REMARK    5  A    between atoms: C_8  and  C_10 
REMARK    6  A    between atoms: C_18  and  N_19 
REMARK       I    between atoms: N_19  and  C_20 
REMARK    7  A    between atoms: C_20  and  C_22 
ROOT
ATOM      1  O   UNL d   1      27.208 -15.471  -2.812  0.00  0.00    -0.266 OA
ATOM      2  C   UNL d   1      27.204 -16.210  -1.831  0.00  0.00     0.270 C 
ATOM      3  N   UNL d   1      28.367 -16.623  -1.198  0.00  0.00    -0.264 N 
ATOM      4  H   UNL d   1      28.357 -17.354  -0.486  0.00  0.00     0.190 HD
ENDROOT
BRANCH   2   5
ATOM      5  C   UNL d   1      25.905 -16.768  -1.293  0.00  0.00     0.033 A 
ATOM      6  C   UNL d   1      24.634 -16.265  -1.618  0.00  0.00     0.019 A 
ATOM      7  C   UNL d   1      23.458 -16.806  -1.024  0.00  0.00     0.030 A 
ATOM      8  C   UNL d   1      23.524 -17.901  -0.147  0.00  0.00     0.035 A 
ATOM      9  C   UNL d   1      24.797 -18.392   0.153  0.00  0.00     0.030 A 
ATOM     10  C   UNL d   1      25.965 -17.851  -0.415  0.00  0.00     0.019 A 
BRANCH   8  11
ATOM     11  N   UNL d   1      22.328 -18.494   0.370  0.00  0.00    -0.323 N 
ATOM     12  C   UNL d   1      21.322 -19.072  -0.406  0.00  0.00     0.256 C 
ATOM     13  O   UNL d   1      21.327 -19.192  -1.630  0.00  0.00    -0.267 OA
ATOM     14  H   UNL d   1      22.199 -18.481   1.376  0.00  0.00     0.169 HD
BRANCH  12  15
ATOM     15  C   UNL d   1      20.105 -19.597   0.265  0.00  0.00     0.032 A 
ATOM     16  C   UNL d   1      20.132 -19.707   1.668  0.00  0.00     0.017 A 
ATOM     17  C   UNL d   1      19.130 -20.401   2.347  0.00  0.00     0.001 A 
ATOM     18  C   UNL d   1      18.065 -20.945   1.634  0.00  0.00     0.000 A 
ATOM     19  C   UNL d   1      18.027 -20.831   0.241  0.00  0.00     0.001 A 
ATOM     20  C   UNL d   1      19.050 -20.169  -0.449  0.00  0.00     0.017 A 
ENDBRANCH  12  15
ENDBRANCH   8  11
ENDBRANCH   2   5
BRANCH   3  21
ATOM     21  N   UNL d   1      29.692 -16.254  -1.682  0.00  0.00    -0.273 N 
ATOM     22  H   UNL d   1      30.281 -15.784  -0.996  0.00  0.00     0.189 HD
BRANCH  21  23
ATOM     23  C   UNL d   1      30.032 -16.562  -3.014  0.00  0.00     0.193 C 
ATOM     24  S   UNL d   1      30.845 -18.009  -3.339  0.00  0.00    -0.039 SA
BRANCH  23  25
ATOM     25  N   UNL d   1      29.672 -15.597  -3.986  0.00  0.00    -0.298 N 
ATOM     26  C   UNL d   1      30.203 -15.462  -5.297  0.00  0.00     0.264 C 
ATOM     27  O   UNL d   1      31.071 -16.226  -5.739  0.00  0.00    -0.267 OA
ATOM     28  H   UNL d   1      28.924 -14.957  -3.755  0.00  0.00     0.171 HD
BRANCH  26  29
ATOM     29  C   UNL d   1      29.714 -14.380  -6.156  0.00  0.00     0.072 A 
ATOM     30  C   UNL d   1      30.268 -13.782  -7.276  0.00  0.00     0.025 A 
ATOM     31  C   UNL d   1      29.371 -12.862  -7.916  0.00  0.00     0.009 A 
ATOM     32  C   UNL d   1      28.159 -12.773  -7.269  0.00  0.00     0.050 A 
ATOM     33  S   UNL d   1      28.094 -13.815  -5.918  0.00  0.00    -0.097 SA
ENDBRANCH  26  29
ENDBRANCH  23  25
ENDBRANCH  21  23
ENDBRANCH   3  21
TORSDOF 7
ENDMDL
MODEL 9
REMARK VINA RESULT:    -8.601      1.942      4.035
REMARK INTER + INTRA:         -12.770
REMARK INTER:                 -10.689
REMARK INTRA:                  -2.081
REMARK CONF_INDEPENDENT:        2.088
REMARK UNBOUND:                -2.081
REMARK  7 active torsions:
REMARK  status: ('A' for Active; 'I' for Inactive)
REMARK       I    between atoms: C_2  and  N_3 
REMARK    1  A    between atoms: C_2  and  C_15 
REMARK    2  A    between atoms: N_3  and  N_4 
REMARK    3  A    between atoms: N_4  and  C_5 
REMARK    4  A    between atoms: C_5  and  N_7 
REMARK       I    between atoms: N_7  and  C_8 
REMARK    5  A    between atoms: C_8  and  C_10 
REMARK    6  A    between atoms: C_18  and  N_19 
REMARK       I    between atoms: N_19  and  C_20 
REMARK    7  A    between atoms: C_20  and  C_22 
ROOT
ATOM      1  O   UNL d   1      27.451 -14.905  -1.589  0.00  0.00    -0.266 OA
ATOM      2  C   UNL d   1      26.572 -15.450  -2.252  0.00  0.00     0.270 C 
ATOM      3  N   UNL d   1      26.449 -15.276  -3.622  0.00  0.00    -0.264 N 
ATOM      4  H   UNL d   1      25.629 -15.609  -4.131  0.00  0.00     0.190 HD
ENDROOT
BRANCH   2   5
ATOM      5  C   UNL d   1      25.521 -16.306  -1.580  0.00  0.00     0.033 A 
ATOM      6  C   UNL d   1      25.798 -17.484  -0.866  0.00  0.00     0.019 A 
ATOM      7  C   UNL d   1      24.748 -18.269  -0.310  0.00  0.00     0.030 A 
ATOM      8  C   UNL d   1      23.408 -17.859  -0.400  0.00  0.00     0.035 A 
ATOM      9  C   UNL d   1      23.156 -16.679  -1.106  0.00  0.00     0.030 A 
ATOM     10  C   UNL d   1      24.187 -15.908  -1.673  0.00  0.00     0.019 A 
BRANCH   8  11
ATOM     11  N   UNL d   1      22.371 -18.608   0.241  0.00  0.00    -0.323 N 
ATOM     12  C   UNL d   1      21.317 -19.242  -0.420  0.00  0.00     0.256 C 
ATOM     13  O   UNL d   1      21.143 -19.285  -1.636  0.00  0.00    -0.267 OA
ATOM     14  H   UNL d   1      22.400 -18.672   1.252  0.00  0.00     0.169 HD
BRANCH  12  15
ATOM     15  C   UNL d   1      20.277 -19.937   0.381  0.00  0.00     0.032 A 
ATOM     16  C   UNL d   1      19.152 -20.433  -0.303  0.00  0.00     0.017 A 
ATOM     17  C   UNL d   1      18.034 -20.886   0.398  0.00  0.00     0.001 A 
ATOM     18  C   UNL d   1      18.052 -20.895   1.790  0.00  0.00     0.000 A 
ATOM     19  C   UNL d   1      19.171 -20.412   2.477  0.00  0.00     0.001 A 
ATOM     20  C   UNL d   1      20.280 -19.920   1.778  0.00  0.00     0.017 A 
ENDBRANCH  12  15
ENDBRANCH   8  11
ENDBRANCH   2   5
BRANCH   3  21
ATOM     21  N   UNL d   1      27.323 -14.387  -4.378  0.00  0.00    -0.273 N 
ATOM     22  H   UNL d   1      26.913 -13.485  -4.614  0.00  0.00     0.189 HD
BRANCH  21  23
ATOM     23  C   UNL d   1      28.616 -14.839  -4.712  0.00  0.00     0.193 C 
ATOM     24  S   UNL d   1      29.366 -14.226  -6.098  0.00  0.00    -0.039 SA
BRANCH  23  25
ATOM     25  N   UNL d   1      29.178 -15.808  -3.846  0.00  0.00    -0.298 N 
ATOM     26  C   UNL d   1      29.978 -16.923  -4.212  0.00  0.00     0.264 C 
ATOM     27  O   UNL d   1      30.285 -17.156  -5.388  0.00  0.00    -0.267 OA
ATOM     28  H   UNL d   1      29.044 -15.681  -2.851  0.00  0.00     0.171 HD
BRANCH  26  29
ATOM     29  C   UNL d   1      30.456 -17.833  -3.167  0.00  0.00     0.072 A 
ATOM     30  C   UNL d   1      31.250 -18.965  -3.235  0.00  0.00     0.025 A 
ATOM     31  C   UNL d   1      31.613 -19.469  -1.941  0.00  0.00     0.009 A 
ATOM     32  C   UNL d   1      31.085 -18.715  -0.916  0.00  0.00     0.050 A 
ATOM     33  S   UNL d   1      30.182 -17.394  -1.514  0.00  0.00    -0.097 SA
ENDBRANCH  26  29
ENDBRANCH  23  25
ENDBRANCH  21  23
ENDBRANCH   3  21
TORSDOF 7
ENDMDL
