MODEL 1
REMARK VINA RESULT:   -10.689      0.000      0.000
REMARK INTER + INTRA:         -17.363
REMARK INTER:                 -14.865
REMARK INTRA:                  -2.497
REMARK CONF_INDEPENDENT:        4.176
REMARK UNBOUND:                -2.497
REMARK  14 active torsions:
REMARK  status: ('A' for Active; 'I' for Inactive)
REMARK    1  A    between atoms: C_2  and  C_3 
REMARK    2  A    between atoms: C_3  and  N_4 
REMARK       I    between atoms: N_4  and  C_5 
REMARK    3  A    between atoms: N_4  and  C_17 
REMARK    4  A    between atoms: C_5  and  C_7 
REMARK    5  A    between atoms: C_7  and  N_8 
REMARK       I    between atoms: N_8  and  C_9 
REMARK    6  A    between atoms: C_9  and  C_11 
REMARK    7  A    between atoms: C_17  and  C_18 
REMARK    8  A    between atoms: C_17  and  C_29 
REMARK       I    between atoms: C_18  and  N_20 
REMARK    9  A    between atoms: N_20  and  C_21 
REMARK   10  A    between atoms: C_21  and  C_24 
REMARK   11  A    between atoms: C_24  and  C_25 
REMARK   12  A    between atoms: C_30  and  O_31 
REMARK   13  A    between atoms: C_33  and  O_34 
REMARK   14  A    between atoms: C_36  and  O_37 
ROOT
ATOM      1  C   UNL d   1      25.683 -15.244  -1.697  0.00  0.00     0.218 C 
ENDROOT
BRANCH   1   2
ATOM      2  N   UNL d   1      25.452 -16.668  -1.247  0.00  0.00    -0.333 N 
ATOM      3  C   UNL d   1      24.224 -16.993  -0.585  0.00  0.00     0.238 C 
ATOM      4  O   UNL d   1      23.423 -16.167  -0.146  0.00  0.00    -0.272 OA
BRANCH   2   5
ATOM      5  C   UNL d   1      26.694 -17.448  -1.020  0.00  0.00     0.127 C 
BRANCH   5   6
ATOM      6  C   UNL d   1      27.179 -17.518   0.400  0.00  0.00     0.015 C 
ATOM      7  C   UNL d   1      26.620 -18.572   1.297  0.00  0.00     0.006 C 
ENDBRANCH   5   6
ENDBRANCH   2   5
BRANCH   3   8
ATOM      8  C   UNL d   1      23.808 -18.467  -0.566  0.00  0.00     0.225 C 
BRANCH   8   9
ATOM      9  N   UNL d   1      22.668 -18.838   0.215  0.00  0.00    -0.348 N 
ATOM     10  C   UNL d   1      21.523 -19.147  -0.493  0.00  0.00     0.252 C 
ATOM     11  O   UNL d   1      21.424 -19.057  -1.704  0.00  0.00    -0.268 OA
ATOM     12  H   UNL d   1      22.780 -18.976   1.209  0.00  0.00     0.163 HD
BRANCH  10  13
ATOM     13  C   UNL d   1      20.389 -19.637   0.300  0.00  0.00     0.032 A 
ATOM     14  C   UNL d   1      20.461 -19.516   1.691  0.00  0.00     0.017 A 
ATOM     15  C   UNL d   1      19.466 -20.085   2.477  0.00  0.00     0.001 A 
ATOM     16  C   UNL d   1      18.379 -20.714   1.870  0.00  0.00     0.000 A 
ATOM     17  C   UNL d   1      18.305 -20.819   0.480  0.00  0.00     0.001 A 
ATOM     18  C   UNL d   1      19.319 -20.286  -0.314  0.00  0.00     0.017 A 
ENDBRANCH  10  13
ENDBRANCH   8   9
ENDBRANCH   3   8
ENDBRANCH   1   2
BRANCH   1  19
ATOM     19  C   UNL d   1      26.566 -14.400  -0.723  0.00  0.00     0.246 C 
ATOM     20  O   UNL d   1      27.188 -13.424  -1.160  0.00  0.00    -0.271 OA
ATOM     21  N   UNL d   1      26.652 -14.740   0.626  0.00  0.00    -0.351 N 
ATOM     22  H   UNL d   1      25.998 -15.383   1.050  0.00  0.00     0.163 HD
BRANCH  21  23
ATOM     23  C   UNL d   1      27.589 -13.989   1.491  0.00  0.00     0.026 C 
ATOM     24  C   UNL d   1      28.942 -13.944   0.746  0.00  0.00     0.038 C 
ATOM     25  C   UNL d   1      26.978 -12.590   1.680  0.00  0.00     0.038 C 
BRANCH  23  26
ATOM     26  C   UNL d   1      27.778 -14.704   2.890  0.00  0.00     0.038 C 
BRANCH  26  27
ATOM     27  C   UNL d   1      28.472 -13.905   4.065  0.00  0.00    -0.049 C 
ATOM     28  C   UNL d   1      29.166 -14.817   5.089  0.00  0.00     0.014 C 
ATOM     29  C   UNL d   1      29.471 -12.850   3.564  0.00  0.00     0.014 C 
ATOM     30  C   UNL d   1      27.417 -13.120   4.867  0.00  0.00     0.014 C 
ENDBRANCH  26  27
ENDBRANCH  23  26
ENDBRANCH  21  23
ENDBRANCH   1  19
BRANCH   1  31
ATOM     31  C   UNL d   1      26.419 -15.141  -3.032  0.00  0.00     0.040 C 
ATOM     32  C   UNL d   1      27.809 -15.374  -3.142  0.00  0.00     0.080 C 
ATOM     33  C   UNL d   1      28.447 -15.330  -4.367  0.00  0.00     0.073 C 
ATOM     34  C   UNL d   1      27.721 -14.957  -5.488  0.00  0.00     0.071 C 
ATOM     35  C   UNL d   1      26.386 -14.576  -5.394  0.00  0.00     0.073 C 
ATOM     36  C   UNL d   1      25.734 -14.681  -4.168  0.00  0.00     0.080 C 
BRANCH  32  37
ATOM     37  O   UNL d   1      28.622 -15.708  -2.087  0.00  0.00    -0.360 OA
ATOM     38  H   UNL d   1      28.186 -15.446  -1.261  0.00  0.00     0.217 HD
ENDBRANCH  32  37
BRANCH  34  39
ATOM     39  O   UNL d   1      28.310 -14.955  -6.718  0.00  0.00    -0.361 OA
ATOM     40  H   UNL d   1      28.523 -14.032  -6.937  0.00  0.00     0.217 HD
ENDBRANCH  34  39
BRANCH  36  41
ATOM     41  O   UNL d   1      24.419 -14.316  -4.048  0.00  0.00    -0.360 OA
ATOM     42  H   UNL d   1      24.082 -14.074  -4.929  0.00  0.00     0.217 HD
ENDBRANCH  36  41
ENDBRANCH   1  31
TORSDOF 14
ENDMDL
MODEL 2
REMARK VINA RESULT:   -10.490      0.666      1.557
REMARK INTER + INTRA:         -17.116
REMARK INTER:                 -14.666
REMARK INTRA:                  -2.450
REMARK CONF_INDEPENDENT:        4.176
REMARK UNBOUND:                -2.450
REMARK  14 active torsions:
REMARK  status: ('A' for Active; 'I' for Inactive)
REMARK    1  A    between atoms: C_2  and  C_3 
REMARK    2  A    between atoms: C_3  and  N_4 
REMARK       I    between atoms: N_4  and  C_5 
REMARK    3  A    between atoms: N_4  and  C_17 
REMARK    4  A    between atoms: C_5  and  C_7 
REMARK    5  A    between atoms: C_7  and  N_8 
REMARK       I    between atoms: N_8  and  C_9 
REMARK    6  A    between atoms: C_9  and  C_11 
REMARK    7  A    between atoms: C_17  and  C_18 
REMARK    8  A    between atoms: C_17  and  C_29 
REMARK       I    between atoms: C_18  and  N_20 
REMARK    9  A    between atoms: N_20  and  C_21 
REMARK   10  A    between atoms: C_21  and  C_24 
REMARK   11  A    between atoms: C_24  and  C_25 
REMARK   12  A    between atoms: C_30  and  O_31 
REMARK   13  A    between atoms: C_33  and  O_34 
REMARK   14  A    between atoms: C_36  and  O_37 
ROOT
ATOM      1  C   UNL d   1      25.604 -14.791  -1.480  0.00  0.00     0.218 C 
ENDROOT
BRANCH   1   2
ATOM      2  N   UNL d   1      25.322 -16.120  -0.817  0.00  0.00    -0.333 N 
ATOM      3  C   UNL d   1      23.980 -16.619  -0.813  0.00  0.00     0.238 C 
ATOM      4  O   UNL d   1      22.984 -15.958  -1.109  0.00  0.00    -0.272 OA
BRANCH   2   5
ATOM      5  C   UNL d   1      26.303 -16.503   0.228  0.00  0.00     0.127 C 
BRANCH   5   6
ATOM      6  C   UNL d   1      27.145 -17.710  -0.068  0.00  0.00     0.015 C 
ATOM      7  C   UNL d   1      26.926 -18.951   0.734  0.00  0.00     0.006 C 
ENDBRANCH   5   6
ENDBRANCH   2   5
BRANCH   3   8
ATOM      8  C   UNL d   1      23.792 -18.122  -0.580  0.00  0.00     0.225 C 
BRANCH   8   9
ATOM      9  N   UNL d   1      22.673 -18.550   0.202  0.00  0.00    -0.348 N 
ATOM     10  C   UNL d   1      21.569 -18.980  -0.507  0.00  0.00     0.252 C 
ATOM     11  O   UNL d   1      21.483 -18.950  -1.721  0.00  0.00    -0.268 OA
ATOM     12  H   UNL d   1      22.779 -18.637   1.203  0.00  0.00     0.163 HD
BRANCH  10  13
ATOM     13  C   UNL d   1      20.465 -19.526   0.292  0.00  0.00     0.032 A 
ATOM     14  C   UNL d   1      20.567 -19.456   1.684  0.00  0.00     0.017 A 
ATOM     15  C   UNL d   1      19.603 -20.078   2.470  0.00  0.00     0.001 A 
ATOM     16  C   UNL d   1      18.516 -20.709   1.864  0.00  0.00     0.000 A 
ATOM     17  C   UNL d   1      18.412 -20.762   0.472  0.00  0.00     0.001 A 
ATOM     18  C   UNL d   1      19.395 -20.176  -0.323  0.00  0.00     0.017 A 
ENDBRANCH  10  13
ENDBRANCH   8   9
ENDBRANCH   3   8
ENDBRANCH   1   2
BRANCH   1  19
ATOM     19  C   UNL d   1      26.566 -13.863  -0.671  0.00  0.00     0.246 C 
ATOM     20  O   UNL d   1      27.450 -13.237  -1.269  0.00  0.00    -0.271 OA
ATOM     21  N   UNL d   1      26.430 -13.739   0.710  0.00  0.00    -0.351 N 
ATOM     22  H   UNL d   1      25.599 -14.056   1.189  0.00  0.00     0.163 HD
BRANCH  21  23
ATOM     23  C   UNL d   1      27.432 -12.944   1.455  0.00  0.00     0.026 C 
ATOM     24  C   UNL d   1      28.813 -13.557   1.135  0.00  0.00     0.038 C 
ATOM     25  C   UNL d   1      27.302 -11.498   0.948  0.00  0.00     0.038 C 
BRANCH  23  26
ATOM     26  C   UNL d   1      27.173 -13.009   3.015  0.00  0.00     0.038 C 
BRANCH  26  27
ATOM     27  C   UNL d   1      28.396 -12.810   3.998  0.00  0.00    -0.049 C 
ATOM     28  C   UNL d   1      29.186 -14.105   4.249  0.00  0.00     0.014 C 
ATOM     29  C   UNL d   1      29.360 -11.706   3.538  0.00  0.00     0.014 C 
ATOM     30  C   UNL d   1      27.895 -12.363   5.384  0.00  0.00     0.014 C 
ENDBRANCH  26  27
ENDBRANCH  23  26
ENDBRANCH  21  23
ENDBRANCH   1  19
BRANCH   1  31
ATOM     31  C   UNL d   1      26.289 -14.924  -2.839  0.00  0.00     0.040 C 
ATOM     32  C   UNL d   1      25.620 -14.629  -4.049  0.00  0.00     0.080 C 
ATOM     33  C   UNL d   1      26.274 -14.703  -5.265  0.00  0.00     0.073 C 
ATOM     34  C   UNL d   1      27.581 -15.166  -5.296  0.00  0.00     0.071 C 
ATOM     35  C   UNL d   1      28.222 -15.605  -4.142  0.00  0.00     0.073 C 
ATOM     36  C   UNL d   1      27.580 -15.471  -2.914  0.00  0.00     0.080 C 
BRANCH  32  37
ATOM     37  O   UNL d   1      24.316 -14.205  -4.128  0.00  0.00    -0.360 OA
ATOM     38  H   UNL d   1      24.137 -13.917  -5.037  0.00  0.00     0.217 HD
ENDBRANCH  32  37
BRANCH  34  39
ATOM     39  O   UNL d   1      28.269 -15.200  -6.473  0.00  0.00    -0.361 OA
ATOM     40  H   UNL d   1      29.158 -15.542  -6.279  0.00  0.00     0.217 HD
ENDBRANCH  34  39
BRANCH  36  41
ATOM     41  O   UNL d   1      28.191 -15.892  -1.762  0.00  0.00    -0.360 OA
ATOM     42  H   UNL d   1      28.235 -15.143  -1.142  0.00  0.00     0.217 HD
ENDBRANCH  36  41
ENDBRANCH   1  31
TORSDOF 14
ENDMDL
MODEL 3
REMARK VINA RESULT:    -9.383      1.492      2.279
REMARK INTER + INTRA:         -16.678
REMARK INTER:                 -13.559
REMARK INTRA:                  -3.119
REMARK CONF_INDEPENDENT:        4.176
REMARK UNBOUND:                -3.119
REMARK  14 active torsions:
REMARK  status: ('A' for Active; 'I' for Inactive)
REMARK    1  A    between atoms: C_2  and  C_3 
REMARK    2  A    between atoms: C_3  and  N_4 
REMARK       I    between atoms: N_4  and  C_5 
REMARK    3  A    between atoms: N_4  and  C_17 
REMARK    4  A    between atoms: C_5  and  C_7 
REMARK    5  A    between atoms: C_7  and  N_8 
REMARK       I    between atoms: N_8  and  C_9 
REMARK    6  A    between atoms: C_9  and  C_11 
REMARK    7  A    between atoms: C_17  and  C_18 
REMARK    8  A    between atoms: C_17  and  C_29 
REMARK       I    between atoms: C_18  and  N_20 
REMARK    9  A    between atoms: N_20  and  C_21 
REMARK   10  A    between atoms: C_21  and  C_24 
REMARK   11  A    between atoms: C_24  and  C_25 
REMARK   12  A    between atoms: C_30  and  O_31 
REMARK   13  A    between atoms: C_33  and  O_34 
REMARK   14  A    between atoms: C_36  and  O_37 
ROOT
ATOM      1  C   UNL d   1      25.299 -15.412  -1.690  0.00  0.00     0.218 C 
ENDROOT
BRANCH   1   2
ATOM      2  N   UNL d   1      24.942 -16.859  -1.441  0.00  0.00    -0.333 N 
ATOM      3  C   UNL d   1      23.574 -17.201  -1.194  0.00  0.00     0.238 C 
ATOM      4  O   UNL d   1      22.682 -16.389  -0.943  0.00  0.00    -0.272 OA
BRANCH   2   5
ATOM      5  C   UNL d   1      26.061 -17.686  -0.924  0.00  0.00     0.127 C 
BRANCH   5   6
ATOM      6  C   UNL d   1      25.741 -18.574   0.244  0.00  0.00     0.015 C 
ATOM      7  C   UNL d   1      26.655 -18.564   1.424  0.00  0.00     0.006 C 
ENDBRANCH   5   6
ENDBRANCH   2   5
BRANCH   3   8
ATOM      8  C   UNL d   1      23.165 -18.661  -1.414  0.00  0.00     0.225 C 
BRANCH   8   9
ATOM      9  N   UNL d   1      22.319 -19.281  -0.442  0.00  0.00    -0.348 N 
ATOM     10  C   UNL d   1      20.980 -18.945  -0.502  0.00  0.00     0.252 C 
ATOM     11  O   UNL d   1      20.516 -18.127  -1.275  0.00  0.00    -0.268 OA
ATOM     12  H   UNL d   1      22.700 -20.008   0.147  0.00  0.00     0.163 HD
BRANCH  10  13
ATOM     13  C   UNL d   1      20.095 -19.667   0.420  0.00  0.00     0.032 A 
ATOM     14  C   UNL d   1      19.050 -20.418  -0.127  0.00  0.00     0.017 A 
ATOM     15  C   UNL d   1      18.118 -21.006   0.720  0.00  0.00     0.001 A 
ATOM     16  C   UNL d   1      18.269 -20.894   2.101  0.00  0.00     0.000 A 
ATOM     17  C   UNL d   1      19.323 -20.155   2.642  0.00  0.00     0.001 A 
ATOM     18  C   UNL d   1      20.239 -19.528   1.800  0.00  0.00     0.017 A 
ENDBRANCH  10  13
ENDBRANCH   8   9
ENDBRANCH   3   8
ENDBRANCH   1   2
BRANCH   1  19
ATOM     19  C   UNL d   1      26.194 -14.773  -0.580  0.00  0.00     0.246 C 
ATOM     20  O   UNL d   1      26.631 -15.486   0.332  0.00  0.00    -0.271 OA
ATOM     21  N   UNL d   1      26.500 -13.414  -0.615  0.00  0.00    -0.351 N 
ATOM     22  H   UNL d   1      26.347 -12.860  -1.446  0.00  0.00     0.163 HD
BRANCH  21  23
ATOM     23  C   UNL d   1      27.251 -12.824   0.516  0.00  0.00     0.026 C 
ATOM     24  C   UNL d   1      27.427 -11.323   0.198  0.00  0.00     0.038 C 
ATOM     25  C   UNL d   1      26.397 -13.060   1.774  0.00  0.00     0.038 C 
BRANCH  23  26
ATOM     26  C   UNL d   1      28.672 -13.501   0.677  0.00  0.00     0.038 C 
BRANCH  26  27
ATOM     27  C   UNL d   1      29.686 -13.438  -0.535  0.00  0.00    -0.049 C 
ATOM     28  C   UNL d   1      30.423 -14.766  -0.776  0.00  0.00     0.014 C 
ATOM     29  C   UNL d   1      29.027 -12.977  -1.844  0.00  0.00     0.014 C 
ATOM     30  C   UNL d   1      30.791 -12.405  -0.248  0.00  0.00     0.014 C 
ENDBRANCH  26  27
ENDBRANCH  23  26
ENDBRANCH  21  23
ENDBRANCH   1  19
BRANCH   1  31
ATOM     31  C   UNL d   1      26.106 -15.197  -2.970  0.00  0.00     0.040 C 
ATOM     32  C   UNL d   1      27.466 -15.568  -3.071  0.00  0.00     0.080 C 
ATOM     33  C   UNL d   1      28.164 -15.416  -4.255  0.00  0.00     0.073 C 
ATOM     34  C   UNL d   1      27.537 -14.801  -5.328  0.00  0.00     0.071 C 
ATOM     35  C   UNL d   1      26.247 -14.290  -5.218  0.00  0.00     0.073 C 
ATOM     36  C   UNL d   1      25.530 -14.500  -4.043  0.00  0.00     0.080 C 
BRANCH  32  37
ATOM     37  O   UNL d   1      28.187 -16.144  -2.054  0.00  0.00    -0.360 OA
ATOM     38  H   UNL d   1      28.094 -15.598  -1.258  0.00  0.00     0.217 HD
ENDBRANCH  32  37
BRANCH  34  39
ATOM     39  O   UNL d   1      28.180 -14.684  -6.524  0.00  0.00    -0.361 OA
ATOM     40  H   UNL d   1      29.032 -14.246  -6.354  0.00  0.00     0.217 HD
ENDBRANCH  34  39
BRANCH  36  41
ATOM     41  O   UNL d   1      24.257 -14.010  -3.911  0.00  0.00    -0.360 OA
ATOM     42  H   UNL d   1      24.206 -13.151  -4.367  0.00  0.00     0.217 HD
ENDBRANCH  36  41
ENDBRANCH   1  31
TORSDOF 14
ENDMDL
MODEL 4
REMARK VINA RESULT:    -9.078      1.729      3.362
REMARK INTER + INTRA:         -16.036
REMARK INTER:                 -13.254
REMARK INTRA:                  -2.782
REMARK CONF_INDEPENDENT:        4.176
REMARK UNBOUND:                -2.782
REMARK  14 active torsions:
REMARK  status: ('A' for Active; 'I' for Inactive)
REMARK    1  A    between atoms: C_2  and  C_3 
REMARK    2  A    between atoms: C_3  and  N_4 
REMARK       I    between atoms: N_4  and  C_5 
REMARK    3  A    between atoms: N_4  and  C_17 
REMARK    4  A    between atoms: C_5  and  C_7 
REMARK    5  A    between atoms: C_7  and  N_8 
REMARK       I    between atoms: N_8  and  C_9 
REMARK    6  A    between atoms: C_9  and  C_11 
REMARK    7  A    between atoms: C_17  and  C_18 
REMARK    8  A    between atoms: C_17  and  C_29 
REMARK       I    between atoms: C_18  and  N_20 
REMARK    9  A    between atoms: N_20  and  C_21 
REMARK   10  A    between atoms: C_21  and  C_24 
REMARK   11  A    between atoms: C_24  and  C_25 
REMARK   12  A    between atoms: C_30  and  O_31 
REMARK   13  A    between atoms: C_33  and  O_34 
REMARK   14  A    between atoms: C_36  and  O_37 
ROOT
ATOM      1  C   UNL d   1      25.555 -14.841  -1.453  0.00  0.00     0.218 C 
ENDROOT
BRANCH   1   2
ATOM      2  N   UNL d   1      25.281 -16.180  -0.806  0.00  0.00    -0.333 N 
ATOM      3  C   UNL d   1      23.931 -16.651  -0.740  0.00  0.00     0.238 C 
ATOM      4  O   UNL d   1      22.935 -15.963  -0.964  0.00  0.00    -0.272 OA
BRANCH   2   5
ATOM      5  C   UNL d   1      26.310 -16.608   0.174  0.00  0.00     0.127 C 
BRANCH   5   6
ATOM      6  C   UNL d   1      26.985 -17.919  -0.108  0.00  0.00     0.015 C 
ATOM      7  C   UNL d   1      27.030 -18.950   0.971  0.00  0.00     0.006 C 
ENDBRANCH   5   6
ENDBRANCH   2   5
BRANCH   3   8
ATOM      8  C   UNL d   1      23.724 -18.155  -0.531  0.00  0.00     0.225 C 
BRANCH   8   9
ATOM      9  N   UNL d   1      22.597 -18.582   0.240  0.00  0.00    -0.348 N 
ATOM     10  C   UNL d   1      21.498 -19.009  -0.480  0.00  0.00     0.252 C 
ATOM     11  O   UNL d   1      21.424 -18.978  -1.695  0.00  0.00    -0.268 OA
ATOM     12  H   UNL d   1      22.694 -18.670   1.242  0.00  0.00     0.163 HD
BRANCH  10  13
ATOM     13  C   UNL d   1      20.386 -19.554   0.308  0.00  0.00     0.032 A 
ATOM     14  C   UNL d   1      20.460 -19.456   1.701  0.00  0.00     0.017 A 
ATOM     15  C   UNL d   1      19.489 -20.075   2.480  0.00  0.00     0.001 A 
ATOM     16  C   UNL d   1      18.422 -20.731   1.866  0.00  0.00     0.000 A 
ATOM     17  C   UNL d   1      18.346 -20.813   0.473  0.00  0.00     0.001 A 
ATOM     18  C   UNL d   1      19.337 -20.230  -0.314  0.00  0.00     0.017 A 
ENDBRANCH  10  13
ENDBRANCH   8   9
ENDBRANCH   3   8
ENDBRANCH   1   2
BRANCH   1  19
ATOM     19  C   UNL d   1      26.515 -13.919  -0.634  0.00  0.00     0.246 C 
ATOM     20  O   UNL d   1      26.327 -13.774   0.580  0.00  0.00    -0.271 OA
ATOM     21  N   UNL d   1      27.574 -13.267  -1.262  0.00  0.00    -0.351 N 
ATOM     22  H   UNL d   1      27.882 -13.532  -2.188  0.00  0.00     0.163 HD
BRANCH  21  23
ATOM     23  C   UNL d   1      28.388 -12.312  -0.477  0.00  0.00     0.026 C 
ATOM     24  C   UNL d   1      27.405 -11.295   0.142  0.00  0.00     0.038 C 
ATOM     25  C   UNL d   1      29.121 -13.143   0.590  0.00  0.00     0.038 C 
BRANCH  23  26
ATOM     26  C   UNL d   1      29.428 -11.552  -1.397  0.00  0.00     0.038 C 
BRANCH  26  27
ATOM     27  C   UNL d   1      29.062 -11.307  -2.916  0.00  0.00    -0.049 C 
ATOM     28  C   UNL d   1      27.559 -11.079  -3.146  0.00  0.00     0.014 C 
ATOM     29  C   UNL d   1      29.854 -10.150  -3.544  0.00  0.00     0.014 C 
ATOM     30  C   UNL d   1      29.419 -12.548  -3.754  0.00  0.00     0.014 C 
ENDBRANCH  26  27
ENDBRANCH  23  26
ENDBRANCH  21  23
ENDBRANCH   1  19
BRANCH   1  31
ATOM     31  C   UNL d   1      26.238 -14.953  -2.815  0.00  0.00     0.040 C 
ATOM     32  C   UNL d   1      25.569 -14.634  -4.018  0.00  0.00     0.080 C 
ATOM     33  C   UNL d   1      26.221 -14.689  -5.236  0.00  0.00     0.073 C 
ATOM     34  C   UNL d   1      27.525 -15.157  -5.277  0.00  0.00     0.071 C 
ATOM     35  C   UNL d   1      28.166 -15.620  -4.132  0.00  0.00     0.073 C 
ATOM     36  C   UNL d   1      27.526 -15.505  -2.901  0.00  0.00     0.080 C 
BRANCH  32  37
ATOM     37  O   UNL d   1      24.267 -14.202  -4.088  0.00  0.00    -0.360 OA
ATOM     38  H   UNL d   1      24.030 -14.075  -5.020  0.00  0.00     0.217 HD
ENDBRANCH  32  37
BRANCH  34  39
ATOM     39  O   UNL d   1      28.212 -15.174  -6.455  0.00  0.00    -0.361 OA
ATOM     40  H   UNL d   1      28.673 -16.028  -6.510  0.00  0.00     0.217 HD
ENDBRANCH  34  39
BRANCH  36  41
ATOM     41  O   UNL d   1      28.136 -15.950  -1.758  0.00  0.00    -0.360 OA
ATOM     42  H   UNL d   1      29.002 -16.328  -1.995  0.00  0.00     0.217 HD
ENDBRANCH  36  41
ENDBRANCH   1  31
TORSDOF 14
ENDMDL
MODEL 5
REMARK VINA RESULT:    -8.924      1.442      2.509
REMARK INTER + INTRA:         -15.204
REMARK INTER:                 -13.100
REMARK INTRA:                  -2.104
REMARK CONF_INDEPENDENT:        4.176
REMARK UNBOUND:                -2.104
REMARK  14 active torsions:
REMARK  status: ('A' for Active; 'I' for Inactive)
REMARK    1  A    between atoms: C_2  and  C_3 
REMARK    2  A    between atoms: C_3  and  N_4 
REMARK       I    between atoms: N_4  and  C_5 
REMARK    3  A    between atoms: N_4  and  C_17 
REMARK    4  A    between atoms: C_5  and  C_7 
REMARK    5  A    between atoms: C_7  and  N_8 
REMARK       I    between atoms: N_8  and  C_9 
REMARK    6  A    between atoms: C_9  and  C_11 
REMARK    7  A    between atoms: C_17  and  C_18 
REMARK    8  A    between atoms: C_17  and  C_29 
REMARK       I    between atoms: C_18  and  N_20 
REMARK    9  A    between atoms: N_20  and  C_21 
REMARK   10  A    between atoms: C_21  and  C_24 
REMARK   11  A    between atoms: C_24  and  C_25 
REMARK   12  A    between atoms: C_30  and  O_31 
REMARK   13  A    between atoms: C_33  and  O_34 
REMARK   14  A    between atoms: C_36  and  O_37 
ROOT
ATOM      1  C   UNL d   1      25.643 -14.814  -1.545  0.00  0.00     0.218 C 
ENDROOT
BRANCH   1   2
ATOM      2  N   UNL d   1      25.381 -16.139  -0.864  0.00  0.00    -0.333 N 
ATOM      3  C   UNL d   1      24.051 -16.667  -0.871  0.00  0.00     0.238 C 
ATOM      4  O   UNL d   1      23.045 -16.033  -1.190  0.00  0.00    -0.272 OA
BRANCH   2   5
ATOM      5  C   UNL d   1      26.356 -16.483   0.200  0.00  0.00     0.127 C 
BRANCH   5   6
ATOM      6  C   UNL d   1      27.240 -17.666  -0.073  0.00  0.00     0.015 C 
ATOM      7  C   UNL d   1      26.967 -18.947   0.643  0.00  0.00     0.006 C 
ENDBRANCH   5   6
ENDBRANCH   2   5
BRANCH   3   8
ATOM      8  C   UNL d   1      23.893 -18.170  -0.616  0.00  0.00     0.225 C 
BRANCH   8   9
ATOM      9  N   UNL d   1      22.795 -18.607   0.191  0.00  0.00    -0.348 N 
ATOM     10  C   UNL d   1      21.664 -19.009  -0.493  0.00  0.00     0.252 C 
ATOM     11  O   UNL d   1      21.540 -18.949  -1.703  0.00  0.00    -0.268 OA
ATOM     12  H   UNL d   1      22.932 -18.719   1.186  0.00  0.00     0.163 HD
BRANCH  10  13
ATOM     13  C   UNL d   1      20.581 -19.565   0.328  0.00  0.00     0.032 A 
ATOM     14  C   UNL d   1      20.656 -19.397   1.714  0.00  0.00     0.017 A 
ATOM     15  C   UNL d   1      19.717 -20.020   2.528  0.00  0.00     0.001 A 
ATOM     16  C   UNL d   1      18.679 -20.752   1.953  0.00  0.00     0.000 A 
ATOM     17  C   UNL d   1      18.600 -20.904   0.566  0.00  0.00     0.001 A 
ATOM     18  C   UNL d   1      19.560 -20.316  -0.254  0.00  0.00     0.017 A 
ENDBRANCH  10  13
ENDBRANCH   8   9
ENDBRANCH   3   8
ENDBRANCH   1   2
BRANCH   1  19
ATOM     19  C   UNL d   1      26.543 -13.838  -0.721  0.00  0.00     0.246 C 
ATOM     20  O   UNL d   1      26.281 -13.632   0.471  0.00  0.00    -0.271 OA
ATOM     21  N   UNL d   1      27.631 -13.206  -1.319  0.00  0.00    -0.351 N 
ATOM     22  H   UNL d   1      27.997 -13.515  -2.209  0.00  0.00     0.163 HD
BRANCH  21  23
ATOM     23  C   UNL d   1      28.387 -12.201  -0.539  0.00  0.00     0.026 C 
ATOM     24  C   UNL d   1      29.101 -12.965   0.597  0.00  0.00     0.038 C 
ATOM     25  C   UNL d   1      29.377 -11.547  -1.518  0.00  0.00     0.038 C 
BRANCH  23  26
ATOM     26  C   UNL d   1      27.422 -11.111   0.082  0.00  0.00     0.038 C 
BRANCH  26  27
ATOM     27  C   UNL d   1      27.815 -10.444   1.461  0.00  0.00    -0.049 C 
ATOM     28  C   UNL d   1      27.074  -9.124   1.727  0.00  0.00     0.014 C 
ATOM     29  C   UNL d   1      27.620 -11.387   2.659  0.00  0.00     0.014 C 
ATOM     30  C   UNL d   1      29.311 -10.081   1.467  0.00  0.00     0.014 C 
ENDBRANCH  26  27
ENDBRANCH  23  26
ENDBRANCH  21  23
ENDBRANCH   1  19
BRANCH   1  31
ATOM     31  C   UNL d   1      26.384 -14.951  -2.874  0.00  0.00     0.040 C 
ATOM     32  C   UNL d   1      25.737 -14.762  -4.117  0.00  0.00     0.080 C 
ATOM     33  C   UNL d   1      26.436 -14.836  -5.307  0.00  0.00     0.073 C 
ATOM     34  C   UNL d   1      27.775 -15.196  -5.276  0.00  0.00     0.071 C 
ATOM     35  C   UNL d   1      28.408 -15.534  -4.084  0.00  0.00     0.073 C 
ATOM     36  C   UNL d   1      27.715 -15.398  -2.884  0.00  0.00     0.080 C 
BRANCH  32  37
ATOM     37  O   UNL d   1      24.408 -14.446  -4.256  0.00  0.00    -0.360 OA
ATOM     38  H   UNL d   1      24.169 -13.798  -3.574  0.00  0.00     0.217 HD
ENDBRANCH  32  37
BRANCH  34  39
ATOM     39  O   UNL d   1      28.505 -15.226  -6.428  0.00  0.00    -0.361 OA
ATOM     40  H   UNL d   1      29.344 -14.769  -6.252  0.00  0.00     0.217 HD
ENDBRANCH  34  39
BRANCH  36  41
ATOM     41  O   UNL d   1      28.316 -15.721  -1.695  0.00  0.00    -0.360 OA
ATOM     42  H   UNL d   1      28.761 -16.580  -1.796  0.00  0.00     0.217 HD
ENDBRANCH  36  41
ENDBRANCH   1  31
TORSDOF 14
ENDMDL
MODEL 6
REMARK VINA RESULT:    -8.376      2.307      5.303
REMARK INTER + INTRA:         -15.150
REMARK INTER:                 -12.552
REMARK INTRA:                  -2.598
REMARK CONF_INDEPENDENT:        4.176
REMARK UNBOUND:                -2.598
REMARK  14 active torsions:
REMARK  status: ('A' for Active; 'I' for Inactive)
REMARK    1  A    between atoms: C_2  and  C_3 
REMARK    2  A    between atoms: C_3  and  N_4 
REMARK       I    between atoms: N_4  and  C_5 
REMARK    3  A    between atoms: N_4  and  C_17 
REMARK    4  A    between atoms: C_5  and  C_7 
REMARK    5  A    between atoms: C_7  and  N_8 
REMARK       I    between atoms: N_8  and  C_9 
REMARK    6  A    between atoms: C_9  and  C_11 
REMARK    7  A    between atoms: C_17  and  C_18 
REMARK    8  A    between atoms: C_17  and  C_29 
REMARK       I    between atoms: C_18  and  N_20 
REMARK    9  A    between atoms: N_20  and  C_21 
REMARK   10  A    between atoms: C_21  and  C_24 
REMARK   11  A    between atoms: C_24  and  C_25 
REMARK   12  A    between atoms: C_30  and  O_31 
REMARK   13  A    between atoms: C_33  and  O_34 
REMARK   14  A    between atoms: C_36  and  O_37 
ROOT
ATOM      1  C   UNL d   1      27.178 -16.164   0.071  0.00  0.00     0.218 C 
ENDROOT
BRANCH   1   2
ATOM      2  N   UNL d   1      25.905 -16.411  -0.706  0.00  0.00    -0.333 N 
ATOM      3  C   UNL d   1      24.840 -17.131  -0.077  0.00  0.00     0.238 C 
ATOM      4  O   UNL d   1      24.947 -17.768   0.972  0.00  0.00    -0.272 OA
BRANCH   2   5
ATOM      5  C   UNL d   1      26.074 -16.393  -2.181  0.00  0.00     0.127 C 
BRANCH   5   6
ATOM      6  C   UNL d   1      25.156 -15.479  -2.939  0.00  0.00     0.015 C 
ATOM      7  C   UNL d   1      25.660 -14.828  -4.185  0.00  0.00     0.006 C 
ENDBRANCH   5   6
ENDBRANCH   2   5
BRANCH   3   8
ATOM      8  C   UNL d   1      23.436 -16.964  -0.667  0.00  0.00     0.225 C 
BRANCH   8   9
ATOM      9  N   UNL d   1      22.338 -17.574   0.016  0.00  0.00    -0.348 N 
ATOM     10  C   UNL d   1      21.727 -18.626  -0.638  0.00  0.00     0.252 C 
ATOM     11  O   UNL d   1      22.028 -19.001  -1.757  0.00  0.00    -0.268 OA
ATOM     12  H   UNL d   1      22.142 -17.302   0.970  0.00  0.00     0.163 HD
BRANCH  10  13
ATOM     13  C   UNL d   1      20.675 -19.325   0.111  0.00  0.00     0.032 A 
ATOM     14  C   UNL d   1      19.630 -19.906  -0.613  0.00  0.00     0.017 A 
ATOM     15  C   UNL d   1      18.554 -20.462   0.070  0.00  0.00     0.001 A 
ATOM     16  C   UNL d   1      18.559 -20.490   1.464  0.00  0.00     0.000 A 
ATOM     17  C   UNL d   1      19.613 -19.922   2.182  0.00  0.00     0.001 A 
ATOM     18  C   UNL d   1      20.676 -19.326   1.506  0.00  0.00     0.017 A 
ENDBRANCH  10  13
ENDBRANCH   8   9
ENDBRANCH   3   8
ENDBRANCH   1   2
BRANCH   1  19
ATOM     19  C   UNL d   1      28.481 -16.266  -0.786  0.00  0.00     0.246 C 
ATOM     20  O   UNL d   1      28.720 -15.396  -1.632  0.00  0.00    -0.271 OA
ATOM     21  N   UNL d   1      29.367 -17.325  -0.599  0.00  0.00    -0.351 N 
ATOM     22  H   UNL d   1      29.315 -17.919   0.218  0.00  0.00     0.163 HD
BRANCH  21  23
ATOM     23  C   UNL d   1      30.528 -17.450  -1.508  0.00  0.00     0.026 C 
ATOM     24  C   UNL d   1      31.418 -16.211  -1.266  0.00  0.00     0.038 C 
ATOM     25  C   UNL d   1      31.236 -18.762  -1.129  0.00  0.00     0.038 C 
BRANCH  23  26
ATOM     26  C   UNL d   1      30.070 -17.486  -3.023  0.00  0.00     0.038 C 
BRANCH  26  27
ATOM     27  C   UNL d   1      31.131 -17.146  -4.146  0.00  0.00    -0.049 C 
ATOM     28  C   UNL d   1      32.521 -17.740  -3.865  0.00  0.00     0.014 C 
ATOM     29  C   UNL d   1      30.672 -17.566  -5.550  0.00  0.00     0.014 C 
ATOM     30  C   UNL d   1      31.347 -15.623  -4.226  0.00  0.00     0.014 C 
ENDBRANCH  26  27
ENDBRANCH  23  26
ENDBRANCH  21  23
ENDBRANCH   1  19
BRANCH   1  31
ATOM     31  C   UNL d   1      27.256 -14.765   0.680  0.00  0.00     0.040 C 
ATOM     32  C   UNL d   1      27.546 -14.558   2.048  0.00  0.00     0.080 C 
ATOM     33  C   UNL d   1      27.666 -13.283   2.569  0.00  0.00     0.073 C 
ATOM     34  C   UNL d   1      27.403 -12.196   1.748  0.00  0.00     0.071 C 
ATOM     35  C   UNL d   1      26.971 -12.366   0.437  0.00  0.00     0.073 C 
ATOM     36  C   UNL d   1      26.911 -13.650  -0.099  0.00  0.00     0.080 C 
BRANCH  32  37
ATOM     37  O   UNL d   1      27.780 -15.566   2.950  0.00  0.00    -0.360 OA
ATOM     38  H   UNL d   1      28.725 -15.575   3.169  0.00  0.00     0.217 HD
ENDBRANCH  32  37
BRANCH  34  39
ATOM     39  O   UNL d   1      27.564 -10.926   2.218  0.00  0.00    -0.361 OA
ATOM     40  H   UNL d   1      28.520 -10.766   2.300  0.00  0.00     0.217 HD
ENDBRANCH  34  39
BRANCH  36  41
ATOM     41  O   UNL d   1      26.492 -13.844  -1.389  0.00  0.00    -0.360 OA
ATOM     42  H   UNL d   1      27.275 -13.892  -1.966  0.00  0.00     0.217 HD
ENDBRANCH  36  41
ENDBRANCH   1  31
TORSDOF 14
ENDMDL
MODEL 7
REMARK VINA RESULT:    -8.298      3.839      8.256
REMARK INTER + INTRA:         -16.345
REMARK INTER:                 -12.474
REMARK INTRA:                  -3.871
REMARK CONF_INDEPENDENT:        4.176
REMARK UNBOUND:                -3.871
REMARK  14 active torsions:
REMARK  status: ('A' for Active; 'I' for Inactive)
REMARK    1  A    between atoms: C_2  and  C_3 
REMARK    2  A    between atoms: C_3  and  N_4 
REMARK       I    between atoms: N_4  and  C_5 
REMARK    3  A    between atoms: N_4  and  C_17 
REMARK    4  A    between atoms: C_5  and  C_7 
REMARK    5  A    between atoms: C_7  and  N_8 
REMARK       I    between atoms: N_8  and  C_9 
REMARK    6  A    between atoms: C_9  and  C_11 
REMARK    7  A    between atoms: C_17  and  C_18 
REMARK    8  A    between atoms: C_17  and  C_29 
REMARK       I    between atoms: C_18  and  N_20 
REMARK    9  A    between atoms: N_20  and  C_21 
REMARK   10  A    between atoms: C_21  and  C_24 
REMARK   11  A    between atoms: C_24  and  C_25 
REMARK   12  A    between atoms: C_30  and  O_31 
REMARK   13  A    between atoms: C_33  and  O_34 
REMARK   14  A    between atoms: C_36  and  O_37 
ROOT
ATOM      1  C   UNL d   1      26.399 -13.079  -4.879  0.00  0.00     0.218 C 
ENDROOT
BRANCH   1   2
ATOM      2  N   UNL d   1      27.835 -13.316  -5.289  0.00  0.00    -0.333 N 
ATOM      3  C   UNL d   1      28.188 -14.574  -5.875  0.00  0.00     0.238 C 
ATOM      4  O   UNL d   1      27.469 -15.575  -5.874  0.00  0.00    -0.272 OA
BRANCH   2   5
ATOM      5  C   UNL d   1      28.826 -12.489  -4.556  0.00  0.00     0.127 C 
BRANCH   5   6
ATOM      6  C   UNL d   1      29.872 -13.241  -3.786  0.00  0.00     0.015 C 
ATOM      7  C   UNL d   1      29.456 -14.017  -2.580  0.00  0.00     0.006 C 
ENDBRANCH   5   6
ENDBRANCH   2   5
BRANCH   3   8
ATOM      8  C   UNL d   1      29.481 -14.627  -6.695  0.00  0.00     0.225 C 
BRANCH   8   9
ATOM      9  N   UNL d   1      30.025 -15.910  -7.018  0.00  0.00    -0.348 N 
ATOM     10  C   UNL d   1      30.164 -16.791  -5.963  0.00  0.00     0.252 C 
ATOM     11  O   UNL d   1      29.915 -16.513  -4.804  0.00  0.00    -0.268 OA
ATOM     12  H   UNL d   1      30.162 -16.154  -7.989  0.00  0.00     0.163 HD
BRANCH  10  13
ATOM     13  C   UNL d   1      30.615 -18.145  -6.312  0.00  0.00     0.032 A 
ATOM     14  C   UNL d   1      31.153 -18.348  -7.585  0.00  0.00     0.017 A 
ATOM     15  C   UNL d   1      31.469 -19.640  -7.993  0.00  0.00     0.001 A 
ATOM     16  C   UNL d   1      31.304 -20.705  -7.109  0.00  0.00     0.000 A 
ATOM     17  C   UNL d   1      30.780 -20.493  -5.832  0.00  0.00     0.001 A 
ATOM     18  C   UNL d   1      30.423 -19.208  -5.430  0.00  0.00     0.017 A 
ENDBRANCH  10  13
ENDBRANCH   8   9
ENDBRANCH   3   8
ENDBRANCH   1   2
BRANCH   1  19
ATOM     19  C   UNL d   1      25.910 -13.988  -3.706  0.00  0.00     0.246 C 
ATOM     20  O   UNL d   1      24.808 -13.770  -3.189  0.00  0.00    -0.271 OA
ATOM     21  N   UNL d   1      26.705 -15.037  -3.247  0.00  0.00    -0.351 N 
ATOM     22  H   UNL d   1      27.494 -15.373  -3.781  0.00  0.00     0.163 HD
BRANCH  21  23
ATOM     23  C   UNL d   1      26.260 -15.800  -2.060  0.00  0.00     0.026 C 
ATOM     24  C   UNL d   1      27.443 -16.700  -1.641  0.00  0.00     0.038 C 
ATOM     25  C   UNL d   1      25.905 -14.760  -0.984  0.00  0.00     0.038 C 
BRANCH  23  26
ATOM     26  C   UNL d   1      25.002 -16.701  -2.394  0.00  0.00     0.038 C 
BRANCH  26  27
ATOM     27  C   UNL d   1      24.188 -17.343  -1.200  0.00  0.00    -0.049 C 
ATOM     28  C   UNL d   1      23.347 -18.558  -1.627  0.00  0.00     0.014 C 
ATOM     29  C   UNL d   1      25.078 -17.733  -0.010  0.00  0.00     0.014 C 
ATOM     30  C   UNL d   1      23.178 -16.325  -0.639  0.00  0.00     0.014 C 
ENDBRANCH  26  27
ENDBRANCH  23  26
ENDBRANCH  21  23
ENDBRANCH   1  19
BRANCH   1  31
ATOM     31  C   UNL d   1      26.140 -11.662  -4.370  0.00  0.00     0.040 C 
ATOM     32  C   UNL d   1      26.377 -11.293  -3.026  0.00  0.00     0.080 C 
ATOM     33  C   UNL d   1      26.189  -9.993  -2.597  0.00  0.00     0.073 C 
ATOM     34  C   UNL d   1      25.666  -9.064  -3.484  0.00  0.00     0.071 C 
ATOM     35  C   UNL d   1      25.281  -9.427  -4.771  0.00  0.00     0.073 C 
ATOM     36  C   UNL d   1      25.531 -10.722  -5.216  0.00  0.00     0.080 C 
BRANCH  32  37
ATOM     37  O   UNL d   1      26.853 -12.148  -2.062  0.00  0.00    -0.360 OA
ATOM     38  H   UNL d   1      26.143 -12.759  -1.809  0.00  0.00     0.217 HD
ENDBRANCH  32  37
BRANCH  34  39
ATOM     39  O   UNL d   1      25.517  -7.762  -3.106  0.00  0.00    -0.361 OA
ATOM     40  H   UNL d   1      24.617  -7.663  -2.753  0.00  0.00     0.217 HD
ENDBRANCH  34  39
BRANCH  36  41
ATOM     41  O   UNL d   1      25.165 -11.104  -6.480  0.00  0.00    -0.360 OA
ATOM     42  H   UNL d   1      24.332 -11.605  -6.424  0.00  0.00     0.217 HD
ENDBRANCH  36  41
ENDBRANCH   1  31
TORSDOF 14
ENDMDL
