MODEL 1
REMARK VINA RESULT:   -10.324      0.000      0.000
REMARK INTER + INTRA:         -14.804
REMARK INTER:                 -13.009
REMARK INTRA:                  -1.796
REMARK CONF_INDEPENDENT:        2.685
REMARK UNBOUND:                -1.796
REMARK  9 active torsions:
REMARK  status: ('A' for Active; 'I' for Inactive)
REMARK    1  A    between atoms: C_2  and  C_24 
REMARK    2  A    between atoms: N_3  and  N_4 
REMARK    3  A    between atoms: N_4  and  C_5 
REMARK    4  A    between atoms: C_7  and  S_8 
REMARK    5  A    between atoms: S_8  and  C_9 
REMARK    6  A    between atoms: C_9  and  C_10 
REMARK       I    between atoms: C_10  and  N_12 
REMARK    7  A    between atoms: N_12  and  C_13 
REMARK    8  A    between atoms: C_13  and  C_14 
REMARK    9  A    between atoms: C_14  and  C_15 
ROOT
ATOM      1  C   UNL d   1      30.180 -14.521   3.715  0.00  0.00     0.739 A 
ATOM      2  N   UNL d   1      30.005 -14.548   2.402  0.00  0.00    -0.034 NA
ATOM      3  C   UNL d   1      30.880 -13.601   1.919  0.00  0.00     0.226 A 
ATOM      4  N   UNL d   1      31.604 -12.987   2.862  0.00  0.00    -0.132 NA
ATOM      5  N   UNL d   1      31.147 -13.573   3.979  0.00  0.00    -0.103 N 
ATOM      6  H   UNL d   1      31.575 -13.317   4.862  0.00  0.00     0.208 HD
ENDROOT
BRANCH   1   7
ATOM      7  N   UNL d   1      29.581 -15.217   4.746  0.00  0.00    -0.106 N 
ATOM      8  H   UNL d   1      29.127 -16.087   4.490  0.00  0.00     0.208 HD
BRANCH   7   9
ATOM      9  N   UNL d   1      29.573 -14.816   6.081  0.00  0.00    -0.169 NA
ATOM     10  C   UNL d   1      28.855 -13.807   6.558  0.00  0.00     0.038 C 
ATOM     11  C   UNL d   1      27.944 -12.974   5.700  0.00  0.00     0.068 C 
BRANCH  10  12
ATOM     12  C   UNL d   1      29.093 -13.357   8.137  0.00  0.00     0.003 C 
ATOM     13  C   UNL d   1      28.330 -12.215   9.055  0.00  0.00     0.020 C 
ATOM     14  C   UNL d   1      28.940 -12.200  10.520  0.00  0.00    -0.013 C 
ATOM     15  C   UNL d   1      28.657 -13.594  11.102  0.00  0.00     0.009 C 
ATOM     16  C   UNL d   1      30.424 -11.824  10.364  0.00  0.00     0.009 C 
ATOM     17  C   UNL d   1      29.442 -14.639  10.327  0.00  0.00    -0.013 C 
ATOM     18  C   UNL d   1      30.930 -14.266  10.309  0.00  0.00     0.009 C 
ATOM     19  C   UNL d   1      28.905 -14.692   8.902  0.00  0.00     0.020 C 
ATOM     20  C   UNL d   1      31.153 -12.922   9.600  0.00  0.00    -0.013 C 
ATOM     21  C   UNL d   1      30.599 -12.973   8.170  0.00  0.00     0.020 C 
ENDBRANCH  10  12
ENDBRANCH   7   9
ENDBRANCH   1   7
BRANCH   3  22
ATOM     22  S   UNL d   1      31.138 -13.165   0.248  0.00  0.00    -0.079 SA
BRANCH  22  23
ATOM     23  C   UNL d   1      30.802 -14.668  -0.719  0.00  0.00     0.185 C 
BRANCH  23  24
ATOM     24  C   UNL d   1      29.301 -15.037  -0.622  0.00  0.00     0.227 C 
ATOM     25  O   UNL d   1      28.438 -14.587  -1.351  0.00  0.00    -0.273 OA
ATOM     26  N   UNL d   1      28.970 -15.955   0.383  0.00  0.00    -0.360 N 
ATOM     27  H   UNL d   1      29.655 -16.249   1.064  0.00  0.00     0.162 HD
BRANCH  26  28
ATOM     28  C   UNL d   1      27.565 -16.310   0.559  0.00  0.00     0.127 C 
BRANCH  28  29
ATOM     29  C   UNL d   1      27.043 -17.411  -0.378  0.00  0.00     0.060 C 
BRANCH  29  30
ATOM     30  C   UNL d   1      25.526 -17.468  -0.472  0.00  0.00    -0.035 A 
ATOM     31  C   UNL d   1      24.832 -18.474   0.231  0.00  0.00     0.009 A 
ATOM     32  C   UNL d   1      23.434 -18.560   0.180  0.00  0.00     0.001 A 
ATOM     33  C   UNL d   1      22.705 -17.648  -0.576  0.00  0.00     0.002 A 
ATOM     34  C   UNL d   1      23.370 -16.643  -1.270  0.00  0.00     0.024 A 
ATOM     35  C   UNL d   1      24.762 -16.536  -1.203  0.00  0.00     0.040 A 
ATOM     36 CL   UNL d   1      25.445 -15.171  -2.013  0.00  0.00    -0.084 Cl
ENDBRANCH  29  30
ENDBRANCH  28  29
ENDBRANCH  26  28
ENDBRANCH  23  24
ENDBRANCH  22  23
ENDBRANCH   3  22
TORSDOF 9
ENDMDL
MODEL 2
REMARK VINA RESULT:   -10.061      2.152      2.978
REMARK INTER + INTRA:         -14.841
REMARK INTER:                 -12.745
REMARK INTRA:                  -2.096
REMARK CONF_INDEPENDENT:        2.685
REMARK UNBOUND:                -2.096
REMARK  9 active torsions:
REMARK  status: ('A' for Active; 'I' for Inactive)
REMARK    1  A    between atoms: C_2  and  C_24 
REMARK    2  A    between atoms: N_3  and  N_4 
REMARK    3  A    between atoms: N_4  and  C_5 
REMARK    4  A    between atoms: C_7  and  S_8 
REMARK    5  A    between atoms: S_8  and  C_9 
REMARK    6  A    between atoms: C_9  and  C_10 
REMARK       I    between atoms: C_10  and  N_12 
REMARK    7  A    between atoms: N_12  and  C_13 
REMARK    8  A    between atoms: C_13  and  C_14 
REMARK    9  A    between atoms: C_14  and  C_15 
ROOT
ATOM      1  C   UNL d   1      28.154 -14.598   3.526  0.00  0.00     0.739 A 
ATOM      2  N   UNL d   1      27.426 -13.493   3.452  0.00  0.00    -0.034 NA
ATOM      3  C   UNL d   1      27.430 -13.167   2.115  0.00  0.00     0.226 A 
ATOM      4  N   UNL d   1      28.115 -14.017   1.341  0.00  0.00    -0.132 NA
ATOM      5  N   UNL d   1      28.565 -14.903   2.244  0.00  0.00    -0.103 N 
ATOM      6  H   UNL d   1      29.090 -15.702   1.909  0.00  0.00     0.208 HD
ENDROOT
BRANCH   1   7
ATOM      7  N   UNL d   1      28.535 -15.389   4.590  0.00  0.00    -0.106 N 
ATOM      8  H   UNL d   1      28.884 -16.312   4.355  0.00  0.00     0.208 HD
BRANCH   7   9
ATOM      9  N   UNL d   1      28.483 -15.005   5.929  0.00  0.00    -0.169 NA
ATOM     10  C   UNL d   1      29.210 -14.031   6.460  0.00  0.00     0.038 C 
ATOM     11  C   UNL d   1      30.183 -13.208   5.662  0.00  0.00     0.068 C 
BRANCH  10  12
ATOM     12  C   UNL d   1      29.150 -13.819   8.105  0.00  0.00     0.003 C 
ATOM     13  C   UNL d   1      28.576 -14.810   9.295  0.00  0.00     0.020 C 
ATOM     14  C   UNL d   1      28.774 -14.126  10.713  0.00  0.00    -0.013 C 
ATOM     15  C   UNL d   1      30.292 -13.953  10.883  0.00  0.00     0.009 C 
ATOM     16  C   UNL d   1      27.948 -12.828  10.684  0.00  0.00     0.009 C 
ATOM     17  C   UNL d   1      30.810 -12.959   9.857  0.00  0.00    -0.013 C 
ATOM     18  C   UNL d   1      30.022 -11.646   9.959  0.00  0.00     0.009 C 
ATOM     19  C   UNL d   1      30.635 -13.559   8.468  0.00  0.00     0.020 C 
ATOM     20  C   UNL d   1      28.533 -11.871   9.653  0.00  0.00    -0.013 C 
ATOM     21  C   UNL d   1      28.361 -12.489   8.259  0.00  0.00     0.020 C 
ENDBRANCH  10  12
ENDBRANCH   7   9
ENDBRANCH   1   7
BRANCH   3  22
ATOM     22  S   UNL d   1      26.630 -11.810   1.362  0.00  0.00    -0.079 SA
BRANCH  22  23
ATOM     23  C   UNL d   1      27.626 -11.390  -0.100  0.00  0.00     0.185 C 
BRANCH  23  24
ATOM     24  C   UNL d   1      27.038 -12.075  -1.358  0.00  0.00     0.227 C 
ATOM     25  O   UNL d   1      26.775 -11.493  -2.394  0.00  0.00    -0.273 OA
ATOM     26  N   UNL d   1      26.817 -13.454  -1.245  0.00  0.00    -0.360 N 
ATOM     27  H   UNL d   1      26.925 -13.927  -0.360  0.00  0.00     0.162 HD
BRANCH  26  28
ATOM     28  C   UNL d   1      26.219 -14.152  -2.380  0.00  0.00     0.127 C 
BRANCH  28  29
ATOM     29  C   UNL d   1      25.142 -15.188  -2.020  0.00  0.00     0.060 C 
BRANCH  29  30
ATOM     30  C   UNL d   1      25.639 -16.292  -1.098  0.00  0.00    -0.035 A 
ATOM     31  C   UNL d   1      27.022 -16.414  -0.855  0.00  0.00     0.009 A 
ATOM     32  C   UNL d   1      27.524 -17.410  -0.007  0.00  0.00     0.001 A 
ATOM     33  C   UNL d   1      26.656 -18.305   0.610  0.00  0.00     0.002 A 
ATOM     34  C   UNL d   1      25.287 -18.197   0.390  0.00  0.00     0.024 A 
ATOM     35  C   UNL d   1      24.778 -17.189  -0.435  0.00  0.00     0.040 A 
ATOM     36 CL   UNL d   1      23.054 -17.096  -0.522  0.00  0.00    -0.084 Cl
ENDBRANCH  29  30
ENDBRANCH  28  29
ENDBRANCH  26  28
ENDBRANCH  23  24
ENDBRANCH  22  23
ENDBRANCH   3  22
TORSDOF 9
ENDMDL
MODEL 3
REMARK VINA RESULT:    -9.999      1.039      1.745
REMARK INTER + INTRA:         -14.329
REMARK INTER:                 -12.684
REMARK INTRA:                  -1.645
REMARK CONF_INDEPENDENT:        2.685
REMARK UNBOUND:                -1.645
REMARK  9 active torsions:
REMARK  status: ('A' for Active; 'I' for Inactive)
REMARK    1  A    between atoms: C_2  and  C_24 
REMARK    2  A    between atoms: N_3  and  N_4 
REMARK    3  A    between atoms: N_4  and  C_5 
REMARK    4  A    between atoms: C_7  and  S_8 
REMARK    5  A    between atoms: S_8  and  C_9 
REMARK    6  A    between atoms: C_9  and  C_10 
REMARK       I    between atoms: C_10  and  N_12 
REMARK    7  A    between atoms: N_12  and  C_13 
REMARK    8  A    between atoms: C_13  and  C_14 
REMARK    9  A    between atoms: C_14  and  C_15 
ROOT
ATOM      1  C   UNL d   1      30.035 -14.393   3.666  0.00  0.00     0.739 A 
ATOM      2  N   UNL d   1      29.426 -14.214   2.503  0.00  0.00    -0.034 NA
ATOM      3  C   UNL d   1      30.152 -13.222   1.884  0.00  0.00     0.226 A 
ATOM      4  N   UNL d   1      31.195 -12.776   2.594  0.00  0.00    -0.132 NA
ATOM      5  N   UNL d   1      31.101 -13.518   3.708  0.00  0.00    -0.103 N 
ATOM      6  H   UNL d   1      31.818 -13.410   4.416  0.00  0.00     0.208 HD
ENDROOT
BRANCH   1   7
ATOM      7  N   UNL d   1      29.770 -15.227   4.733  0.00  0.00    -0.106 N 
ATOM      8  H   UNL d   1      29.443 -16.158   4.499  0.00  0.00     0.208 HD
BRANCH   7   9
ATOM      9  N   UNL d   1      29.933 -14.883   6.074  0.00  0.00    -0.169 NA
ATOM     10  C   UNL d   1      29.156 -14.031   6.730  0.00  0.00     0.038 C 
ATOM     11  C   UNL d   1      27.986 -13.335   6.095  0.00  0.00     0.068 C 
BRANCH  10  12
ATOM     12  C   UNL d   1      29.594 -13.606   8.274  0.00  0.00     0.003 C 
ATOM     13  C   UNL d   1      31.087 -13.402   8.950  0.00  0.00     0.020 C 
ATOM     14  C   UNL d   1      30.941 -12.974  10.470  0.00  0.00    -0.013 C 
ATOM     15  C   UNL d   1      30.202 -11.627  10.454  0.00  0.00     0.009 C 
ATOM     16  C   UNL d   1      30.213 -14.132  11.175  0.00  0.00     0.009 C 
ATOM     17  C   UNL d   1      28.789 -11.827   9.932  0.00  0.00    -0.013 C 
ATOM     18  C   UNL d   1      28.079 -12.912  10.753  0.00  0.00     0.009 C 
ATOM     19  C   UNL d   1      28.866 -12.251   8.471  0.00  0.00     0.020 C 
ATOM     20  C   UNL d   1      28.800 -14.262  10.622  0.00  0.00    -0.013 C 
ATOM     21  C   UNL d   1      28.889 -14.681   9.148  0.00  0.00     0.020 C 
ENDBRANCH  10  12
ENDBRANCH   7   9
ENDBRANCH   1   7
BRANCH   3  22
ATOM     22  S   UNL d   1      29.862 -12.538   0.303  0.00  0.00    -0.079 SA
BRANCH  22  23
ATOM     23  C   UNL d   1      28.057 -12.534   0.084  0.00  0.00     0.185 C 
BRANCH  23  24
ATOM     24  C   UNL d   1      27.489 -13.955   0.327  0.00  0.00     0.227 C 
ATOM     25  O   UNL d   1      26.344 -14.185   0.665  0.00  0.00    -0.273 OA
ATOM     26  N   UNL d   1      28.393 -15.006   0.127  0.00  0.00    -0.360 N 
ATOM     27  H   UNL d   1      29.372 -14.825  -0.043  0.00  0.00     0.162 HD
BRANCH  26  28
ATOM     28  C   UNL d   1      27.935 -16.369   0.386  0.00  0.00     0.127 C 
BRANCH  28  29
ATOM     29  C   UNL d   1      27.273 -17.076  -0.808  0.00  0.00     0.060 C 
BRANCH  29  30
ATOM     30  C   UNL d   1      25.757 -17.163  -0.704  0.00  0.00    -0.035 A 
ATOM     31  C   UNL d   1      25.182 -18.134   0.141  0.00  0.00     0.009 A 
ATOM     32  C   UNL d   1      23.791 -18.244   0.274  0.00  0.00     0.001 A 
ATOM     33  C   UNL d   1      22.951 -17.394  -0.437  0.00  0.00     0.002 A 
ATOM     34  C   UNL d   1      23.499 -16.424  -1.270  0.00  0.00     0.024 A 
ATOM     35  C   UNL d   1      24.886 -16.292  -1.387  0.00  0.00     0.040 A 
ATOM     36 CL   UNL d   1      25.429 -14.970  -2.359  0.00  0.00    -0.084 Cl
ENDBRANCH  29  30
ENDBRANCH  28  29
ENDBRANCH  26  28
ENDBRANCH  23  24
ENDBRANCH  22  23
ENDBRANCH   3  22
TORSDOF 9
ENDMDL
MODEL 4
REMARK VINA RESULT:    -9.819      1.572      2.109
REMARK INTER + INTRA:         -14.450
REMARK INTER:                 -12.503
REMARK INTRA:                  -1.946
REMARK CONF_INDEPENDENT:        2.685
REMARK UNBOUND:                -1.946
REMARK  9 active torsions:
REMARK  status: ('A' for Active; 'I' for Inactive)
REMARK    1  A    between atoms: C_2  and  C_24 
REMARK    2  A    between atoms: N_3  and  N_4 
REMARK    3  A    between atoms: N_4  and  C_5 
REMARK    4  A    between atoms: C_7  and  S_8 
REMARK    5  A    between atoms: S_8  and  C_9 
REMARK    6  A    between atoms: C_9  and  C_10 
REMARK       I    between atoms: C_10  and  N_12 
REMARK    7  A    between atoms: N_12  and  C_13 
REMARK    8  A    between atoms: C_13  and  C_14 
REMARK    9  A    between atoms: C_14  and  C_15 
ROOT
ATOM      1  C   UNL d   1      29.008 -14.406   3.887  0.00  0.00     0.739 A 
ATOM      2  N   UNL d   1      28.262 -13.342   3.629  0.00  0.00    -0.034 NA
ATOM      3  C   UNL d   1      28.816 -12.801   2.491  0.00  0.00     0.226 A 
ATOM      4  N   UNL d   1      29.866 -13.478   2.013  0.00  0.00    -0.132 NA
ATOM      5  N   UNL d   1      29.973 -14.476   2.903  0.00  0.00    -0.103 N 
ATOM      6  H   UNL d   1      30.683 -15.182   2.745  0.00  0.00     0.208 HD
ENDROOT
BRANCH   1   7
ATOM      7  N   UNL d   1      28.972 -15.341   4.901  0.00  0.00    -0.106 N 
ATOM      8  H   UNL d   1      29.122 -16.305   4.622  0.00  0.00     0.208 HD
BRANCH   7   9
ATOM      9  N   UNL d   1      28.761 -15.051   6.247  0.00  0.00    -0.169 NA
ATOM     10  C   UNL d   1      29.389 -14.093   6.917  0.00  0.00     0.038 C 
ATOM     11  C   UNL d   1      30.410 -13.189   6.285  0.00  0.00     0.068 C 
BRANCH  10  12
ATOM     12  C   UNL d   1      29.143 -13.995   8.555  0.00  0.00     0.003 C 
ATOM     13  C   UNL d   1      28.526 -15.100   9.617  0.00  0.00     0.020 C 
ATOM     14  C   UNL d   1      28.524 -14.500  11.085  0.00  0.00    -0.013 C 
ATOM     15  C   UNL d   1      29.998 -14.234  11.428  0.00  0.00     0.009 C 
ATOM     16  C   UNL d   1      27.609 -13.263  11.043  0.00  0.00     0.009 C 
ATOM     17  C   UNL d   1      30.543 -13.141  10.523  0.00  0.00    -0.013 C 
ATOM     18  C   UNL d   1      29.651 -11.895  10.617  0.00  0.00     0.009 C 
ATOM     19  C   UNL d   1      30.559 -13.658   9.091  0.00  0.00     0.020 C 
ATOM     20  C   UNL d   1      28.224 -12.202  10.139  0.00  0.00    -0.013 C 
ATOM     21  C   UNL d   1      28.244 -12.736   8.701  0.00  0.00     0.020 C 
ENDBRANCH  10  12
ENDBRANCH   7   9
ENDBRANCH   1   7
BRANCH   3  22
ATOM     22  S   UNL d   1      28.275 -11.379   1.633  0.00  0.00    -0.079 SA
BRANCH  22  23
ATOM     23  C   UNL d   1      27.298 -11.987   0.224  0.00  0.00     0.185 C 
BRANCH  23  24
ATOM     24  C   UNL d   1      27.029 -13.505   0.380  0.00  0.00     0.227 C 
ATOM     25  O   UNL d   1      25.946 -13.981   0.665  0.00  0.00    -0.273 OA
ATOM     26  N   UNL d   1      28.134 -14.338   0.165  0.00  0.00    -0.360 N 
ATOM     27  H   UNL d   1      29.059 -13.952   0.038  0.00  0.00     0.162 HD
BRANCH  26  28
ATOM     28  C   UNL d   1      27.959 -15.777   0.343  0.00  0.00     0.127 C 
BRANCH  28  29
ATOM     29  C   UNL d   1      27.410 -16.527  -0.880  0.00  0.00     0.060 C 
BRANCH  29  30
ATOM     30  C   UNL d   1      25.956 -16.952  -0.737  0.00  0.00    -0.035 A 
ATOM     31  C   UNL d   1      25.629 -17.990   0.159  0.00  0.00     0.009 A 
ATOM     32  C   UNL d   1      24.302 -18.407   0.330  0.00  0.00     0.001 A 
ATOM     33  C   UNL d   1      23.280 -17.802  -0.394  0.00  0.00     0.002 A 
ATOM     34  C   UNL d   1      23.581 -16.771  -1.277  0.00  0.00     0.024 A 
ATOM     35  C   UNL d   1      24.899 -16.332  -1.433  0.00  0.00     0.040 A 
ATOM     36 CL   UNL d   1      25.112 -14.966  -2.469  0.00  0.00    -0.084 Cl
ENDBRANCH  29  30
ENDBRANCH  28  29
ENDBRANCH  26  28
ENDBRANCH  23  24
ENDBRANCH  22  23
ENDBRANCH   3  22
TORSDOF 9
ENDMDL
MODEL 5
REMARK VINA RESULT:    -9.757      1.620      2.190
REMARK INTER + INTRA:         -14.546
REMARK INTER:                 -12.442
REMARK INTRA:                  -2.104
REMARK CONF_INDEPENDENT:        2.685
REMARK UNBOUND:                -2.104
REMARK  9 active torsions:
REMARK  status: ('A' for Active; 'I' for Inactive)
REMARK    1  A    between atoms: C_2  and  C_24 
REMARK    2  A    between atoms: N_3  and  N_4 
REMARK    3  A    between atoms: N_4  and  C_5 
REMARK    4  A    between atoms: C_7  and  S_8 
REMARK    5  A    between atoms: S_8  and  C_9 
REMARK    6  A    between atoms: C_9  and  C_10 
REMARK       I    between atoms: C_10  and  N_12 
REMARK    7  A    between atoms: N_12  and  C_13 
REMARK    8  A    between atoms: C_13  and  C_14 
REMARK    9  A    between atoms: C_14  and  C_15 
ROOT
ATOM      1  C   UNL d   1      29.334 -13.881   4.531  0.00  0.00     0.739 A 
ATOM      2  N   UNL d   1      28.738 -12.986   3.756  0.00  0.00    -0.034 NA
ATOM      3  C   UNL d   1      27.808 -13.711   3.047  0.00  0.00     0.226 A 
ATOM      4  N   UNL d   1      27.780 -15.015   3.344  0.00  0.00    -0.132 NA
ATOM      5  N   UNL d   1      28.745 -15.101   4.272  0.00  0.00    -0.103 N 
ATOM      6  H   UNL d   1      28.905 -16.000   4.712  0.00  0.00     0.208 HD
ENDROOT
BRANCH   1   7
ATOM      7  N   UNL d   1      30.361 -13.778   5.446  0.00  0.00    -0.106 N 
ATOM      8  H   UNL d   1      31.292 -13.665   5.059  0.00  0.00     0.208 HD
BRANCH   7   9
ATOM      9  N   UNL d   1      30.202 -13.807   6.831  0.00  0.00    -0.169 NA
ATOM     10  C   UNL d   1      29.549 -12.890   7.531  0.00  0.00     0.038 C 
ATOM     11  C   UNL d   1      28.883 -11.699   6.900  0.00  0.00     0.068 C 
BRANCH  10  12
ATOM     12  C   UNL d   1      29.602 -12.987   9.187  0.00  0.00     0.003 C 
ATOM     13  C   UNL d   1      30.584 -12.228  10.277  0.00  0.00     0.020 C 
ATOM     14  C   UNL d   1      30.200 -12.668  11.752  0.00  0.00    -0.013 C 
ATOM     15  C   UNL d   1      28.751 -12.201  11.962  0.00  0.00     0.009 C 
ATOM     16  C   UNL d   1      30.434 -14.187  11.823  0.00  0.00     0.009 C 
ATOM     17  C   UNL d   1      27.827 -12.973  11.035  0.00  0.00    -0.013 C 
ATOM     18  C   UNL d   1      28.027 -14.481  11.239  0.00  0.00     0.009 C 
ATOM     19  C   UNL d   1      28.158 -12.598   9.596  0.00  0.00     0.020 C 
ATOM     20  C   UNL d   1      29.463 -14.899  10.889  0.00  0.00    -0.013 C 
ATOM     21  C   UNL d   1      29.798 -14.508   9.444  0.00  0.00     0.020 C 
ENDBRANCH  10  12
ENDBRANCH   7   9
ENDBRANCH   1   7
BRANCH   3  22
ATOM     22  S   UNL d   1      26.684 -13.099   1.857  0.00  0.00    -0.079 SA
BRANCH  22  23
ATOM     23  C   UNL d   1      27.665 -12.784   0.359  0.00  0.00     0.185 C 
BRANCH  23  24
ATOM     24  C   UNL d   1      28.148 -14.123  -0.251  0.00  0.00     0.227 C 
ATOM     25  O   UNL d   1      28.760 -14.216  -1.298  0.00  0.00    -0.273 OA
ATOM     26  N   UNL d   1      27.839 -15.269   0.492  0.00  0.00    -0.360 N 
ATOM     27  H   UNL d   1      27.238 -15.217   1.302  0.00  0.00     0.162 HD
BRANCH  26  28
ATOM     28  C   UNL d   1      28.224 -16.569  -0.051  0.00  0.00     0.127 C 
BRANCH  28  29
ATOM     29  C   UNL d   1      27.387 -17.056  -1.244  0.00  0.00     0.060 C 
BRANCH  29  30
ATOM     30  C   UNL d   1      25.898 -17.164  -0.944  0.00  0.00    -0.035 A 
ATOM     31  C   UNL d   1      25.459 -18.084   0.030  0.00  0.00     0.009 A 
ATOM     32  C   UNL d   1      24.100 -18.211   0.344  0.00  0.00     0.001 A 
ATOM     33  C   UNL d   1      23.155 -17.428  -0.310  0.00  0.00     0.002 A 
ATOM     34  C   UNL d   1      23.568 -16.508  -1.268  0.00  0.00     0.024 A 
ATOM     35  C   UNL d   1      24.926 -16.358  -1.568  0.00  0.00     0.040 A 
ATOM     36 CL   UNL d   1      25.307 -15.097  -2.687  0.00  0.00    -0.084 Cl
ENDBRANCH  29  30
ENDBRANCH  28  29
ENDBRANCH  26  28
ENDBRANCH  23  24
ENDBRANCH  22  23
ENDBRANCH   3  22
TORSDOF 9
ENDMDL
MODEL 6
REMARK VINA RESULT:    -9.638      2.195      2.572
REMARK INTER + INTRA:         -14.403
REMARK INTER:                 -12.323
REMARK INTRA:                  -2.080
REMARK CONF_INDEPENDENT:        2.685
REMARK UNBOUND:                -2.080
REMARK  9 active torsions:
REMARK  status: ('A' for Active; 'I' for Inactive)
REMARK    1  A    between atoms: C_2  and  C_24 
REMARK    2  A    between atoms: N_3  and  N_4 
REMARK    3  A    between atoms: N_4  and  C_5 
REMARK    4  A    between atoms: C_7  and  S_8 
REMARK    5  A    between atoms: S_8  and  C_9 
REMARK    6  A    between atoms: C_9  and  C_10 
REMARK       I    between atoms: C_10  and  N_12 
REMARK    7  A    between atoms: N_12  and  C_13 
REMARK    8  A    between atoms: C_13  and  C_14 
REMARK    9  A    between atoms: C_14  and  C_15 
ROOT
ATOM      1  C   UNL d   1      28.380 -14.519   3.783  0.00  0.00     0.739 A 
ATOM      2  N   UNL d   1      27.464 -13.571   3.647  0.00  0.00    -0.034 NA
ATOM      3  C   UNL d   1      27.414 -13.335   2.292  0.00  0.00     0.226 A 
ATOM      4  N   UNL d   1      28.244 -14.094   1.568  0.00  0.00    -0.132 NA
ATOM      5  N   UNL d   1      28.843 -14.825   2.520  0.00  0.00    -0.103 N 
ATOM      6  H   UNL d   1      29.505 -15.536   2.231  0.00  0.00     0.208 HD
ENDROOT
BRANCH   1   7
ATOM      7  N   UNL d   1      28.894 -15.160   4.892  0.00  0.00    -0.106 N 
ATOM      8  H   UNL d   1      29.431 -16.001   4.710  0.00  0.00     0.208 HD
BRANCH   7   9
ATOM      9  N   UNL d   1      28.737 -14.728   6.208  0.00  0.00    -0.169 NA
ATOM     10  C   UNL d   1      29.351 -13.676   6.732  0.00  0.00     0.038 C 
ATOM     11  C   UNL d   1      30.296 -12.807   5.950  0.00  0.00     0.068 C 
BRANCH  10  12
ATOM     12  C   UNL d   1      29.183 -13.404   8.361  0.00  0.00     0.003 C 
ATOM     13  C   UNL d   1      28.155 -12.405   9.182  0.00  0.00     0.020 C 
ATOM     14  C   UNL d   1      28.401 -12.538  10.744  0.00  0.00    -0.013 C 
ATOM     15  C   UNL d   1      28.078 -13.999  11.093  0.00  0.00     0.009 C 
ATOM     16  C   UNL d   1      29.854 -12.093  10.990  0.00  0.00     0.009 C 
ATOM     17  C   UNL d   1      29.087 -14.918  10.424  0.00  0.00    -0.013 C 
ATOM     18  C   UNL d   1      30.511 -14.492  10.804  0.00  0.00     0.009 C 
ATOM     19  C   UNL d   1      28.904 -14.824   8.915  0.00  0.00     0.020 C 
ATOM     20  C   UNL d   1      30.810 -13.067  10.313  0.00  0.00    -0.013 C 
ATOM     21  C   UNL d   1      30.612 -12.972   8.795  0.00  0.00     0.020 C 
ENDBRANCH  10  12
ENDBRANCH   7   9
ENDBRANCH   1   7
BRANCH   3  22
ATOM     22  S   UNL d   1      26.383 -12.195   1.462  0.00  0.00    -0.079 SA
BRANCH  22  23
ATOM     23  C   UNL d   1      27.404 -11.466   0.145  0.00  0.00     0.185 C 
BRANCH  23  24
ATOM     24  C   UNL d   1      27.031 -12.090  -1.222  0.00  0.00     0.227 C 
ATOM     25  O   UNL d   1      26.698 -11.447  -2.200  0.00  0.00    -0.273 OA
ATOM     26  N   UNL d   1      27.102 -13.488  -1.285  0.00  0.00    -0.360 N 
ATOM     27  H   UNL d   1      27.267 -14.038  -0.455  0.00  0.00     0.162 HD
BRANCH  26  28
ATOM     28  C   UNL d   1      26.717 -14.143  -2.533  0.00  0.00     0.127 C 
BRANCH  28  29
ATOM     29  C   UNL d   1      26.980 -15.656  -2.587  0.00  0.00     0.060 C 
BRANCH  29  30
ATOM     30  C   UNL d   1      26.166 -16.456  -1.580  0.00  0.00    -0.035 A 
ATOM     31  C   UNL d   1      24.778 -16.601  -1.779  0.00  0.00     0.009 A 
ATOM     32  C   UNL d   1      23.991 -17.335  -0.882  0.00  0.00     0.001 A 
ATOM     33  C   UNL d   1      24.572 -17.933   0.231  0.00  0.00     0.002 A 
ATOM     34  C   UNL d   1      25.941 -17.808   0.441  0.00  0.00     0.024 A 
ATOM     35  C   UNL d   1      26.736 -17.098  -0.464  0.00  0.00     0.040 A 
ATOM     36 CL   UNL d   1      28.435 -17.127  -0.145  0.00  0.00    -0.084 Cl
ENDBRANCH  29  30
ENDBRANCH  28  29
ENDBRANCH  26  28
ENDBRANCH  23  24
ENDBRANCH  22  23
ENDBRANCH   3  22
TORSDOF 9
ENDMDL
MODEL 7
REMARK VINA RESULT:    -9.390      4.302      5.692
REMARK INTER + INTRA:         -14.463
REMARK INTER:                 -12.075
REMARK INTRA:                  -2.388
REMARK CONF_INDEPENDENT:        2.685
REMARK UNBOUND:                -2.388
REMARK  9 active torsions:
REMARK  status: ('A' for Active; 'I' for Inactive)
REMARK    1  A    between atoms: C_2  and  C_24 
REMARK    2  A    between atoms: N_3  and  N_4 
REMARK    3  A    between atoms: N_4  and  C_5 
REMARK    4  A    between atoms: C_7  and  S_8 
REMARK    5  A    between atoms: S_8  and  C_9 
REMARK    6  A    between atoms: C_9  and  C_10 
REMARK       I    between atoms: C_10  and  N_12 
REMARK    7  A    between atoms: N_12  and  C_13 
REMARK    8  A    between atoms: C_13  and  C_14 
REMARK    9  A    between atoms: C_14  and  C_15 
ROOT
ATOM      1  C   UNL d   1      29.930 -16.190  -0.305  0.00  0.00     0.739 A 
ATOM      2  N   UNL d   1      29.867 -15.741  -1.550  0.00  0.00    -0.034 NA
ATOM      3  C   UNL d   1      30.143 -16.843  -2.327  0.00  0.00     0.226 A 
ATOM      4  N   UNL d   1      30.367 -17.965  -1.634  0.00  0.00    -0.132 NA
ATOM      5  N   UNL d   1      30.234 -17.535  -0.371  0.00  0.00    -0.103 N 
ATOM      6  H   UNL d   1      30.310 -18.215   0.376  0.00  0.00     0.208 HD
ENDROOT
BRANCH   1   7
ATOM      7  N   UNL d   1      29.773 -15.566   0.916  0.00  0.00    -0.106 N 
ATOM      8  H   UNL d   1      30.050 -16.105   1.730  0.00  0.00     0.208 HD
BRANCH   7   9
ATOM      9  N   UNL d   1      29.282 -14.274   1.095  0.00  0.00    -0.169 NA
ATOM     10  C   UNL d   1      28.540 -13.889   2.125  0.00  0.00     0.038 C 
ATOM     11  C   UNL d   1      28.147 -14.815   3.242  0.00  0.00     0.068 C 
BRANCH  10  12
ATOM     12  C   UNL d   1      27.897 -12.359   2.095  0.00  0.00     0.003 C 
ATOM     13  C   UNL d   1      26.364 -11.845   1.754  0.00  0.00     0.020 C 
ATOM     14  C   UNL d   1      26.280 -10.266   1.886  0.00  0.00    -0.013 C 
ATOM     15  C   UNL d   1      26.607  -9.953   3.354  0.00  0.00     0.009 C 
ATOM     16  C   UNL d   1      27.256  -9.695   0.842  0.00  0.00     0.009 C 
ATOM     17  C   UNL d   1      28.051 -10.326   3.645  0.00  0.00    -0.013 C 
ATOM     18  C   UNL d   1      28.981  -9.631   2.642  0.00  0.00     0.009 C 
ATOM     19  C   UNL d   1      28.197 -11.837   3.524  0.00  0.00     0.020 C 
ATOM     20  C   UNL d   1      28.682 -10.087   1.206  0.00  0.00    -0.013 C 
ATOM     21  C   UNL d   1      28.815 -11.611   1.089  0.00  0.00     0.020 C 
ENDBRANCH  10  12
ENDBRANCH   7   9
ENDBRANCH   1   7
BRANCH   3  22
ATOM     22  S   UNL d   1      30.200 -16.910  -4.071  0.00  0.00    -0.079 SA
BRANCH  22  23
ATOM     23  C   UNL d   1      29.477 -15.347  -4.656  0.00  0.00     0.185 C 
BRANCH  23  24
ATOM     24  C   UNL d   1      27.938 -15.378  -4.485  0.00  0.00     0.227 C 
ATOM     25  O   UNL d   1      27.146 -15.283  -5.403  0.00  0.00    -0.273 OA
ATOM     26  N   UNL d   1      27.481 -15.532  -3.169  0.00  0.00    -0.360 N 
ATOM     27  H   UNL d   1      28.122 -15.499  -2.390  0.00  0.00     0.162 HD
BRANCH  26  28
ATOM     28  C   UNL d   1      26.040 -15.521  -2.933  0.00  0.00     0.127 C 
BRANCH  28  29
ATOM     29  C   UNL d   1      25.616 -15.348  -1.466  0.00  0.00     0.060 C 
BRANCH  29  30
ATOM     30  C   UNL d   1      24.722 -16.466  -0.950  0.00  0.00    -0.035 A 
ATOM     31  C   UNL d   1      23.340 -16.421  -1.223  0.00  0.00     0.009 A 
ATOM     32  C   UNL d   1      22.480 -17.433  -0.776  0.00  0.00     0.001 A 
ATOM     33  C   UNL d   1      22.982 -18.503  -0.044  0.00  0.00     0.002 A 
ATOM     34  C   UNL d   1      24.344 -18.570   0.230  0.00  0.00     0.024 A 
ATOM     35  C   UNL d   1      25.211 -17.577  -0.236  0.00  0.00     0.040 A 
ATOM     36 CL   UNL d   1      26.890 -17.849   0.071  0.00  0.00    -0.084 Cl
ENDBRANCH  29  30
ENDBRANCH  28  29
ENDBRANCH  26  28
ENDBRANCH  23  24
ENDBRANCH  22  23
ENDBRANCH   3  22
TORSDOF 9
ENDMDL
MODEL 8
REMARK VINA RESULT:    -9.070      3.121      5.011
REMARK INTER + INTRA:         -14.386
REMARK INTER:                 -11.755
REMARK INTRA:                  -2.631
REMARK CONF_INDEPENDENT:        2.685
REMARK UNBOUND:                -2.631
REMARK  9 active torsions:
REMARK  status: ('A' for Active; 'I' for Inactive)
REMARK    1  A    between atoms: C_2  and  C_24 
REMARK    2  A    between atoms: N_3  and  N_4 
REMARK    3  A    between atoms: N_4  and  C_5 
REMARK    4  A    between atoms: C_7  and  S_8 
REMARK    5  A    between atoms: S_8  and  C_9 
REMARK    6  A    between atoms: C_9  and  C_10 
REMARK       I    between atoms: C_10  and  N_12 
REMARK    7  A    between atoms: N_12  and  C_13 
REMARK    8  A    between atoms: C_13  and  C_14 
REMARK    9  A    between atoms: C_14  and  C_15 
ROOT
ATOM      1  C   UNL d   1      30.867 -16.080  -0.811  0.00  0.00     0.739 A 
ATOM      2  N   UNL d   1      30.703 -15.904  -2.114  0.00  0.00    -0.034 NA
ATOM      3  C   UNL d   1      30.304 -17.137  -2.579  0.00  0.00     0.226 A 
ATOM      4  N   UNL d   1      30.198 -18.077  -1.633  0.00  0.00    -0.132 NA
ATOM      5  N   UNL d   1      30.560 -17.397  -0.535  0.00  0.00    -0.103 N 
ATOM      6  H   UNL d   1      30.521 -17.876   0.358  0.00  0.00     0.208 HD
ENDROOT
BRANCH   1   7
ATOM      7  N   UNL d   1      31.278 -15.231   0.196  0.00  0.00    -0.106 N 
ATOM      8  H   UNL d   1      32.245 -14.926   0.154  0.00  0.00     0.208 HD
BRANCH   7   9
ATOM      9  N   UNL d   1      30.466 -14.768   1.230  0.00  0.00    -0.169 NA
ATOM     10  C   UNL d   1      30.899 -14.463   2.446  0.00  0.00     0.038 C 
ATOM     11  C   UNL d   1      32.342 -14.574   2.852  0.00  0.00     0.068 C 
BRANCH  10  12
ATOM     12  C   UNL d   1      29.773 -14.090   3.606  0.00  0.00     0.003 C 
ATOM     13  C   UNL d   1      29.395 -14.854   5.021  0.00  0.00     0.020 C 
ATOM     14  C   UNL d   1      28.241 -14.065   5.773  0.00  0.00    -0.013 C 
ATOM     15  C   UNL d   1      28.821 -12.677   6.083  0.00  0.00     0.009 C 
ATOM     16  C   UNL d   1      27.021 -14.091   4.835  0.00  0.00     0.009 C 
ATOM     17  C   UNL d   1      29.072 -11.927   4.785  0.00  0.00    -0.013 C 
ATOM     18  C   UNL d   1      27.785 -11.888   3.950  0.00  0.00     0.009 C 
ATOM     19  C   UNL d   1      30.168 -12.647   4.012  0.00  0.00     0.020 C 
ATOM     20  C   UNL d   1      27.333 -13.305   3.568  0.00  0.00    -0.013 C 
ATOM     21  C   UNL d   1      28.444 -14.034   2.801  0.00  0.00     0.020 C 
ENDBRANCH  10  12
ENDBRANCH   7   9
ENDBRANCH   1   7
BRANCH   3  22
ATOM     22  S   UNL d   1      29.912 -17.560  -4.228  0.00  0.00    -0.079 SA
BRANCH  22  23
ATOM     23  C   UNL d   1      29.587 -15.989  -5.084  0.00  0.00     0.185 C 
BRANCH  23  24
ATOM     24  C   UNL d   1      28.175 -15.467  -4.717  0.00  0.00     0.227 C 
ATOM     25  O   UNL d   1      27.305 -15.219  -5.530  0.00  0.00    -0.273 OA
ATOM     26  N   UNL d   1      27.936 -15.290  -3.348  0.00  0.00    -0.360 N 
ATOM     27  H   UNL d   1      28.681 -15.385  -2.674  0.00  0.00     0.162 HD
BRANCH  26  28
ATOM     28  C   UNL d   1      26.641 -14.755  -2.938  0.00  0.00     0.127 C 
BRANCH  28  29
ATOM     29  C   UNL d   1      25.577 -15.807  -2.586  0.00  0.00     0.060 C 
BRANCH  29  30
ATOM     30  C   UNL d   1      25.918 -16.635  -1.355  0.00  0.00    -0.035 A 
ATOM     31  C   UNL d   1      27.223 -16.574  -0.826  0.00  0.00     0.009 A 
ATOM     32  C   UNL d   1      27.579 -17.312   0.310  0.00  0.00     0.001 A 
ATOM     33  C   UNL d   1      26.642 -18.128   0.935  0.00  0.00     0.002 A 
ATOM     34  C   UNL d   1      25.347 -18.197   0.434  0.00  0.00     0.024 A 
ATOM     35  C   UNL d   1      24.979 -17.443  -0.685  0.00  0.00     0.040 A 
ATOM     36 CL   UNL d   1      23.309 -17.530  -1.126  0.00  0.00    -0.084 Cl
ENDBRANCH  29  30
ENDBRANCH  28  29
ENDBRANCH  26  28
ENDBRANCH  23  24
ENDBRANCH  22  23
ENDBRANCH   3  22
TORSDOF 9
ENDMDL
MODEL 9
REMARK VINA RESULT:    -8.446      3.271      4.926
REMARK INTER + INTRA:         -14.199
REMARK INTER:                 -11.131
REMARK INTRA:                  -3.068
REMARK CONF_INDEPENDENT:        2.685
REMARK UNBOUND:                -3.068
REMARK  9 active torsions:
REMARK  status: ('A' for Active; 'I' for Inactive)
REMARK    1  A    between atoms: C_2  and  C_24 
REMARK    2  A    between atoms: N_3  and  N_4 
REMARK    3  A    between atoms: N_4  and  C_5 
REMARK    4  A    between atoms: C_7  and  S_8 
REMARK    5  A    between atoms: S_8  and  C_9 
REMARK    6  A    between atoms: C_9  and  C_10 
REMARK       I    between atoms: C_10  and  N_12 
REMARK    7  A    between atoms: N_12  and  C_13 
REMARK    8  A    between atoms: C_13  and  C_14 
REMARK    9  A    between atoms: C_14  and  C_15 
ROOT
ATOM      1  C   UNL d   1      29.595 -13.994  -1.498  0.00  0.00     0.739 A 
ATOM      2  N   UNL d   1      29.327 -13.959  -2.795  0.00  0.00    -0.034 NA
ATOM      3  C   UNL d   1      29.172 -15.280  -3.150  0.00  0.00     0.226 A 
ATOM      4  N   UNL d   1      29.318 -16.144  -2.139  0.00  0.00    -0.132 NA
ATOM      5  N   UNL d   1      29.587 -15.320  -1.115  0.00  0.00    -0.103 N 
ATOM      6  H   UNL d   1      29.698 -15.725  -0.193  0.00  0.00     0.208 HD
ENDROOT
BRANCH   1   7
ATOM      7  N   UNL d   1      29.870 -13.001  -0.580  0.00  0.00    -0.106 N 
ATOM      8  H   UNL d   1      30.175 -12.113  -0.964  0.00  0.00     0.208 HD
BRANCH   7   9
ATOM      9  N   UNL d   1      29.747 -13.135   0.802  0.00  0.00    -0.169 NA
ATOM     10  C   UNL d   1      28.598 -13.086   1.462  0.00  0.00     0.038 C 
ATOM     11  C   UNL d   1      27.272 -12.888   0.782  0.00  0.00     0.068 C 
BRANCH  10  12
ATOM     12  C   UNL d   1      28.648 -13.093   3.121  0.00  0.00     0.003 C 
ATOM     13  C   UNL d   1      28.899 -11.861   4.192  0.00  0.00     0.020 C 
ATOM     14  C   UNL d   1      28.832 -12.412   5.678  0.00  0.00    -0.013 C 
ATOM     15  C   UNL d   1      27.407 -12.958   5.856  0.00  0.00     0.009 C 
ATOM     16  C   UNL d   1      29.968 -13.442   5.807  0.00  0.00     0.009 C 
ATOM     17  C   UNL d   1      27.205 -14.161   4.948  0.00  0.00    -0.013 C 
ATOM     18  C   UNL d   1      28.303 -15.200   5.208  0.00  0.00     0.009 C 
ATOM     19  C   UNL d   1      27.270 -13.692   3.500  0.00  0.00     0.020 C 
ATOM     20  C   UNL d   1      29.692 -14.627   4.890  0.00  0.00    -0.013 C 
ATOM     21  C   UNL d   1      29.751 -14.143   3.435  0.00  0.00     0.020 C 
ENDBRANCH  10  12
ENDBRANCH   7   9
ENDBRANCH   1   7
BRANCH   3  22
ATOM     22  S   UNL d   1      28.791 -15.904  -4.736  0.00  0.00    -0.079 SA
BRANCH  22  23
ATOM     23  C   UNL d   1      27.561 -14.763  -5.440  0.00  0.00     0.185 C 
BRANCH  23  24
ATOM     24  C   UNL d   1      26.272 -14.777  -4.581  0.00  0.00     0.227 C 
ATOM     25  O   UNL d   1      25.199 -15.199  -4.966  0.00  0.00    -0.273 OA
ATOM     26  N   UNL d   1      26.408 -14.262  -3.285  0.00  0.00    -0.360 N 
ATOM     27  H   UNL d   1      27.260 -13.808  -2.992  0.00  0.00     0.162 HD
BRANCH  26  28
ATOM     28  C   UNL d   1      25.218 -14.202  -2.439  0.00  0.00     0.127 C 
BRANCH  28  29
ATOM     29  C   UNL d   1      24.542 -15.554  -2.160  0.00  0.00     0.060 C 
BRANCH  29  30
ATOM     30  C   UNL d   1      25.277 -16.406  -1.135  0.00  0.00    -0.035 A 
ATOM     31  C   UNL d   1      26.510 -15.954  -0.623  0.00  0.00     0.009 A 
ATOM     32  C   UNL d   1      27.217 -16.701   0.328  0.00  0.00     0.001 A 
ATOM     33  C   UNL d   1      26.710 -17.914   0.781  0.00  0.00     0.002 A 
ATOM     34  C   UNL d   1      25.491 -18.374   0.295  0.00  0.00     0.024 A 
ATOM     35  C   UNL d   1      24.768 -17.621  -0.636  0.00  0.00     0.040 A 
ATOM     36 CL   UNL d   1      23.216 -18.252  -1.061  0.00  0.00    -0.084 Cl
ENDBRANCH  29  30
ENDBRANCH  28  29
ENDBRANCH  26  28
ENDBRANCH  23  24
ENDBRANCH  22  23
ENDBRANCH   3  22
TORSDOF 9
ENDMDL
