MODEL 1
REMARK VINA RESULT:    -7.348      0.000      0.000
REMARK INTER + INTRA:         -16.282
REMARK INTER:                 -10.927
REMARK INTRA:                  -5.355
REMARK CONF_INDEPENDENT:        3.580
REMARK UNBOUND:                -5.355
REMARK  12 active torsions:
REMARK  status: ('A' for Active; 'I' for Inactive)
REMARK    1  A    between atoms: C_2  and  O_3 
REMARK    2  A    between atoms: C_4  and  C_2 
REMARK    3  A    between atoms: C_4  and  C_17 
REMARK    4  A    between atoms: C_4  and  N_5 
REMARK    5  A    between atoms: N_5  and  S_6 
REMARK    6  A    between atoms: S_6  and  C_9 
REMARK    7  A    between atoms: C_17  and  O_19 
REMARK    8  A    between atoms: O_19  and  C_20 
REMARK    9  A    between atoms: C_20  and  C_21 
REMARK       I    between atoms: C_21  and  N_23 
REMARK   10  A    between atoms: N_23  and  C_24 
REMARK   11  A    between atoms: C_24  and  C_25 
REMARK   12  A    between atoms: C_25  and  C_26 
ROOT
ATOM      1  C   UNL d   1      25.778 -11.924  -4.320  0.00  0.00     0.199 C 
ENDROOT
BRANCH   1   2
ATOM      2  C   UNL d   1      26.060 -11.343  -5.708  0.00  0.00     0.280 C 
ATOM      3  O   UNL d   1      25.179 -11.075  -6.519  0.00  0.00    -0.263 OA
BRANCH   2   4
ATOM      4  O   UNL d   1      27.379 -11.211  -5.988  0.00  0.00    -0.311 OA
BRANCH   4   5
ATOM      5  C   UNL d   1      27.645 -11.284  -7.399  0.00  0.00     0.281 C 
BRANCH   5   6
ATOM      6  C   UNL d   1      28.419 -12.553  -7.731  0.00  0.00     0.241 C 
ATOM      7  O   UNL d   1      29.052 -12.682  -8.776  0.00  0.00    -0.271 OA
ATOM      8  N   UNL d   1      28.370 -13.545  -6.766  0.00  0.00    -0.359 N 
ATOM      9  H   UNL d   1      27.882 -13.404  -5.890  0.00  0.00     0.162 HD
BRANCH   8  10
ATOM     10  C   UNL d   1      29.067 -14.793  -7.010  0.00  0.00     0.127 C 
BRANCH  10  11
ATOM     11  C   UNL d   1      30.085 -15.163  -5.929  0.00  0.00     0.053 C 
BRANCH  11  12
ATOM     12  C   UNL d   1      30.273 -16.661  -5.887  0.00  0.00    -0.082 C 
ATOM     13  C   UNL d   1      30.068 -17.331  -4.738  0.00  0.00    -0.024 C 
ATOM     14  C   UNL d   1      30.405 -18.777  -4.548  0.00  0.00     0.027 C 
ATOM     15  C   UNL d   1      31.298 -19.321  -5.662  0.00  0.00     0.004 C 
ATOM     16  C   UNL d   1      30.794 -18.875  -7.030  0.00  0.00     0.005 C 
ATOM     17  C   UNL d   1      30.780 -17.345  -7.136  0.00  0.00     0.034 C 
ENDBRANCH  11  12
ENDBRANCH  10  11
ENDBRANCH   8  10
ENDBRANCH   5   6
ENDBRANCH   4   5
ENDBRANCH   2   4
ENDBRANCH   1   2
BRANCH   1  18
ATOM     18  N   UNL d   1      26.716 -13.104  -4.058  0.00  0.00    -0.199 NA
ATOM     19  H   UNL d   1      27.630 -12.940  -4.488  0.00  0.00     0.141 HD
BRANCH  18  20
ATOM     20  S   UNL d   1      26.032 -14.625  -4.445  0.00  0.00     0.242 S 
ATOM     21  O   UNL d   1      24.621 -14.424  -4.644  0.00  0.00    -0.206 OA
ATOM     22  O   UNL d   1      26.830 -15.277  -5.463  0.00  0.00    -0.206 OA
BRANCH  20  23
ATOM     23  C   UNL d   1      26.254 -15.630  -3.009  0.00  0.00     0.076 A 
ATOM     24  C   UNL d   1      27.487 -15.718  -2.375  0.00  0.00     0.026 A 
ATOM     25  C   UNL d   1      27.585 -16.485  -1.211  0.00  0.00     0.027 A 
ATOM     26  C   UNL d   1      26.466 -17.161  -0.698  0.00  0.00     0.055 A 
ATOM     27 CL   UNL d   1      26.657 -18.037   0.778  0.00  0.00    -0.083 Cl
ATOM     28  C   UNL d   1      25.243 -17.102  -1.370  0.00  0.00     0.057 A 
ATOM     29 CL   UNL d   1      23.831 -17.941  -0.832  0.00  0.00    -0.083 Cl
ATOM     30  C   UNL d   1      25.139 -16.334  -2.527  0.00  0.00     0.050 A 
ENDBRANCH  20  23
ENDBRANCH  18  20
ENDBRANCH   1  18
BRANCH   1  31
ATOM     31  C   UNL d   1      26.012 -10.820  -3.255  0.00  0.00     0.142 C 
ATOM     32  C   UNL d   1      25.556  -9.441  -3.734  0.00  0.00     0.041 C 
BRANCH  31  33
ATOM     33  O   UNL d   1      27.373 -10.774  -2.808  0.00  0.00    -0.394 OA
ATOM     34  H   UNL d   1      27.915 -11.374  -3.355  0.00  0.00     0.210 HD
ENDBRANCH  31  33
ENDBRANCH   1  31
TORSDOF 12
ENDMDL
MODEL 2
REMARK VINA RESULT:    -7.315      3.271      6.568
REMARK INTER + INTRA:         -16.108
REMARK INTER:                 -10.895
REMARK INTRA:                  -5.213
REMARK CONF_INDEPENDENT:        3.580
REMARK UNBOUND:                -5.213
REMARK  12 active torsions:
REMARK  status: ('A' for Active; 'I' for Inactive)
REMARK    1  A    between atoms: C_2  and  O_3 
REMARK    2  A    between atoms: C_4  and  C_2 
REMARK    3  A    between atoms: C_4  and  C_17 
REMARK    4  A    between atoms: C_4  and  N_5 
REMARK    5  A    between atoms: N_5  and  S_6 
REMARK    6  A    between atoms: S_6  and  C_9 
REMARK    7  A    between atoms: C_17  and  O_19 
REMARK    8  A    between atoms: O_19  and  C_20 
REMARK    9  A    between atoms: C_20  and  C_21 
REMARK       I    between atoms: C_21  and  N_23 
REMARK   10  A    between atoms: N_23  and  C_24 
REMARK   11  A    between atoms: C_24  and  C_25 
REMARK   12  A    between atoms: C_25  and  C_26 
ROOT
ATOM      1  C   UNL d   1      29.666 -12.900  -6.714  0.00  0.00     0.199 C 
ENDROOT
BRANCH   1   2
ATOM      2  C   UNL d   1      28.514 -12.775  -5.713  0.00  0.00     0.280 C 
ATOM      3  O   UNL d   1      28.648 -12.304  -4.588  0.00  0.00    -0.263 OA
BRANCH   2   4
ATOM      4  O   UNL d   1      27.345 -13.293  -6.158  0.00  0.00    -0.311 OA
BRANCH   4   5
ATOM      5  C   UNL d   1      26.240 -12.955  -5.303  0.00  0.00     0.281 C 
BRANCH   5   6
ATOM      6  C   UNL d   1      26.017 -14.044  -4.263  0.00  0.00     0.241 C 
ATOM      7  O   UNL d   1      24.894 -14.382  -3.895  0.00  0.00    -0.271 OA
ATOM      8  N   UNL d   1      27.168 -14.637  -3.771  0.00  0.00    -0.359 N 
ATOM      9  H   UNL d   1      28.083 -14.379  -4.119  0.00  0.00     0.162 HD
BRANCH   8  10
ATOM     10  C   UNL d   1      27.046 -15.673  -2.765  0.00  0.00     0.127 C 
BRANCH  10  11
ATOM     11  C   UNL d   1      26.425 -15.198  -1.449  0.00  0.00     0.053 C 
BRANCH  11  12
ATOM     12  C   UNL d   1      25.477 -16.246  -0.917  0.00  0.00    -0.082 C 
ATOM     13  C   UNL d   1      25.945 -17.248  -0.150  0.00  0.00    -0.024 C 
ATOM     14  C   UNL d   1      25.124 -18.428   0.267  0.00  0.00     0.027 C 
ATOM     15  C   UNL d   1      23.824 -18.547  -0.526  0.00  0.00     0.004 C 
ATOM     16  C   UNL d   1      23.130 -17.195  -0.641  0.00  0.00     0.005 C 
ATOM     17  C   UNL d   1      24.030 -16.175  -1.351  0.00  0.00     0.034 C 
ENDBRANCH  11  12
ENDBRANCH  10  11
ENDBRANCH   8  10
ENDBRANCH   5   6
ENDBRANCH   4   5
ENDBRANCH   2   4
ENDBRANCH   1   2
BRANCH   1  18
ATOM     18  N   UNL d   1      29.873 -14.371  -7.078  0.00  0.00    -0.199 NA
ATOM     19  H   UNL d   1      29.370 -14.603  -7.939  0.00  0.00     0.141 HD
BRANCH  18  20
ATOM     20  S   UNL d   1      29.563 -15.449  -5.785  0.00  0.00     0.242 S 
ATOM     21  O   UNL d   1      30.210 -14.916  -4.616  0.00  0.00    -0.206 OA
ATOM     22  O   UNL d   1      28.155 -15.786  -5.753  0.00  0.00    -0.206 OA
BRANCH  20  23
ATOM     23  C   UNL d   1      30.362 -16.964  -6.222  0.00  0.00     0.076 A 
ATOM     24  C   UNL d   1      30.158 -18.124  -5.485  0.00  0.00     0.026 A 
ATOM     25  C   UNL d   1      30.773 -19.303  -5.913  0.00  0.00     0.027 A 
ATOM     26  C   UNL d   1      31.591 -19.315  -7.055  0.00  0.00     0.055 A 
ATOM     27 CL   UNL d   1      32.265 -20.825  -7.551  0.00  0.00    -0.083 Cl
ATOM     28  C   UNL d   1      31.826 -18.132  -7.760  0.00  0.00     0.057 A 
ATOM     29 CL   UNL d   1      32.853 -18.051  -9.147  0.00  0.00    -0.083 Cl
ATOM     30  C   UNL d   1      31.209 -16.956  -7.342  0.00  0.00     0.050 A 
ENDBRANCH  20  23
ENDBRANCH  18  20
ENDBRANCH   1  18
BRANCH   1  31
ATOM     31  C   UNL d   1      29.315 -12.087  -7.989  0.00  0.00     0.142 C 
ATOM     32  C   UNL d   1      28.562 -10.795  -7.669  0.00  0.00     0.041 C 
BRANCH  31  33
ATOM     33  O   UNL d   1      28.594 -12.867  -8.950  0.00  0.00    -0.394 OA
ATOM     34  H   UNL d   1      28.909 -13.790  -8.922  0.00  0.00     0.210 HD
ENDBRANCH  31  33
ENDBRANCH   1  31
TORSDOF 12
ENDMDL
MODEL 3
REMARK VINA RESULT:    -7.224      6.870      9.255
REMARK INTER + INTRA:         -16.096
REMARK INTER:                 -10.803
REMARK INTRA:                  -5.293
REMARK CONF_INDEPENDENT:        3.580
REMARK UNBOUND:                -5.293
REMARK  12 active torsions:
REMARK  status: ('A' for Active; 'I' for Inactive)
REMARK    1  A    between atoms: C_2  and  O_3 
REMARK    2  A    between atoms: C_4  and  C_2 
REMARK    3  A    between atoms: C_4  and  C_17 
REMARK    4  A    between atoms: C_4  and  N_5 
REMARK    5  A    between atoms: N_5  and  S_6 
REMARK    6  A    between atoms: S_6  and  C_9 
REMARK    7  A    between atoms: C_17  and  O_19 
REMARK    8  A    between atoms: O_19  and  C_20 
REMARK    9  A    between atoms: C_20  and  C_21 
REMARK       I    between atoms: C_21  and  N_23 
REMARK   10  A    between atoms: N_23  and  C_24 
REMARK   11  A    between atoms: C_24  and  C_25 
REMARK   12  A    between atoms: C_25  and  C_26 
ROOT
ATOM      1  C   UNL d   1      29.654 -13.479   3.469  0.00  0.00     0.199 C 
ENDROOT
BRANCH   1   2
ATOM      2  C   UNL d   1      28.557 -12.522   2.994  0.00  0.00     0.280 C 
ATOM      3  O   UNL d   1      28.632 -11.303   3.105  0.00  0.00    -0.263 OA
BRANCH   2   4
ATOM      4  O   UNL d   1      27.463 -13.148   2.498  0.00  0.00    -0.311 OA
BRANCH   4   5
ATOM      5  C   UNL d   1      27.211 -12.799   1.126  0.00  0.00     0.281 C 
BRANCH   5   6
ATOM      6  C   UNL d   1      27.385 -14.015   0.226  0.00  0.00     0.241 C 
ATOM      7  O   UNL d   1      27.032 -14.017  -0.951  0.00  0.00    -0.271 OA
ATOM      8  N   UNL d   1      27.982 -15.113   0.823  0.00  0.00    -0.359 N 
ATOM      9  H   UNL d   1      28.309 -15.078   1.780  0.00  0.00     0.162 HD
BRANCH   8  10
ATOM     10  C   UNL d   1      28.171 -16.318   0.039  0.00  0.00     0.127 C 
BRANCH  10  11
ATOM     11  C   UNL d   1      27.343 -17.513   0.518  0.00  0.00     0.053 C 
BRANCH  11  12
ATOM     12  C   UNL d   1      25.967 -17.469  -0.102  0.00  0.00    -0.082 C 
ATOM     13  C   UNL d   1      25.750 -16.727  -1.204  0.00  0.00    -0.024 C 
ATOM     14  C   UNL d   1      24.392 -16.472  -1.781  0.00  0.00     0.027 C 
ATOM     15  C   UNL d   1      23.267 -16.854  -0.820  0.00  0.00     0.004 C 
ATOM     16  C   UNL d   1      23.533 -18.214  -0.184  0.00  0.00     0.005 C 
ATOM     17  C   UNL d   1      24.849 -18.202   0.605  0.00  0.00     0.034 C 
ENDBRANCH  11  12
ENDBRANCH  10  11
ENDBRANCH   8  10
ENDBRANCH   5   6
ENDBRANCH   4   5
ENDBRANCH   2   4
ENDBRANCH   1   2
BRANCH   1  18
ATOM     18  N   UNL d   1      29.031 -14.819   3.864  0.00  0.00    -0.199 NA
ATOM     19  H   UNL d   1      28.697 -15.319   3.036  0.00  0.00     0.141 HD
BRANCH  18  20
ATOM     20  S   UNL d   1      27.866 -14.694   5.112  0.00  0.00     0.242 S 
ATOM     21  O   UNL d   1      26.687 -14.099   4.541  0.00  0.00    -0.206 OA
ATOM     22  O   UNL d   1      27.780 -15.947   5.831  0.00  0.00    -0.206 OA
BRANCH  20  23
ATOM     23  C   UNL d   1      28.545 -13.563   6.290  0.00  0.00     0.076 A 
ATOM     24  C   UNL d   1      28.135 -12.236   6.333  0.00  0.00     0.026 A 
ATOM     25  C   UNL d   1      28.667 -11.406   7.322  0.00  0.00     0.027 A 
ATOM     26  C   UNL d   1      29.603 -11.897   8.247  0.00  0.00     0.055 A 
ATOM     27 CL   UNL d   1      30.166 -10.822   9.476  0.00  0.00    -0.083 Cl
ATOM     28  C   UNL d   1      30.042 -13.220   8.164  0.00  0.00     0.057 A 
ATOM     29 CL   UNL d   1      31.224 -13.889   9.232  0.00  0.00    -0.083 Cl
ATOM     30  C   UNL d   1      29.510 -14.053   7.184  0.00  0.00     0.050 A 
ENDBRANCH  20  23
ENDBRANCH  18  20
ENDBRANCH   1  18
BRANCH   1  31
ATOM     31  C   UNL d   1      30.670 -13.692   2.314  0.00  0.00     0.142 C 
ATOM     32  C   UNL d   1      30.671 -12.533   1.316  0.00  0.00     0.041 C 
BRANCH  31  33
ATOM     33  O   UNL d   1      30.472 -14.940   1.639  0.00  0.00    -0.394 OA
ATOM     34  H   UNL d   1      30.048 -15.575   2.246  0.00  0.00     0.210 HD
ENDBRANCH  31  33
ENDBRANCH   1  31
TORSDOF 12
ENDMDL
MODEL 4
REMARK VINA RESULT:    -7.216      0.684      1.143
REMARK INTER + INTRA:         -16.167
REMARK INTER:                 -10.795
REMARK INTRA:                  -5.372
REMARK CONF_INDEPENDENT:        3.580
REMARK UNBOUND:                -5.372
REMARK  12 active torsions:
REMARK  status: ('A' for Active; 'I' for Inactive)
REMARK    1  A    between atoms: C_2  and  O_3 
REMARK    2  A    between atoms: C_4  and  C_2 
REMARK    3  A    between atoms: C_4  and  C_17 
REMARK    4  A    between atoms: C_4  and  N_5 
REMARK    5  A    between atoms: N_5  and  S_6 
REMARK    6  A    between atoms: S_6  and  C_9 
REMARK    7  A    between atoms: C_17  and  O_19 
REMARK    8  A    between atoms: O_19  and  C_20 
REMARK    9  A    between atoms: C_20  and  C_21 
REMARK       I    between atoms: C_21  and  N_23 
REMARK   10  A    between atoms: N_23  and  C_24 
REMARK   11  A    between atoms: C_24  and  C_25 
REMARK   12  A    between atoms: C_25  and  C_26 
ROOT
ATOM      1  C   UNL d   1      26.066 -12.060  -4.487  0.00  0.00     0.199 C 
ENDROOT
BRANCH   1   2
ATOM      2  C   UNL d   1      26.740 -11.550  -5.764  0.00  0.00     0.280 C 
ATOM      3  O   UNL d   1      26.117 -11.179  -6.753  0.00  0.00    -0.263 OA
BRANCH   2   4
ATOM      4  O   UNL d   1      28.093 -11.608  -5.728  0.00  0.00    -0.311 OA
BRANCH   4   5
ATOM      5  C   UNL d   1      28.666 -11.763  -7.037  0.00  0.00     0.281 C 
BRANCH   5   6
ATOM      6  C   UNL d   1      29.246 -13.160  -7.205  0.00  0.00     0.241 C 
ATOM      7  O   UNL d   1      30.160 -13.403  -7.990  0.00  0.00    -0.271 OA
ATOM      8  N   UNL d   1      28.681 -14.136  -6.400  0.00  0.00    -0.359 N 
ATOM      9  H   UNL d   1      27.961 -13.909  -5.725  0.00  0.00     0.162 HD
BRANCH   8  10
ATOM     10  C   UNL d   1      29.165 -15.498  -6.508  0.00  0.00     0.127 C 
BRANCH  10  11
ATOM     11  C   UNL d   1      29.825 -16.031  -5.233  0.00  0.00     0.053 C 
BRANCH  11  12
ATOM     12  C   UNL d   1      30.364 -17.421  -5.473  0.00  0.00    -0.082 C 
ATOM     13  C   UNL d   1      30.769 -17.781  -6.705  0.00  0.00    -0.024 C 
ATOM     14  C   UNL d   1      31.141 -19.180  -7.082  0.00  0.00     0.027 C 
ATOM     15  C   UNL d   1      30.703 -20.204  -6.036  0.00  0.00     0.004 C 
ATOM     16  C   UNL d   1      31.043 -19.725  -4.630  0.00  0.00     0.005 C 
ATOM     17  C   UNL d   1      30.341 -18.396  -4.318  0.00  0.00     0.034 C 
ENDBRANCH  11  12
ENDBRANCH  10  11
ENDBRANCH   8  10
ENDBRANCH   5   6
ENDBRANCH   4   5
ENDBRANCH   2   4
ENDBRANCH   1   2
BRANCH   1  18
ATOM     18  N   UNL d   1      26.780 -13.321  -3.998  0.00  0.00    -0.199 NA
ATOM     19  H   UNL d   1      27.749 -13.337  -4.328  0.00  0.00     0.141 HD
BRANCH  18  20
ATOM     20  S   UNL d   1      25.917 -14.765  -4.313  0.00  0.00     0.242 S 
ATOM     21  O   UNL d   1      24.521 -14.425  -4.383  0.00  0.00    -0.206 OA
ATOM     22  O   UNL d   1      26.550 -15.489  -5.395  0.00  0.00    -0.206 OA
BRANCH  20  23
ATOM     23  C   UNL d   1      26.169 -15.793  -2.897  0.00  0.00     0.076 A 
ATOM     24  C   UNL d   1      27.436 -15.973  -2.355  0.00  0.00     0.026 A 
ATOM     25  C   UNL d   1      27.563 -16.752  -1.202  0.00  0.00     0.027 A 
ATOM     26  C   UNL d   1      26.438 -17.349  -0.609  0.00  0.00     0.055 A 
ATOM     27 CL   UNL d   1      26.673 -18.246   0.848  0.00  0.00    -0.083 Cl
ATOM     28  C   UNL d   1      25.177 -17.198  -1.190  0.00  0.00     0.057 A 
ATOM     29 CL   UNL d   1      23.752 -17.936  -0.552  0.00  0.00    -0.083 Cl
ATOM     30  C   UNL d   1      25.044 -16.418  -2.335  0.00  0.00     0.050 A 
ENDBRANCH  20  23
ENDBRANCH  18  20
ENDBRANCH   1  18
BRANCH   1  31
ATOM     31  C   UNL d   1      26.146 -10.954  -3.400  0.00  0.00     0.142 C 
ATOM     32  C   UNL d   1      25.467  -9.656  -3.837  0.00  0.00     0.041 C 
BRANCH  31  33
ATOM     33  O   UNL d   1      27.492 -10.703  -2.979  0.00  0.00    -0.394 OA
ATOM     34  H   UNL d   1      28.107 -11.231  -3.522  0.00  0.00     0.210 HD
ENDBRANCH  31  33
ENDBRANCH   1  31
TORSDOF 12
ENDMDL
MODEL 5
REMARK VINA RESULT:    -6.934      2.949      6.056
REMARK INTER + INTRA:         -16.034
REMARK INTER:                 -10.514
REMARK INTRA:                  -5.520
REMARK CONF_INDEPENDENT:        3.580
REMARK UNBOUND:                -5.520
REMARK  12 active torsions:
REMARK  status: ('A' for Active; 'I' for Inactive)
REMARK    1  A    between atoms: C_2  and  O_3 
REMARK    2  A    between atoms: C_4  and  C_2 
REMARK    3  A    between atoms: C_4  and  C_17 
REMARK    4  A    between atoms: C_4  and  N_5 
REMARK    5  A    between atoms: N_5  and  S_6 
REMARK    6  A    between atoms: S_6  and  C_9 
REMARK    7  A    between atoms: C_17  and  O_19 
REMARK    8  A    between atoms: O_19  and  C_20 
REMARK    9  A    between atoms: C_20  and  C_21 
REMARK       I    between atoms: C_21  and  N_23 
REMARK   10  A    between atoms: N_23  and  C_24 
REMARK   11  A    between atoms: C_24  and  C_25 
REMARK   12  A    between atoms: C_25  and  C_26 
ROOT
ATOM      1  C   UNL d   1      26.843 -12.440  -4.797  0.00  0.00     0.199 C 
ENDROOT
BRANCH   1   2
ATOM      2  C   UNL d   1      26.647 -12.317  -3.284  0.00  0.00     0.280 C 
ATOM      3  O   UNL d   1      25.546 -12.196  -2.755  0.00  0.00    -0.263 OA
BRANCH   2   4
ATOM      4  O   UNL d   1      27.805 -12.287  -2.583  0.00  0.00    -0.311 OA
BRANCH   4   5
ATOM      5  C   UNL d   1      27.618 -11.798  -1.244  0.00  0.00     0.281 C 
BRANCH   5   6
ATOM      6  C   UNL d   1      27.136 -12.916  -0.330  0.00  0.00     0.241 C 
ATOM      7  O   UNL d   1      27.207 -12.841   0.895  0.00  0.00    -0.271 OA
ATOM      8  N   UNL d   1      26.599 -14.018  -0.975  0.00  0.00    -0.359 N 
ATOM      9  H   UNL d   1      26.505 -14.043  -1.984  0.00  0.00     0.162 HD
BRANCH   8  10
ATOM     10  C   UNL d   1      26.129 -15.135  -0.179  0.00  0.00     0.127 C 
BRANCH  10  11
ATOM     11  C   UNL d   1      26.033 -16.455  -0.948  0.00  0.00     0.053 C 
BRANCH  11  12
ATOM     12  C   UNL d   1      24.701 -17.114  -0.679  0.00  0.00    -0.082 C 
ATOM     13  C   UNL d   1      24.657 -18.395  -0.271  0.00  0.00    -0.024 C 
ATOM     14  C   UNL d   1      23.392 -19.188  -0.158  0.00  0.00     0.027 C 
ATOM     15  C   UNL d   1      22.214 -18.514  -0.859  0.00  0.00     0.004 C 
ATOM     16  C   UNL d   1      22.161 -17.027  -0.527  0.00  0.00     0.005 C 
ATOM     17  C   UNL d   1      23.448 -16.320  -0.972  0.00  0.00     0.034 C 
ENDBRANCH  11  12
ENDBRANCH  10  11
ENDBRANCH   8  10
ENDBRANCH   5   6
ENDBRANCH   4   5
ENDBRANCH   2   4
ENDBRANCH   1   2
BRANCH   1  18
ATOM     18  N   UNL d   1      25.799 -13.398  -5.374  0.00  0.00    -0.199 NA
ATOM     19  H   UNL d   1      24.863 -12.989  -5.314  0.00  0.00     0.141 HD
BRANCH  18  20
ATOM     20  S   UNL d   1      25.901 -14.986  -4.744  0.00  0.00     0.242 S 
ATOM     21  O   UNL d   1      25.222 -14.990  -3.475  0.00  0.00    -0.206 OA
ATOM     22  O   UNL d   1      25.545 -15.946  -5.768  0.00  0.00    -0.206 OA
BRANCH  20  23
ATOM     23  C   UNL d   1      27.621 -15.278  -4.455  0.00  0.00     0.076 A 
ATOM     24  C   UNL d   1      28.100 -15.549  -3.179  0.00  0.00     0.026 A 
ATOM     25  C   UNL d   1      29.460 -15.827  -3.023  0.00  0.00     0.027 A 
ATOM     26  C   UNL d   1      30.328 -15.822  -4.129  0.00  0.00     0.055 A 
ATOM     27 CL   UNL d   1      31.982 -16.234  -3.860  0.00  0.00    -0.083 Cl
ATOM     28  C   UNL d   1      29.841 -15.502  -5.398  0.00  0.00     0.057 A 
ATOM     29 CL   UNL d   1      30.848 -15.428  -6.801  0.00  0.00    -0.083 Cl
ATOM     30  C   UNL d   1      28.485 -15.231  -5.560  0.00  0.00     0.050 A 
ENDBRANCH  20  23
ENDBRANCH  18  20
ENDBRANCH   1  18
BRANCH   1  31
ATOM     31  C   UNL d   1      26.682 -11.037  -5.441  0.00  0.00     0.142 C 
ATOM     32  C   UNL d   1      27.129  -9.911  -4.508  0.00  0.00     0.041 C 
BRANCH  31  33
ATOM     33  O   UNL d   1      25.348 -10.804  -5.910  0.00  0.00    -0.394 OA
ATOM     34  H   UNL d   1      24.806 -11.601  -5.759  0.00  0.00     0.210 HD
ENDBRANCH  31  33
ENDBRANCH   1  31
TORSDOF 12
ENDMDL
MODEL 6
REMARK VINA RESULT:    -6.851      3.486      6.584
REMARK INTER + INTRA:         -16.255
REMARK INTER:                 -10.430
REMARK INTRA:                  -5.824
REMARK CONF_INDEPENDENT:        3.580
REMARK UNBOUND:                -5.824
REMARK  12 active torsions:
REMARK  status: ('A' for Active; 'I' for Inactive)
REMARK    1  A    between atoms: C_2  and  O_3 
REMARK    2  A    between atoms: C_4  and  C_2 
REMARK    3  A    between atoms: C_4  and  C_17 
REMARK    4  A    between atoms: C_4  and  N_5 
REMARK    5  A    between atoms: N_5  and  S_6 
REMARK    6  A    between atoms: S_6  and  C_9 
REMARK    7  A    between atoms: C_17  and  O_19 
REMARK    8  A    between atoms: O_19  and  C_20 
REMARK    9  A    between atoms: C_20  and  C_21 
REMARK       I    between atoms: C_21  and  N_23 
REMARK   10  A    between atoms: N_23  and  C_24 
REMARK   11  A    between atoms: C_24  and  C_25 
REMARK   12  A    between atoms: C_25  and  C_26 
ROOT
ATOM      1  C   UNL d   1      26.902 -12.468  -2.955  0.00  0.00     0.199 C 
ENDROOT
BRANCH   1   2
ATOM      2  C   UNL d   1      27.550 -12.461  -1.567  0.00  0.00     0.280 C 
ATOM      3  O   UNL d   1      28.762 -12.386  -1.390  0.00  0.00    -0.263 OA
BRANCH   2   4
ATOM      4  O   UNL d   1      26.667 -12.613  -0.552  0.00  0.00    -0.311 OA
BRANCH   4   5
ATOM      5  C   UNL d   1      27.279 -13.175   0.622  0.00  0.00     0.281 C 
BRANCH   5   6
ATOM      6  C   UNL d   1      27.419 -14.684   0.480  0.00  0.00     0.241 C 
ATOM      7  O   UNL d   1      27.981 -15.375   1.327  0.00  0.00    -0.271 OA
ATOM      8  N   UNL d   1      26.854 -15.226  -0.663  0.00  0.00    -0.359 N 
ATOM      9  H   UNL d   1      26.354 -14.648  -1.328  0.00  0.00     0.162 HD
BRANCH   8  10
ATOM     10  C   UNL d   1      26.956 -16.655  -0.883  0.00  0.00     0.127 C 
BRANCH  10  11
ATOM     11  C   UNL d   1      26.143 -17.500   0.101  0.00  0.00     0.053 C 
BRANCH  11  12
ATOM     12  C   UNL d   1      24.706 -17.582  -0.354  0.00  0.00    -0.082 C 
ATOM     13  C   UNL d   1      23.988 -16.456  -0.519  0.00  0.00    -0.024 C 
ATOM     14  C   UNL d   1      22.515 -16.440  -0.784  0.00  0.00     0.027 C 
ATOM     15  C   UNL d   1      21.858 -17.794  -0.521  0.00  0.00     0.004 C 
ATOM     16  C   UNL d   1      22.683 -18.925  -1.122  0.00  0.00     0.005 C 
ATOM     17  C   UNL d   1      24.094 -18.955  -0.520  0.00  0.00     0.034 C 
ENDBRANCH  11  12
ENDBRANCH  10  11
ENDBRANCH   8  10
ENDBRANCH   5   6
ENDBRANCH   4   5
ENDBRANCH   2   4
ENDBRANCH   1   2
BRANCH   1  18
ATOM     18  N   UNL d   1      25.576 -13.228  -2.898  0.00  0.00    -0.199 NA
ATOM     19  H   UNL d   1      25.294 -13.389  -1.927  0.00  0.00     0.141 HD
BRANCH  18  20
ATOM     20  S   UNL d   1      25.550 -14.638  -3.868  0.00  0.00     0.242 S 
ATOM     21  O   UNL d   1      25.392 -15.764  -2.986  0.00  0.00    -0.206 OA
ATOM     22  O   UNL d   1      24.648 -14.451  -4.985  0.00  0.00    -0.206 OA
BRANCH  20  23
ATOM     23  C   UNL d   1      27.150 -14.737  -4.613  0.00  0.00     0.076 A 
ATOM     24  C   UNL d   1      28.134 -15.571  -4.098  0.00  0.00     0.026 A 
ATOM     25  C   UNL d   1      29.359 -15.648  -4.764  0.00  0.00     0.027 A 
ATOM     26  C   UNL d   1      29.597 -14.891  -5.924  0.00  0.00     0.055 A 
ATOM     27 CL   UNL d   1      31.116 -15.089  -6.721  0.00  0.00    -0.083 Cl
ATOM     28  C   UNL d   1      28.616 -14.021  -6.405  0.00  0.00     0.057 A 
ATOM     29 CL   UNL d   1      28.845 -13.022  -7.795  0.00  0.00    -0.083 Cl
ATOM     30  C   UNL d   1      27.391 -13.946  -5.748  0.00  0.00     0.050 A 
ENDBRANCH  20  23
ENDBRANCH  18  20
ENDBRANCH   1  18
BRANCH   1  31
ATOM     31  C   UNL d   1      26.649 -11.002  -3.399  0.00  0.00     0.142 C 
ATOM     32  C   UNL d   1      27.113  -9.987  -2.353  0.00  0.00     0.041 C 
BRANCH  31  33
ATOM     33  O   UNL d   1      25.282 -10.770  -3.756  0.00  0.00    -0.394 OA
ATOM     34  H   UNL d   1      24.883 -11.601  -4.076  0.00  0.00     0.210 HD
ENDBRANCH  31  33
ENDBRANCH   1  31
TORSDOF 12
ENDMDL
MODEL 7
REMARK VINA RESULT:    -6.263      2.601      5.290
REMARK INTER + INTRA:         -15.932
REMARK INTER:                  -9.843
REMARK INTRA:                  -6.089
REMARK CONF_INDEPENDENT:        3.580
REMARK UNBOUND:                -6.089
REMARK  12 active torsions:
REMARK  status: ('A' for Active; 'I' for Inactive)
REMARK    1  A    between atoms: C_2  and  O_3 
REMARK    2  A    between atoms: C_4  and  C_2 
REMARK    3  A    between atoms: C_4  and  C_17 
REMARK    4  A    between atoms: C_4  and  N_5 
REMARK    5  A    between atoms: N_5  and  S_6 
REMARK    6  A    between atoms: S_6  and  C_9 
REMARK    7  A    between atoms: C_17  and  O_19 
REMARK    8  A    between atoms: O_19  and  C_20 
REMARK    9  A    between atoms: C_20  and  C_21 
REMARK       I    between atoms: C_21  and  N_23 
REMARK   10  A    between atoms: N_23  and  C_24 
REMARK   11  A    between atoms: C_24  and  C_25 
REMARK   12  A    between atoms: C_25  and  C_26 
ROOT
ATOM      1  C   UNL d   1      27.423 -13.544  -5.341  0.00  0.00     0.199 C 
ENDROOT
BRANCH   1   2
ATOM      2  C   UNL d   1      28.148 -14.834  -5.736  0.00  0.00     0.280 C 
ATOM      3  O   UNL d   1      28.471 -15.100  -6.890  0.00  0.00    -0.263 OA
BRANCH   2   4
ATOM      4  O   UNL d   1      28.343 -15.689  -4.704  0.00  0.00    -0.311 OA
BRANCH   4   5
ATOM      5  C   UNL d   1      29.725 -16.060  -4.558  0.00  0.00     0.281 C 
BRANCH   5   6
ATOM      6  C   UNL d   1      30.269 -15.574  -3.222  0.00  0.00     0.241 C 
ATOM      7  O   UNL d   1      31.263 -16.071  -2.697  0.00  0.00    -0.271 OA
ATOM      8  N   UNL d   1      29.574 -14.523  -2.646  0.00  0.00    -0.359 N 
ATOM      9  H   UNL d   1      28.785 -14.095  -3.115  0.00  0.00     0.162 HD
BRANCH   8  10
ATOM     10  C   UNL d   1      30.018 -14.009  -1.365  0.00  0.00     0.127 C 
BRANCH  10  11
ATOM     11  C   UNL d   1      29.807 -14.975  -0.197  0.00  0.00     0.053 C 
BRANCH  11  12
ATOM     12  C   UNL d   1      28.749 -14.436   0.735  0.00  0.00    -0.082 C 
ATOM     13  C   UNL d   1      27.547 -14.074   0.248  0.00  0.00    -0.024 C 
ATOM     14  C   UNL d   1      26.505 -13.361   1.052  0.00  0.00     0.027 C 
ATOM     15  C   UNL d   1      27.059 -12.797   2.359  0.00  0.00     0.004 C 
ATOM     16  C   UNL d   1      27.934 -13.824   3.068  0.00  0.00     0.005 C 
ATOM     17  C   UNL d   1      29.120 -14.235   2.187  0.00  0.00     0.034 C 
ENDBRANCH  11  12
ENDBRANCH  10  11
ENDBRANCH   8  10
ENDBRANCH   5   6
ENDBRANCH   4   5
ENDBRANCH   2   4
ENDBRANCH   1   2
BRANCH   1  18
ATOM     18  N   UNL d   1      26.793 -13.713  -3.957  0.00  0.00    -0.199 NA
ATOM     19  H   UNL d   1      27.514 -13.899  -3.255  0.00  0.00     0.141 HD
BRANCH  18  20
ATOM     20  S   UNL d   1      25.492 -14.823  -3.925  0.00  0.00     0.242 S 
ATOM     21  O   UNL d   1      24.301 -14.081  -3.606  0.00  0.00    -0.206 OA
ATOM     22  O   UNL d   1      25.536 -15.667  -5.102  0.00  0.00    -0.206 OA
BRANCH  20  23
ATOM     23  C   UNL d   1      25.835 -15.926  -2.587  0.00  0.00     0.076 A 
ATOM     24  C   UNL d   1      27.140 -16.187  -2.186  0.00  0.00     0.026 A 
ATOM     25  C   UNL d   1      27.344 -17.024  -1.086  0.00  0.00     0.027 A 
ATOM     26  C   UNL d   1      26.257 -17.598  -0.406  0.00  0.00     0.055 A 
ATOM     27 CL   UNL d   1      26.594 -18.571   0.980  0.00  0.00    -0.083 Cl
ATOM     28  C   UNL d   1      24.953 -17.365  -0.848  0.00  0.00     0.057 A 
ATOM     29 CL   UNL d   1      23.565 -18.068  -0.098  0.00  0.00    -0.083 Cl
ATOM     30  C   UNL d   1      24.743 -16.527  -1.940  0.00  0.00     0.050 A 
ENDBRANCH  20  23
ENDBRANCH  18  20
ENDBRANCH   1  18
BRANCH   1  31
ATOM     31  C   UNL d   1      28.449 -12.380  -5.314  0.00  0.00     0.142 C 
ATOM     32  C   UNL d   1      29.599 -12.591  -6.299  0.00  0.00     0.041 C 
BRANCH  31  33
ATOM     33  O   UNL d   1      28.952 -12.128  -3.997  0.00  0.00    -0.394 OA
ATOM     34  H   UNL d   1      28.218 -12.168  -3.355  0.00  0.00     0.210 HD
ENDBRANCH  31  33
ENDBRANCH   1  31
TORSDOF 12
ENDMDL
MODEL 8
REMARK VINA RESULT:    -6.082      4.598      6.634
REMARK INTER + INTRA:         -16.101
REMARK INTER:                  -9.662
REMARK INTRA:                  -6.439
REMARK CONF_INDEPENDENT:        3.580
REMARK UNBOUND:                -6.439
REMARK  12 active torsions:
REMARK  status: ('A' for Active; 'I' for Inactive)
REMARK    1  A    between atoms: C_2  and  O_3 
REMARK    2  A    between atoms: C_4  and  C_2 
REMARK    3  A    between atoms: C_4  and  C_17 
REMARK    4  A    between atoms: C_4  and  N_5 
REMARK    5  A    between atoms: N_5  and  S_6 
REMARK    6  A    between atoms: S_6  and  C_9 
REMARK    7  A    between atoms: C_17  and  O_19 
REMARK    8  A    between atoms: O_19  and  C_20 
REMARK    9  A    between atoms: C_20  and  C_21 
REMARK       I    between atoms: C_21  and  N_23 
REMARK   10  A    between atoms: N_23  and  C_24 
REMARK   11  A    between atoms: C_24  and  C_25 
REMARK   12  A    between atoms: C_25  and  C_26 
ROOT
ATOM      1  C   UNL d   1      27.597 -13.880   2.982  0.00  0.00     0.199 C 
ENDROOT
BRANCH   1   2
ATOM      2  C   UNL d   1      28.509 -12.702   2.629  0.00  0.00     0.280 C 
ATOM      3  O   UNL d   1      28.163 -11.529   2.724  0.00  0.00    -0.263 OA
BRANCH   2   4
ATOM      4  O   UNL d   1      29.715 -13.074   2.137  0.00  0.00    -0.311 OA
BRANCH   4   5
ATOM      5  C   UNL d   1      30.507 -11.945   1.728  0.00  0.00     0.281 C 
BRANCH   5   6
ATOM      6  C   UNL d   1      30.243 -11.610   0.266  0.00  0.00     0.241 C 
ATOM      7  O   UNL d   1      30.822 -10.693  -0.313  0.00  0.00    -0.271 OA
ATOM      8  N   UNL d   1      29.316 -12.420  -0.369  0.00  0.00    -0.359 N 
ATOM      9  H   UNL d   1      28.883 -13.200   0.110  0.00  0.00     0.162 HD
BRANCH   8  10
ATOM     10  C   UNL d   1      28.996 -12.159  -1.758  0.00  0.00     0.127 C 
BRANCH  10  11
ATOM     11  C   UNL d   1      28.987 -13.407  -2.644  0.00  0.00     0.053 C 
BRANCH  11  12
ATOM     12  C   UNL d   1      27.573 -13.738  -3.057  0.00  0.00    -0.082 C 
ATOM     13  C   UNL d   1      26.667 -12.752  -3.200  0.00  0.00    -0.024 C 
ATOM     14  C   UNL d   1      25.207 -12.992  -3.423  0.00  0.00     0.027 C 
ATOM     15  C   UNL d   1      24.801 -14.438  -3.141  0.00  0.00     0.004 C 
ATOM     16  C   UNL d   1      25.792 -15.413  -3.767  0.00  0.00     0.005 C 
ATOM     17  C   UNL d   1      27.203 -15.196  -3.206  0.00  0.00     0.034 C 
ENDBRANCH  11  12
ENDBRANCH  10  11
ENDBRANCH   8  10
ENDBRANCH   5   6
ENDBRANCH   4   5
ENDBRANCH   2   4
ENDBRANCH   1   2
BRANCH   1  18
ATOM     18  N   UNL d   1      27.988 -15.101   2.147  0.00  0.00    -0.199 NA
ATOM     19  H   UNL d   1      28.960 -15.364   2.328  0.00  0.00     0.141 HD
BRANCH  18  20
ATOM     20  S   UNL d   1      27.611 -14.945   0.484  0.00  0.00     0.242 S 
ATOM     21  O   UNL d   1      26.972 -13.668   0.306  0.00  0.00    -0.206 OA
ATOM     22  O   UNL d   1      28.762 -15.306  -0.316  0.00  0.00    -0.206 OA
BRANCH  20  23
ATOM     23  C   UNL d   1      26.428 -16.212   0.140  0.00  0.00     0.076 A 
ATOM     24  C   UNL d   1      26.767 -17.557   0.226  0.00  0.00     0.026 A 
ATOM     25  C   UNL d   1      25.773 -18.511  -0.003  0.00  0.00     0.027 A 
ATOM     26  C   UNL d   1      24.462 -18.122  -0.325  0.00  0.00     0.055 A 
ATOM     27 CL   UNL d   1      23.279 -19.363  -0.533  0.00  0.00    -0.083 Cl
ATOM     28  C   UNL d   1      24.145 -16.768  -0.453  0.00  0.00     0.057 A 
ATOM     29 CL   UNL d   1      22.570 -16.207  -0.890  0.00  0.00    -0.083 Cl
ATOM     30  C   UNL d   1      25.130 -15.813  -0.220  0.00  0.00     0.050 A 
ENDBRANCH  20  23
ENDBRANCH  18  20
ENDBRANCH   1  18
BRANCH   1  31
ATOM     31  C   UNL d   1      27.755 -14.203   4.492  0.00  0.00     0.142 C 
ATOM     32  C   UNL d   1      28.656 -13.199   5.213  0.00  0.00     0.041 C 
BRANCH  31  33
ATOM     33  O   UNL d   1      28.211 -15.543   4.716  0.00  0.00    -0.394 OA
ATOM     34  H   UNL d   1      28.782 -15.821   3.976  0.00  0.00     0.210 HD
ENDBRANCH  31  33
ENDBRANCH   1  31
TORSDOF 12
ENDMDL
MODEL 9
REMARK VINA RESULT:    -5.372      2.283      3.817
REMARK INTER + INTRA:         -15.971
REMARK INTER:                  -8.951
REMARK INTRA:                  -7.020
REMARK CONF_INDEPENDENT:        3.580
REMARK UNBOUND:                -7.020
REMARK  12 active torsions:
REMARK  status: ('A' for Active; 'I' for Inactive)
REMARK    1  A    between atoms: C_2  and  O_3 
REMARK    2  A    between atoms: C_4  and  C_2 
REMARK    3  A    between atoms: C_4  and  C_17 
REMARK    4  A    between atoms: C_4  and  N_5 
REMARK    5  A    between atoms: N_5  and  S_6 
REMARK    6  A    between atoms: S_6  and  C_9 
REMARK    7  A    between atoms: C_17  and  O_19 
REMARK    8  A    between atoms: O_19  and  C_20 
REMARK    9  A    between atoms: C_20  and  C_21 
REMARK       I    between atoms: C_21  and  N_23 
REMARK   10  A    between atoms: N_23  and  C_24 
REMARK   11  A    between atoms: C_24  and  C_25 
REMARK   12  A    between atoms: C_25  and  C_26 
ROOT
ATOM      1  C   UNL d   1      26.804 -11.993  -3.919  0.00  0.00     0.199 C 
ENDROOT
BRANCH   1   2
ATOM      2  C   UNL d   1      27.562 -11.013  -3.020  0.00  0.00     0.280 C 
ATOM      3  O   UNL d   1      28.717 -10.658  -3.233  0.00  0.00    -0.263 OA
BRANCH   2   4
ATOM      4  O   UNL d   1      26.864 -10.623  -1.927  0.00  0.00    -0.311 OA
BRANCH   4   5
ATOM      5  C   UNL d   1      27.431 -11.133  -0.708  0.00  0.00     0.281 C 
BRANCH   5   6
ATOM      6  C   UNL d   1      27.804 -12.601  -0.867  0.00  0.00     0.241 C 
ATOM      7  O   UNL d   1      27.066 -13.511  -0.495  0.00  0.00    -0.271 OA
ATOM      8  N   UNL d   1      29.027 -12.839  -1.472  0.00  0.00    -0.359 N 
ATOM      9  H   UNL d   1      29.602 -12.078  -1.815  0.00  0.00     0.162 HD
BRANCH   8  10
ATOM     10  C   UNL d   1      29.466 -14.209  -1.648  0.00  0.00     0.127 C 
BRANCH  10  11
ATOM     11  C   UNL d   1      30.471 -14.404  -2.787  0.00  0.00     0.053 C 
BRANCH  11  12
ATOM     12  C   UNL d   1      29.785 -14.215  -4.119  0.00  0.00    -0.082 C 
ATOM     13  C   UNL d   1      29.080 -15.225  -4.660  0.00  0.00    -0.024 C 
ATOM     14  C   UNL d   1      28.525 -15.200  -6.050  0.00  0.00     0.027 C 
ATOM     15  C   UNL d   1      29.113 -14.071  -6.895  0.00  0.00     0.004 C 
ATOM     16  C   UNL d   1      29.145 -12.765  -6.111  0.00  0.00     0.005 C 
ATOM     17  C   UNL d   1      29.999 -12.906  -4.844  0.00  0.00     0.034 C 
ENDBRANCH  11  12
ENDBRANCH  10  11
ENDBRANCH   8  10
ENDBRANCH   5   6
ENDBRANCH   4   5
ENDBRANCH   2   4
ENDBRANCH   1   2
BRANCH   1  18
ATOM     18  N   UNL d   1      25.644 -12.615  -3.139  0.00  0.00    -0.199 NA
ATOM     19  H   UNL d   1      25.872 -12.673  -2.142  0.00  0.00     0.141 HD
BRANCH  18  20
ATOM     20  S   UNL d   1      25.076 -14.085  -3.806  0.00  0.00     0.242 S 
ATOM     21  O   UNL d   1      23.644 -13.988  -3.903  0.00  0.00    -0.206 OA
ATOM     22  O   UNL d   1      25.867 -14.436  -4.967  0.00  0.00    -0.206 OA
BRANCH  20  23
ATOM     23  C   UNL d   1      25.469 -15.334  -2.619  0.00  0.00     0.076 A 
ATOM     24  C   UNL d   1      26.787 -15.698  -2.367  0.00  0.00     0.026 A 
ATOM     25  C   UNL d   1      27.037 -16.652  -1.377  0.00  0.00     0.027 A 
ATOM     26  C   UNL d   1      25.981 -17.238  -0.659  0.00  0.00     0.055 A 
ATOM     27 CL   UNL d   1      26.379 -18.363   0.589  0.00  0.00    -0.083 Cl
ATOM     28  C   UNL d   1      24.659 -16.897  -0.953  0.00  0.00     0.057 A 
ATOM     29 CL   UNL d   1      23.303 -17.604  -0.151  0.00  0.00    -0.083 Cl
ATOM     30  C   UNL d   1      24.405 -15.943  -1.935  0.00  0.00     0.050 A 
ENDBRANCH  20  23
ENDBRANCH  18  20
ENDBRANCH   1  18
BRANCH   1  31
ATOM     31  C   UNL d   1      26.256 -11.224  -5.151  0.00  0.00     0.142 C 
ATOM     32  C   UNL d   1      25.882  -9.779  -4.819  0.00  0.00     0.041 C 
BRANCH  31  33
ATOM     33  O   UNL d   1      25.156 -11.901  -5.770  0.00  0.00    -0.394 OA
ATOM     34  H   UNL d   1      24.763 -12.531  -5.137  0.00  0.00     0.210 HD
ENDBRANCH  31  33
ENDBRANCH   1  31
TORSDOF 12
ENDMDL
