MODEL 1
REMARK VINA RESULT:    -7.827      0.000      0.000
REMARK INTER + INTRA:         -10.311
REMARK INTER:                  -9.318
REMARK INTRA:                  -0.992
REMARK CONF_INDEPENDENT:        1.492
REMARK UNBOUND:                -0.992
REMARK  5 active torsions:
REMARK  status: ('A' for Active; 'I' for Inactive)
REMARK       I    between atoms: C_2  and  N_4 
REMARK    1  A    between atoms: N_4  and  C_5 
REMARK    2  A    between atoms: C_11  and  N_12 
REMARK    3  A    between atoms: N_12  and  C_13 
REMARK    4  A    between atoms: C_13  and  C_14 
REMARK       I    between atoms: C_14  and  N_16 
REMARK       I    between atoms: N_16  and  C_17 
REMARK       I    between atoms: C_17  and  N_19 
REMARK    5  A    between atoms: N_19  and  C_20 
ROOT
ATOM      1  N   UNL d   1      26.234 -16.703  -0.435  0.00  0.00    -0.379 N 
ATOM      2  H   UNL d   1      25.878 -15.874   0.048  0.00  0.00     0.160 HD
ENDROOT
BRANCH   1   3
ATOM      3  C   UNL d   1      27.412 -16.592  -1.172  0.00  0.00     0.056 A 
ATOM      4  C   UNL d   1      28.520 -17.411  -0.809  0.00  0.00     0.038 A 
ATOM      5  C   UNL d   1      29.753 -17.376  -1.504  0.00  0.00    -0.060 A 
ATOM      6  C   UNL d   1      29.889 -16.508  -2.582  0.00  0.00     0.009 A 
ATOM      7  C   UNL d   1      30.915 -18.257  -1.127  0.00  0.00     0.048 C 
ATOM      8  C   UNL d   1      28.817 -15.720  -2.979  0.00  0.00     0.032 A 
ATOM      9  C   UNL d   1      27.589 -15.756  -2.306  0.00  0.00     0.061 A 
BRANCH   9  10
ATOM     10  N   UNL d   1      26.574 -14.900  -2.798  0.00  0.00    -0.326 N 
ATOM     11  C   UNL d   1      26.155 -14.914  -4.116  0.00  0.00     0.218 C 
ATOM     12  C   UNL d   1      24.930 -14.071  -4.371  0.00  0.00     0.117 C 
ATOM     13  O   UNL d   1      26.657 -15.575  -5.020  0.00  0.00    -0.274 OA
ATOM     14  H   UNL d   1      26.012 -14.421  -2.121  0.00  0.00     0.169 HD
ENDBRANCH   9  10
ENDBRANCH   1   3
BRANCH   1  15
ATOM     15  C   UNL d   1      25.447 -17.924  -0.219  0.00  0.00     0.223 C 
BRANCH  15  16
ATOM     16  C   UNL d   1      23.961 -17.749  -0.545  0.00  0.00     0.243 C 
ATOM     17  O   UNL d   1      23.616 -16.825  -1.285  0.00  0.00    -0.271 OA
ATOM     18  N   UNL d   1      23.096 -18.696   0.009  0.00  0.00    -0.278 N 
ATOM     19  C   UNL d   1      21.737 -18.649  -0.234  0.00  0.00     0.323 C 
ATOM     20  H   UNL d   1      23.459 -19.427   0.605  0.00  0.00     0.173 HD
ATOM     21  O   UNL d   1      21.186 -17.769  -0.895  0.00  0.00    -0.247 OA
ATOM     22  N   UNL d   1      20.994 -19.681   0.301  0.00  0.00    -0.338 N 
ATOM     23  H   UNL d   1      21.397 -20.316   0.978  0.00  0.00     0.164 HD
BRANCH  22  24
ATOM     24  C   UNL d   1      19.548 -19.721   0.206  0.00  0.00     0.086 A 
ATOM     25  C   UNL d   1      18.586 -20.861   0.451  0.00  0.00     0.027 A 
ATOM     26  C   UNL d   1      18.838 -19.870   1.536  0.00  0.00     0.027 A 
ENDBRANCH  22  24
ENDBRANCH  15  16
ENDBRANCH   1  15
TORSDOF 5
ENDMDL
MODEL 2
REMARK VINA RESULT:    -7.704      1.705      2.037
REMARK INTER + INTRA:         -10.917
REMARK INTER:                  -9.195
REMARK INTRA:                  -1.722
REMARK CONF_INDEPENDENT:        1.492
REMARK UNBOUND:                -1.722
REMARK  5 active torsions:
REMARK  status: ('A' for Active; 'I' for Inactive)
REMARK       I    between atoms: C_2  and  N_4 
REMARK    1  A    between atoms: N_4  and  C_5 
REMARK    2  A    between atoms: C_11  and  N_12 
REMARK    3  A    between atoms: N_12  and  C_13 
REMARK    4  A    between atoms: C_13  and  C_14 
REMARK       I    between atoms: C_14  and  N_16 
REMARK       I    between atoms: N_16  and  C_17 
REMARK       I    between atoms: C_17  and  N_19 
REMARK    5  A    between atoms: N_19  and  C_20 
ROOT
ATOM      1  N   UNL d   1      25.428 -16.770  -1.247  0.00  0.00    -0.379 N 
ATOM      2  H   UNL d   1      25.024 -16.665  -2.182  0.00  0.00     0.160 HD
ENDROOT
BRANCH   1   3
ATOM      3  C   UNL d   1      26.511 -15.966  -0.894  0.00  0.00     0.056 A 
ATOM      4  C   UNL d   1      26.781 -15.760   0.490  0.00  0.00     0.038 A 
ATOM      5  C   UNL d   1      27.864 -14.970   0.946  0.00  0.00    -0.060 A 
ATOM      6  C   UNL d   1      28.696 -14.371   0.006  0.00  0.00     0.009 A 
ATOM      7  C   UNL d   1      28.155 -14.770   2.410  0.00  0.00     0.048 C 
ATOM      8  C   UNL d   1      28.477 -14.578  -1.349  0.00  0.00     0.032 A 
ATOM      9  C   UNL d   1      27.416 -15.369  -1.809  0.00  0.00     0.061 A 
BRANCH   9  10
ATOM     10  N   UNL d   1      27.289 -15.499  -3.214  0.00  0.00    -0.326 N 
ATOM     11  C   UNL d   1      26.127 -15.183  -3.894  0.00  0.00     0.218 C 
ATOM     12  C   UNL d   1      26.280 -15.200  -5.395  0.00  0.00     0.117 C 
ATOM     13  O   UNL d   1      25.061 -14.858  -3.379  0.00  0.00    -0.274 OA
ATOM     14  H   UNL d   1      28.132 -15.628  -3.739  0.00  0.00     0.169 HD
ENDBRANCH   9  10
ENDBRANCH   1   3
BRANCH   1  15
ATOM     15  C   UNL d   1      24.742 -17.743  -0.388  0.00  0.00     0.223 C 
BRANCH  15  16
ATOM     16  C   UNL d   1      23.227 -17.781  -0.611  0.00  0.00     0.243 C 
ATOM     17  O   UNL d   1      22.697 -16.884  -1.270  0.00  0.00    -0.271 OA
ATOM     18  N   UNL d   1      22.554 -18.877  -0.064  0.00  0.00    -0.278 N 
ATOM     19  C   UNL d   1      21.190 -19.027  -0.221  0.00  0.00     0.323 C 
ATOM     20  H   UNL d   1      23.063 -19.573   0.462  0.00  0.00     0.173 HD
ATOM     21  O   UNL d   1      20.468 -18.208  -0.792  0.00  0.00    -0.247 OA
ATOM     22  N   UNL d   1      20.649 -20.186   0.293  0.00  0.00    -0.338 N 
ATOM     23  H   UNL d   1      21.189 -20.786   0.904  0.00  0.00     0.164 HD
BRANCH  22  24
ATOM     24  C   UNL d   1      19.222 -20.443   0.285  0.00  0.00     0.086 A 
ATOM     25  C   UNL d   1      18.421 -21.520   0.980  0.00  0.00     0.027 A 
ATOM     26  C   UNL d   1      18.530 -20.170   1.604  0.00  0.00     0.027 A 
ENDBRANCH  22  24
ENDBRANCH  15  16
ENDBRANCH   1  15
TORSDOF 5
ENDMDL
MODEL 3
REMARK VINA RESULT:    -7.304      3.960      6.754
REMARK INTER + INTRA:         -10.316
REMARK INTER:                  -8.795
REMARK INTRA:                  -1.521
REMARK CONF_INDEPENDENT:        1.492
REMARK UNBOUND:                -1.521
REMARK  5 active torsions:
REMARK  status: ('A' for Active; 'I' for Inactive)
REMARK       I    between atoms: C_2  and  N_4 
REMARK    1  A    between atoms: N_4  and  C_5 
REMARK    2  A    between atoms: C_11  and  N_12 
REMARK    3  A    between atoms: N_12  and  C_13 
REMARK    4  A    between atoms: C_13  and  C_14 
REMARK       I    between atoms: C_14  and  N_16 
REMARK       I    between atoms: N_16  and  C_17 
REMARK       I    between atoms: C_17  and  N_19 
REMARK    5  A    between atoms: N_19  and  C_20 
ROOT
ATOM      1  N   UNL d   1      27.509 -16.715  -0.796  0.00  0.00    -0.379 N 
ATOM      2  H   UNL d   1      28.042 -17.588  -0.769  0.00  0.00     0.160 HD
ENDROOT
BRANCH   1   3
ATOM      3  C   UNL d   1      26.128 -16.781  -0.970  0.00  0.00     0.056 A 
ATOM      4  C   UNL d   1      25.441 -17.946  -0.519  0.00  0.00     0.038 A 
ATOM      5  C   UNL d   1      24.040 -18.100  -0.642  0.00  0.00    -0.060 A 
ATOM      6  C   UNL d   1      23.303 -17.076  -1.229  0.00  0.00     0.009 A 
ATOM      7  C   UNL d   1      23.317 -19.325  -0.147  0.00  0.00     0.048 C 
ATOM      8  C   UNL d   1      23.940 -15.916  -1.651  0.00  0.00     0.032 A 
ATOM      9  C   UNL d   1      25.325 -15.749  -1.521  0.00  0.00     0.061 A 
BRANCH   9  10
ATOM     10  N   UNL d   1      25.860 -14.527  -1.996  0.00  0.00    -0.326 N 
ATOM     11  C   UNL d   1      25.580 -14.025  -3.254  0.00  0.00     0.218 C 
ATOM     12  C   UNL d   1      26.087 -12.620  -3.472  0.00  0.00     0.117 C 
ATOM     13  O   UNL d   1      24.938 -14.599  -4.128  0.00  0.00    -0.274 OA
ATOM     14  H   UNL d   1      26.285 -13.920  -1.321  0.00  0.00     0.169 HD
ENDBRANCH   9  10
ENDBRANCH   1   3
BRANCH   1  15
ATOM     15  C   UNL d   1      28.309 -15.502  -0.586  0.00  0.00     0.223 C 
BRANCH  15  16
ATOM     16  C   UNL d   1      27.824 -14.656   0.596  0.00  0.00     0.243 C 
ATOM     17  O   UNL d   1      27.104 -13.680   0.376  0.00  0.00    -0.271 OA
ATOM     18  N   UNL d   1      28.217 -15.092   1.864  0.00  0.00    -0.278 N 
ATOM     19  C   UNL d   1      27.820 -14.419   3.004  0.00  0.00     0.323 C 
ATOM     20  H   UNL d   1      28.807 -15.906   1.959  0.00  0.00     0.173 HD
ATOM     21  O   UNL d   1      27.152 -13.385   2.995  0.00  0.00    -0.247 OA
ATOM     22  N   UNL d   1      28.204 -14.986   4.200  0.00  0.00    -0.338 N 
ATOM     23  H   UNL d   1      28.885 -15.734   4.228  0.00  0.00     0.164 HD
BRANCH  22  24
ATOM     24  C   UNL d   1      27.939 -14.350   5.476  0.00  0.00     0.086 A 
ATOM     25  C   UNL d   1      28.892 -13.928   6.571  0.00  0.00     0.027 A 
ATOM     26  C   UNL d   1      28.429 -12.920   5.575  0.00  0.00     0.027 A 
ENDBRANCH  22  24
ENDBRANCH  15  16
ENDBRANCH   1  15
TORSDOF 5
ENDMDL
MODEL 4
REMARK VINA RESULT:    -7.299      2.549      4.031
REMARK INTER + INTRA:          -9.596
REMARK INTER:                  -8.791
REMARK INTRA:                  -0.805
REMARK CONF_INDEPENDENT:        1.492
REMARK UNBOUND:                -0.805
REMARK  5 active torsions:
REMARK  status: ('A' for Active; 'I' for Inactive)
REMARK       I    between atoms: C_2  and  N_4 
REMARK    1  A    between atoms: N_4  and  C_5 
REMARK    2  A    between atoms: C_11  and  N_12 
REMARK    3  A    between atoms: N_12  and  C_13 
REMARK    4  A    between atoms: C_13  and  C_14 
REMARK       I    between atoms: C_14  and  N_16 
REMARK       I    between atoms: N_16  and  C_17 
REMARK       I    between atoms: C_17  and  N_19 
REMARK    5  A    between atoms: N_19  and  C_20 
ROOT
ATOM      1  N   UNL d   1      26.101 -16.729   0.429  0.00  0.00    -0.379 N 
ATOM      2  H   UNL d   1      26.215 -16.811   1.442  0.00  0.00     0.160 HD
ENDROOT
BRANCH   1   3
ATOM      3  C   UNL d   1      26.482 -15.540  -0.191  0.00  0.00     0.056 A 
ATOM      4  C   UNL d   1      25.921 -15.228  -1.464  0.00  0.00     0.038 A 
ATOM      5  C   UNL d   1      26.238 -14.040  -2.166  0.00  0.00    -0.060 A 
ATOM      6  C   UNL d   1      27.134 -13.144  -1.593  0.00  0.00     0.009 A 
ATOM      7  C   UNL d   1      25.628 -13.707  -3.502  0.00  0.00     0.048 C 
ATOM      8  C   UNL d   1      27.674 -13.405  -0.340  0.00  0.00     0.032 A 
ATOM      9  C   UNL d   1      27.355 -14.572   0.368  0.00  0.00     0.061 A 
BRANCH   9  10
ATOM     10  N   UNL d   1      27.976 -14.732   1.631  0.00  0.00    -0.326 N 
ATOM     11  C   UNL d   1      27.567 -14.044   2.759  0.00  0.00     0.218 C 
ATOM     12  C   UNL d   1      28.229 -14.518   4.030  0.00  0.00     0.117 C 
ATOM     13  O   UNL d   1      26.712 -13.164   2.791  0.00  0.00    -0.274 OA
ATOM     14  H   UNL d   1      28.590 -15.515   1.743  0.00  0.00     0.169 HD
ENDBRANCH   9  10
ENDBRANCH   1   3
BRANCH   1  15
ATOM     15  C   UNL d   1      25.587 -17.936  -0.231  0.00  0.00     0.223 C 
BRANCH  15  16
ATOM     16  C   UNL d   1      24.122 -17.810  -0.661  0.00  0.00     0.243 C 
ATOM     17  O   UNL d   1      23.837 -17.067  -1.602  0.00  0.00    -0.271 OA
ATOM     18  N   UNL d   1      23.207 -18.597   0.044  0.00  0.00    -0.278 N 
ATOM     19  C   UNL d   1      21.862 -18.581  -0.272  0.00  0.00     0.323 C 
ATOM     20  H   UNL d   1      23.522 -19.184   0.803  0.00  0.00     0.173 HD
ATOM     21  O   UNL d   1      21.366 -17.859  -1.137  0.00  0.00    -0.247 OA
ATOM     22  N   UNL d   1      21.067 -19.456   0.438  0.00  0.00    -0.338 N 
ATOM     23  H   UNL d   1      21.421 -19.933   1.258  0.00  0.00     0.164 HD
BRANCH  22  24
ATOM     24  C   UNL d   1      19.626 -19.490   0.283  0.00  0.00     0.086 A 
ATOM     25  C   UNL d   1      18.725 -20.599  -0.211  0.00  0.00     0.027 A 
ATOM     26  C   UNL d   1      18.914 -20.408   1.256  0.00  0.00     0.027 A 
ENDBRANCH  22  24
ENDBRANCH  15  16
ENDBRANCH   1  15
TORSDOF 5
ENDMDL
MODEL 5
REMARK VINA RESULT:    -7.289      1.614      3.519
REMARK INTER + INTRA:         -10.153
REMARK INTER:                  -8.781
REMARK INTRA:                  -1.373
REMARK CONF_INDEPENDENT:        1.492
REMARK UNBOUND:                -1.373
REMARK  5 active torsions:
REMARK  status: ('A' for Active; 'I' for Inactive)
REMARK       I    between atoms: C_2  and  N_4 
REMARK    1  A    between atoms: N_4  and  C_5 
REMARK    2  A    between atoms: C_11  and  N_12 
REMARK    3  A    between atoms: N_12  and  C_13 
REMARK    4  A    between atoms: C_13  and  C_14 
REMARK       I    between atoms: C_14  and  N_16 
REMARK       I    between atoms: N_16  and  C_17 
REMARK       I    between atoms: C_17  and  N_19 
REMARK    5  A    between atoms: N_19  and  C_20 
ROOT
ATOM      1  N   UNL d   1      25.872 -16.564  -0.558  0.00  0.00    -0.379 N 
ATOM      2  H   UNL d   1      26.177 -16.207   0.351  0.00  0.00     0.160 HD
ENDROOT
BRANCH   1   3
ATOM      3  C   UNL d   1      26.162 -15.819  -1.700  0.00  0.00     0.056 A 
ATOM      4  C   UNL d   1      25.088 -15.174  -2.380  0.00  0.00     0.038 A 
ATOM      5  C   UNL d   1      25.285 -14.387  -3.540  0.00  0.00    -0.060 A 
ATOM      6  C   UNL d   1      26.575 -14.240  -4.038  0.00  0.00     0.009 A 
ATOM      7  C   UNL d   1      24.149 -13.693  -4.245  0.00  0.00     0.048 C 
ATOM      8  C   UNL d   1      27.645 -14.831  -3.380  0.00  0.00     0.032 A 
ATOM      9  C   UNL d   1      27.462 -15.600  -2.223  0.00  0.00     0.061 A 
BRANCH   9  10
ATOM     10  N   UNL d   1      28.629 -16.159  -1.646  0.00  0.00    -0.326 N 
ATOM     11  C   UNL d   1      28.895 -16.105  -0.290  0.00  0.00     0.218 C 
ATOM     12  C   UNL d   1      30.081 -16.938   0.128  0.00  0.00     0.117 C 
ATOM     13  O   UNL d   1      28.231 -15.500   0.546  0.00  0.00    -0.274 OA
ATOM     14  H   UNL d   1      29.165 -16.785  -2.215  0.00  0.00     0.169 HD
ENDBRANCH   9  10
ENDBRANCH   1   3
BRANCH   1  15
ATOM     15  C   UNL d   1      25.204 -17.871  -0.510  0.00  0.00     0.223 C 
BRANCH  15  16
ATOM     16  C   UNL d   1      23.688 -17.781  -0.711  0.00  0.00     0.243 C 
ATOM     17  O   UNL d   1      23.220 -16.802  -1.296  0.00  0.00    -0.271 OA
ATOM     18  N   UNL d   1      22.941 -18.861  -0.233  0.00  0.00    -0.278 N 
ATOM     19  C   UNL d   1      21.568 -18.898  -0.378  0.00  0.00     0.323 C 
ATOM     20  H   UNL d   1      23.402 -19.629   0.234  0.00  0.00     0.173 HD
ATOM     21  O   UNL d   1      20.904 -17.989  -0.878  0.00  0.00    -0.247 OA
ATOM     22  N   UNL d   1      20.947 -20.048   0.062  0.00  0.00    -0.338 N 
ATOM     23  H   UNL d   1      21.448 -20.729   0.619  0.00  0.00     0.164 HD
BRANCH  22  24
ATOM     24  C   UNL d   1      19.505 -20.197   0.058  0.00  0.00     0.086 A 
ATOM     25  C   UNL d   1      18.637 -21.294   0.632  0.00  0.00     0.027 A 
ATOM     26  C   UNL d   1      18.858 -20.046   1.419  0.00  0.00     0.027 A 
ENDBRANCH  22  24
ENDBRANCH  15  16
ENDBRANCH   1  15
TORSDOF 5
ENDMDL
MODEL 6
REMARK VINA RESULT:    -6.893      1.933      7.294
REMARK INTER + INTRA:          -9.975
REMARK INTER:                  -8.385
REMARK INTRA:                  -1.590
REMARK CONF_INDEPENDENT:        1.492
REMARK UNBOUND:                -1.590
REMARK  5 active torsions:
REMARK  status: ('A' for Active; 'I' for Inactive)
REMARK       I    between atoms: C_2  and  N_4 
REMARK    1  A    between atoms: N_4  and  C_5 
REMARK    2  A    between atoms: C_11  and  N_12 
REMARK    3  A    between atoms: N_12  and  C_13 
REMARK    4  A    between atoms: C_13  and  C_14 
REMARK       I    between atoms: C_14  and  N_16 
REMARK       I    between atoms: N_16  and  C_17 
REMARK       I    between atoms: C_17  and  N_19 
REMARK    5  A    between atoms: N_19  and  C_20 
ROOT
ATOM      1  N   UNL d   1      24.531 -16.066  -1.973  0.00  0.00    -0.379 N 
ATOM      2  H   UNL d   1      23.623 -16.484  -2.196  0.00  0.00     0.160 HD
ENDROOT
BRANCH   1   3
ATOM      3  C   UNL d   1      25.406 -16.772  -1.149  0.00  0.00     0.056 A 
ATOM      4  C   UNL d   1      26.805 -16.540  -1.287  0.00  0.00     0.038 A 
ATOM      5  C   UNL d   1      27.770 -17.200  -0.489  0.00  0.00    -0.060 A 
ATOM      6  C   UNL d   1      27.335 -18.113   0.467  0.00  0.00     0.009 A 
ATOM      7  C   UNL d   1      29.246 -16.937  -0.627  0.00  0.00     0.048 C 
ATOM      8  C   UNL d   1      25.977 -18.338   0.646  0.00  0.00     0.032 A 
ATOM      9  C   UNL d   1      25.014 -17.679  -0.130  0.00  0.00     0.061 A 
BRANCH   9  10
ATOM     10  N   UNL d   1      23.661 -17.999   0.139  0.00  0.00    -0.326 N 
ATOM     11  C   UNL d   1      22.799 -18.487  -0.828  0.00  0.00     0.218 C 
ATOM     12  C   UNL d   1      21.473 -18.950  -0.277  0.00  0.00     0.117 C 
ATOM     13  O   UNL d   1      23.057 -18.607  -2.021  0.00  0.00    -0.274 OA
ATOM     14  H   UNL d   1      23.389 -18.062   1.100  0.00  0.00     0.169 HD
ENDBRANCH   9  10
ENDBRANCH   1   3
BRANCH   1  15
ATOM     15  C   UNL d   1      24.788 -14.775  -2.623  0.00  0.00     0.223 C 
BRANCH  15  16
ATOM     16  C   UNL d   1      25.539 -14.908  -3.952  0.00  0.00     0.243 C 
ATOM     17  O   UNL d   1      24.905 -14.831  -5.006  0.00  0.00    -0.271 OA
ATOM     18  N   UNL d   1      26.923 -15.075  -3.860  0.00  0.00    -0.278 N 
ATOM     19  C   UNL d   1      27.705 -15.184  -4.994  0.00  0.00     0.323 C 
ATOM     20  H   UNL d   1      27.368 -15.126  -2.955  0.00  0.00     0.173 HD
ATOM     21  O   UNL d   1      27.257 -15.195  -6.140  0.00  0.00    -0.247 OA
ATOM     22  N   UNL d   1      29.065 -15.267  -4.781  0.00  0.00    -0.338 N 
ATOM     23  H   UNL d   1      29.438 -15.426  -3.853  0.00  0.00     0.164 HD
BRANCH  22  24
ATOM     24  C   UNL d   1      30.005 -15.475  -5.865  0.00  0.00     0.086 A 
ATOM     25  C   UNL d   1      31.369 -16.127  -5.861  0.00  0.00     0.027 A 
ATOM     26  C   UNL d   1      30.177 -16.924  -6.273  0.00  0.00     0.027 A 
ENDBRANCH  22  24
ENDBRANCH  15  16
ENDBRANCH   1  15
TORSDOF 5
ENDMDL
MODEL 7
REMARK VINA RESULT:    -6.779      3.110      7.488
REMARK INTER + INTRA:         -10.878
REMARK INTER:                  -8.270
REMARK INTRA:                  -2.608
REMARK CONF_INDEPENDENT:        1.492
REMARK UNBOUND:                -2.608
REMARK  5 active torsions:
REMARK  status: ('A' for Active; 'I' for Inactive)
REMARK       I    between atoms: C_2  and  N_4 
REMARK    1  A    between atoms: N_4  and  C_5 
REMARK    2  A    between atoms: C_11  and  N_12 
REMARK    3  A    between atoms: N_12  and  C_13 
REMARK    4  A    between atoms: C_13  and  C_14 
REMARK       I    between atoms: C_14  and  N_16 
REMARK       I    between atoms: N_16  and  C_17 
REMARK       I    between atoms: C_17  and  N_19 
REMARK    5  A    between atoms: N_19  and  C_20 
ROOT
ATOM      1  N   UNL d   1      25.759 -14.857  -1.315  0.00  0.00    -0.379 N 
ATOM      2  H   UNL d   1      26.514 -14.384  -0.810  0.00  0.00     0.160 HD
ENDROOT
BRANCH   1   3
ATOM      3  C   UNL d   1      25.373 -16.130  -0.898  0.00  0.00     0.056 A 
ATOM      4  C   UNL d   1      24.012 -16.518  -1.073  0.00  0.00     0.038 A 
ATOM      5  C   UNL d   1      23.529 -17.792  -0.691  0.00  0.00    -0.060 A 
ATOM      6  C   UNL d   1      24.414 -18.700  -0.122  0.00  0.00     0.009 A 
ATOM      7  C   UNL d   1      22.094 -18.203  -0.895  0.00  0.00     0.048 C 
ATOM      8  C   UNL d   1      25.752 -18.363   0.034  0.00  0.00     0.032 A 
ATOM      9  C   UNL d   1      26.243 -17.109  -0.353  0.00  0.00     0.061 A 
BRANCH   9  10
ATOM     10  N   UNL d   1      27.623 -16.878  -0.137  0.00  0.00    -0.326 N 
ATOM     11  C   UNL d   1      28.515 -16.642  -1.168  0.00  0.00     0.218 C 
ATOM     12  C   UNL d   1      29.886 -16.221  -0.698  0.00  0.00     0.117 C 
ATOM     13  O   UNL d   1      28.256 -16.700  -2.366  0.00  0.00    -0.274 OA
ATOM     14  H   UNL d   1      27.912 -16.680   0.801  0.00  0.00     0.169 HD
ENDBRANCH   9  10
ENDBRANCH   1   3
BRANCH   1  15
ATOM     15  C   UNL d   1      25.155 -14.067  -2.395  0.00  0.00     0.223 C 
BRANCH  15  16
ATOM     16  C   UNL d   1      25.697 -14.428  -3.782  0.00  0.00     0.243 C 
ATOM     17  O   UNL d   1      24.978 -14.254  -4.768  0.00  0.00    -0.271 OA
ATOM     18  N   UNL d   1      27.010 -14.906  -3.822  0.00  0.00    -0.278 N 
ATOM     19  C   UNL d   1      27.609 -15.242  -5.020  0.00  0.00     0.323 C 
ATOM     20  H   UNL d   1      27.534 -15.017  -2.966  0.00  0.00     0.173 HD
ATOM     21  O   UNL d   1      27.040 -15.200  -6.111  0.00  0.00    -0.247 OA
ATOM     22  N   UNL d   1      28.931 -15.626  -4.944  0.00  0.00    -0.338 N 
ATOM     23  H   UNL d   1      29.365 -15.825  -4.051  0.00  0.00     0.164 HD
BRANCH  22  24
ATOM     24  C   UNL d   1      29.668 -16.093  -6.102  0.00  0.00     0.086 A 
ATOM     25  C   UNL d   1      31.158 -16.192  -6.335  0.00  0.00     0.027 A 
ATOM     26  C   UNL d   1      30.405 -17.400  -5.889  0.00  0.00     0.027 A 
ENDBRANCH  22  24
ENDBRANCH  15  16
ENDBRANCH   1  15
TORSDOF 5
ENDMDL
MODEL 8
REMARK VINA RESULT:    -6.508      2.534      7.798
REMARK INTER + INTRA:          -9.563
REMARK INTER:                  -7.999
REMARK INTRA:                  -1.564
REMARK CONF_INDEPENDENT:        1.492
REMARK UNBOUND:                -1.564
REMARK  5 active torsions:
REMARK  status: ('A' for Active; 'I' for Inactive)
REMARK       I    between atoms: C_2  and  N_4 
REMARK    1  A    between atoms: N_4  and  C_5 
REMARK    2  A    between atoms: C_11  and  N_12 
REMARK    3  A    between atoms: N_12  and  C_13 
REMARK    4  A    between atoms: C_13  and  C_14 
REMARK       I    between atoms: C_14  and  N_16 
REMARK       I    between atoms: N_16  and  C_17 
REMARK       I    between atoms: C_17  and  N_19 
REMARK    5  A    between atoms: N_19  and  C_20 
ROOT
ATOM      1  N   UNL d   1      24.432 -15.598  -1.994  0.00  0.00    -0.379 N 
ATOM      2  H   UNL d   1      23.450 -15.880  -1.953  0.00  0.00     0.160 HD
ENDROOT
BRANCH   1   3
ATOM      3  C   UNL d   1      25.367 -16.329  -1.262  0.00  0.00     0.056 A 
ATOM      4  C   UNL d   1      26.660 -15.764  -1.056  0.00  0.00     0.038 A 
ATOM      5  C   UNL d   1      27.670 -16.425  -0.318  0.00  0.00    -0.060 A 
ATOM      6  C   UNL d   1      27.393 -17.675   0.226  0.00  0.00     0.009 A 
ATOM      7  C   UNL d   1      29.029 -15.816  -0.088  0.00  0.00     0.048 C 
ATOM      8  C   UNL d   1      26.133 -18.237   0.068  0.00  0.00     0.032 A 
ATOM      9  C   UNL d   1      25.122 -17.585  -0.650  0.00  0.00     0.061 A 
BRANCH   9  10
ATOM     10  N   UNL d   1      23.883 -18.262  -0.750  0.00  0.00    -0.326 N 
ATOM     11  C   UNL d   1      22.667 -17.637  -0.536  0.00  0.00     0.218 C 
ATOM     12  C   UNL d   1      21.476 -18.490  -0.895  0.00  0.00     0.117 C 
ATOM     13  O   UNL d   1      22.514 -16.483  -0.147  0.00  0.00    -0.274 OA
ATOM     14  H   UNL d   1      23.887 -19.163  -1.187  0.00  0.00     0.169 HD
ENDBRANCH   9  10
ENDBRANCH   1   3
BRANCH   1  15
ATOM     15  C   UNL d   1      24.710 -14.467  -2.888  0.00  0.00     0.223 C 
BRANCH  15  16
ATOM     16  C   UNL d   1      25.631 -14.833  -4.056  0.00  0.00     0.243 C 
ATOM     17  O   UNL d   1      25.529 -15.949  -4.569  0.00  0.00    -0.271 OA
ATOM     18  N   UNL d   1      26.510 -13.833  -4.481  0.00  0.00    -0.278 N 
ATOM     19  C   UNL d   1      27.372 -14.045  -5.540  0.00  0.00     0.323 C 
ATOM     20  H   UNL d   1      26.529 -12.941  -4.008  0.00  0.00     0.173 HD
ATOM     21  O   UNL d   1      27.470 -15.113  -6.145  0.00  0.00    -0.247 OA
ATOM     22  N   UNL d   1      28.136 -12.962  -5.918  0.00  0.00    -0.338 N 
ATOM     23  H   UNL d   1      28.192 -12.135  -5.337  0.00  0.00     0.164 HD
BRANCH  22  24
ATOM     24  C   UNL d   1      29.149 -13.054  -6.952  0.00  0.00     0.086 A 
ATOM     25  C   UNL d   1      29.091 -12.662  -8.411  0.00  0.00     0.027 A 
ATOM     26  C   UNL d   1      29.686 -11.718  -7.422  0.00  0.00     0.027 A 
ENDBRANCH  22  24
ENDBRANCH  15  16
ENDBRANCH   1  15
TORSDOF 5
ENDMDL
MODEL 9
REMARK VINA RESULT:    -6.149      3.205      8.224
REMARK INTER + INTRA:          -9.524
REMARK INTER:                  -7.640
REMARK INTRA:                  -1.884
REMARK CONF_INDEPENDENT:        1.492
REMARK UNBOUND:                -1.884
REMARK  5 active torsions:
REMARK  status: ('A' for Active; 'I' for Inactive)
REMARK       I    between atoms: C_2  and  N_4 
REMARK    1  A    between atoms: N_4  and  C_5 
REMARK    2  A    between atoms: C_11  and  N_12 
REMARK    3  A    between atoms: N_12  and  C_13 
REMARK    4  A    between atoms: C_13  and  C_14 
REMARK       I    between atoms: C_14  and  N_16 
REMARK       I    between atoms: N_16  and  C_17 
REMARK       I    between atoms: C_17  and  N_19 
REMARK    5  A    between atoms: N_19  and  C_20 
ROOT
ATOM      1  N   UNL d   1      25.900 -15.466  -1.940  0.00  0.00    -0.379 N 
ATOM      2  H   UNL d   1      26.919 -15.371  -1.937  0.00  0.00     0.160 HD
ENDROOT
BRANCH   1   3
ATOM      3  C   UNL d   1      25.320 -16.461  -1.153  0.00  0.00     0.056 A 
ATOM      4  C   UNL d   1      23.953 -16.795  -1.380  0.00  0.00     0.038 A 
ATOM      5  C   UNL d   1      23.281 -17.797  -0.640  0.00  0.00    -0.060 A 
ATOM      6  C   UNL d   1      23.981 -18.482   0.348  0.00  0.00     0.009 A 
ATOM      7  C   UNL d   1      21.842 -18.158  -0.896  0.00  0.00     0.048 C 
ATOM      8  C   UNL d   1      25.322 -18.200   0.571  0.00  0.00     0.032 A 
ATOM      9  C   UNL d   1      26.000 -17.219  -0.165  0.00  0.00     0.061 A 
BRANCH   9  10
ATOM     10  N   UNL d   1      27.363 -17.016   0.160  0.00  0.00    -0.326 N 
ATOM     11  C   UNL d   1      28.355 -16.911  -0.799  0.00  0.00     0.218 C 
ATOM     12  C   UNL d   1      29.693 -16.493  -0.242  0.00  0.00     0.117 C 
ATOM     13  O   UNL d   1      28.204 -17.075  -2.006  0.00  0.00    -0.274 OA
ATOM     14  H   UNL d   1      27.573 -16.738   1.099  0.00  0.00     0.169 HD
ENDBRANCH   9  10
ENDBRANCH   1   3
BRANCH   1  15
ATOM     15  C   UNL d   1      25.193 -14.473  -2.758  0.00  0.00     0.223 C 
BRANCH  15  16
ATOM     16  C   UNL d   1      26.124 -13.681  -3.682  0.00  0.00     0.243 C 
ATOM     17  O   UNL d   1      27.325 -13.957  -3.700  0.00  0.00    -0.271 OA
ATOM     18  N   UNL d   1      25.514 -12.708  -4.479  0.00  0.00    -0.278 N 
ATOM     19  C   UNL d   1      26.252 -11.948  -5.366  0.00  0.00     0.323 C 
ATOM     20  H   UNL d   1      24.520 -12.545  -4.407  0.00  0.00     0.173 HD
ATOM     21  O   UNL d   1      27.475 -12.026  -5.488  0.00  0.00    -0.247 OA
ATOM     22  N   UNL d   1      25.532 -11.075  -6.153  0.00  0.00    -0.338 N 
ATOM     23  H   UNL d   1      24.559 -10.878  -5.956  0.00  0.00     0.164 HD
BRANCH  22  24
ATOM     24  C   UNL d   1      26.174 -10.149  -7.066  0.00  0.00     0.086 A 
ATOM     25  C   UNL d   1      27.621 -10.045  -7.491  0.00  0.00     0.027 A 
ATOM     26  C   UNL d   1      26.653 -10.777  -8.358  0.00  0.00     0.027 A 
ENDBRANCH  22  24
ENDBRANCH  15  16
ENDBRANCH   1  15
TORSDOF 5
ENDMDL
