MODEL 1
REMARK VINA RESULT:   -10.526      0.000      0.000
REMARK INTER + INTRA:         -13.568
REMARK INTER:                 -12.316
REMARK INTRA:                  -1.252
REMARK CONF_INDEPENDENT:        1.790
REMARK UNBOUND:                -1.252
REMARK  6 active torsions:
REMARK  status: ('A' for Active; 'I' for Inactive)
REMARK    1  A    between atoms: C_3  and  C_22 
REMARK    2  A    between atoms: C_4  and  C_5 
REMARK    3  A    between atoms: N_7  and  C_8 
REMARK    4  A    between atoms: C_8  and  C_9 
REMARK       I    between atoms: C_22  and  N_24 
REMARK    5  A    between atoms: N_24  and  C_25 
REMARK    6  A    between atoms: C_28  and  N_29 
ROOT
ATOM      1  N   UNL d   1      26.857 -18.431   0.358  0.00  0.00    -0.096 N 
ATOM      2  C   UNL d   1      25.834 -17.961  -0.210  0.00  0.00     0.025 C 
ATOM      3  C   UNL d   1      24.600 -17.394  -0.894  0.00  0.00     0.099 C 
ATOM      4  C   UNL d   1      24.688 -16.172  -1.456  0.00  0.00     0.041 C 
ENDROOT
BRANCH   3   5
ATOM      5  C   UNL d   1      23.324 -18.209  -0.874  0.00  0.00     0.265 C 
ATOM      6  O   UNL d   1      23.081 -18.926  -1.855  0.00  0.00    -0.267 OA
ATOM      7  N   UNL d   1      22.429 -18.072   0.198  0.00  0.00    -0.322 N 
ATOM      8  H   UNL d   1      22.524 -17.298   0.842  0.00  0.00     0.169 HD
BRANCH   7   9
ATOM      9  C   UNL d   1      21.187 -18.778   0.258  0.00  0.00     0.035 C 
ATOM     10  C   UNL d   1      20.734 -19.331   1.461  0.00  0.00     0.032 C 
ATOM     11  C   UNL d   1      19.631 -20.193   1.495  0.00  0.00     0.038 C 
ATOM     12  C   UNL d   1      18.909 -20.438   0.325  0.00  0.00     0.103 C 
ATOM     13  C   UNL d   1      19.249 -19.767  -0.858  0.00  0.00     0.038 C 
ATOM     14  C   UNL d   1      20.402 -18.953  -0.893  0.00  0.00     0.032 C 
BRANCH  12  15
ATOM     15  N   UNL d   1      17.827 -21.436   0.336  0.00  0.00    -0.116 N 
ATOM     16  O   UNL d   1      17.911 -22.370   1.143  0.00  0.00    -0.532 OA
ATOM     17  O   UNL d   1      16.900 -21.291  -0.478  0.00  0.00    -0.532 OA
ENDBRANCH  12  15
ENDBRANCH   7   9
ENDBRANCH   3   5
BRANCH   4  18
ATOM     18  C   UNL d   1      25.882 -15.388  -1.489  0.00  0.00    -0.006 A 
ATOM     19  C   UNL d   1      26.567 -15.008  -0.368  0.00  0.00     0.104 A 
ATOM     20  N   UNL d   1      27.734 -14.384  -0.757  0.00  0.00    -0.351 N 
ATOM     21  C   UNL d   1      27.769 -14.305  -2.144  0.00  0.00     0.045 A 
ATOM     22  C   UNL d   1      28.715 -13.776  -3.039  0.00  0.00     0.030 A 
ATOM     23  C   UNL d   1      26.588 -14.890  -2.615  0.00  0.00     0.002 A 
ATOM     24  C   UNL d   1      28.461 -13.878  -4.417  0.00  0.00     0.002 A 
ATOM     25  C   UNL d   1      27.298 -14.458  -4.896  0.00  0.00     0.001 A 
ATOM     26  C   UNL d   1      26.342 -14.920  -4.004  0.00  0.00     0.014 A 
BRANCH  20  27
ATOM     27  C   UNL d   1      28.788 -13.869   0.135  0.00  0.00     0.167 C 
BRANCH  27  28
ATOM     28  C   UNL d   1      28.277 -13.501   1.513  0.00  0.00    -0.038 A 
ATOM     29  C   UNL d   1      27.685 -12.244   1.734  0.00  0.00     0.009 A 
ATOM     30  C   UNL d   1      27.424 -11.796   3.029  0.00  0.00     0.002 A 
ATOM     31  C   UNL d   1      27.782 -12.589   4.117  0.00  0.00     0.024 A 
ATOM     32  C   UNL d   1      28.306 -13.862   3.904  0.00  0.00     0.034 A 
ATOM     33 CL   UNL d   1      28.776 -14.824   5.251  0.00  0.00    -0.084 Cl
ATOM     34  C   UNL d   1      28.505 -14.343   2.609  0.00  0.00     0.032 A 
ENDBRANCH  27  28
ENDBRANCH  20  27
ENDBRANCH   4  18
TORSDOF 6
ENDMDL
MODEL 2
REMARK VINA RESULT:    -9.816      2.756      5.105
REMARK INTER + INTRA:         -13.151
REMARK INTER:                 -11.606
REMARK INTRA:                  -1.545
REMARK CONF_INDEPENDENT:        1.790
REMARK UNBOUND:                -1.545
REMARK  6 active torsions:
REMARK  status: ('A' for Active; 'I' for Inactive)
REMARK    1  A    between atoms: C_3  and  C_22 
REMARK    2  A    between atoms: C_4  and  C_5 
REMARK    3  A    between atoms: N_7  and  C_8 
REMARK    4  A    between atoms: C_8  and  C_9 
REMARK       I    between atoms: C_22  and  N_24 
REMARK    5  A    between atoms: N_24  and  C_25 
REMARK    6  A    between atoms: C_28  and  N_29 
ROOT
ATOM      1  N   UNL d   1      26.861 -17.923  -0.395  0.00  0.00    -0.096 N 
ATOM      2  C   UNL d   1      25.831 -17.344  -0.836  0.00  0.00     0.025 C 
ATOM      3  C   UNL d   1      24.590 -16.645  -1.367  0.00  0.00     0.099 C 
ATOM      4  C   UNL d   1      24.750 -15.673  -2.288  0.00  0.00     0.041 C 
ENDROOT
BRANCH   3   5
ATOM      5  C   UNL d   1      23.241 -17.043  -0.807  0.00  0.00     0.265 C 
ATOM      6  O   UNL d   1      22.613 -16.197  -0.156  0.00  0.00    -0.267 OA
ATOM      7  N   UNL d   1      22.783 -18.360  -0.968  0.00  0.00    -0.322 N 
ATOM      8  H   UNL d   1      23.421 -19.086  -1.267  0.00  0.00     0.169 HD
BRANCH   7   9
ATOM      9  C   UNL d   1      21.539 -18.814  -0.427  0.00  0.00     0.035 C 
ATOM     10  C   UNL d   1      21.366 -18.950   0.954  0.00  0.00     0.032 C 
ATOM     11  C   UNL d   1      20.235 -19.583   1.486  0.00  0.00     0.038 C 
ATOM     12  C   UNL d   1      19.214 -20.004   0.632  0.00  0.00     0.103 C 
ATOM     13  C   UNL d   1      19.295 -19.731  -0.740  0.00  0.00     0.038 C 
ATOM     14  C   UNL d   1      20.469 -19.154  -1.270  0.00  0.00     0.032 C 
BRANCH  12  15
ATOM     15  N   UNL d   1      18.084 -20.775   1.179  0.00  0.00    -0.116 N 
ATOM     16  O   UNL d   1      17.618 -21.688   0.486  0.00  0.00    -0.532 OA
ATOM     17  O   UNL d   1      17.653 -20.450   2.297  0.00  0.00    -0.532 OA
ENDBRANCH  12  15
ENDBRANCH   7   9
ENDBRANCH   3   5
BRANCH   4  18
ATOM     18  C   UNL d   1      26.013 -15.285  -2.832  0.00  0.00    -0.006 A 
ATOM     19  C   UNL d   1      26.311 -15.343  -4.166  0.00  0.00     0.104 A 
ATOM     20  N   UNL d   1      27.551 -14.773  -4.364  0.00  0.00    -0.351 N 
ATOM     21  C   UNL d   1      28.084 -14.403  -3.136  0.00  0.00     0.045 A 
ATOM     22  C   UNL d   1      29.298 -13.791  -2.776  0.00  0.00     0.030 A 
ATOM     23  C   UNL d   1      27.148 -14.763  -2.160  0.00  0.00     0.002 A 
ATOM     24  C   UNL d   1      29.533 -13.521  -1.418  0.00  0.00     0.002 A 
ATOM     25  C   UNL d   1      28.613 -13.869  -0.442  0.00  0.00     0.001 A 
ATOM     26  C   UNL d   1      27.447 -14.528  -0.802  0.00  0.00     0.014 A 
BRANCH  20  27
ATOM     27  C   UNL d   1      28.227 -14.582  -5.660  0.00  0.00     0.167 C 
BRANCH  27  28
ATOM     28  C   UNL d   1      29.428 -15.486  -5.846  0.00  0.00    -0.038 A 
ATOM     29  C   UNL d   1      30.221 -15.376  -7.004  0.00  0.00     0.009 A 
ATOM     30  C   UNL d   1      31.180 -16.343  -7.305  0.00  0.00     0.002 A 
ATOM     31  C   UNL d   1      31.334 -17.445  -6.468  0.00  0.00     0.024 A 
ATOM     32  C   UNL d   1      30.601 -17.525  -5.285  0.00  0.00     0.034 A 
ATOM     33 CL   UNL d   1      30.772 -18.904  -4.271  0.00  0.00    -0.084 Cl
ATOM     34  C   UNL d   1      29.689 -16.526  -4.944  0.00  0.00     0.032 A 
ENDBRANCH  27  28
ENDBRANCH  20  27
ENDBRANCH   4  18
TORSDOF 6
ENDMDL
MODEL 3
REMARK VINA RESULT:    -9.763      2.958      4.854
REMARK INTER + INTRA:         -13.151
REMARK INTER:                 -11.553
REMARK INTRA:                  -1.598
REMARK CONF_INDEPENDENT:        1.790
REMARK UNBOUND:                -1.598
REMARK  6 active torsions:
REMARK  status: ('A' for Active; 'I' for Inactive)
REMARK    1  A    between atoms: C_3  and  C_22 
REMARK    2  A    between atoms: C_4  and  C_5 
REMARK    3  A    between atoms: N_7  and  C_8 
REMARK    4  A    between atoms: C_8  and  C_9 
REMARK       I    between atoms: C_22  and  N_24 
REMARK    5  A    between atoms: N_24  and  C_25 
REMARK    6  A    between atoms: C_28  and  N_29 
ROOT
ATOM      1  N   UNL d   1      24.928 -14.732  -2.930  0.00  0.00    -0.096 N 
ATOM      2  C   UNL d   1      24.687 -15.559  -2.010  0.00  0.00     0.025 C 
ATOM      3  C   UNL d   1      24.396 -16.557  -0.901  0.00  0.00     0.099 C 
ATOM      4  C   UNL d   1      25.424 -16.982  -0.139  0.00  0.00     0.041 C 
ENDROOT
BRANCH   3   5
ATOM      5  C   UNL d   1      22.976 -17.056  -0.732  0.00  0.00     0.265 C 
ATOM      6  O   UNL d   1      22.056 -16.240  -0.874  0.00  0.00    -0.267 OA
ATOM      7  N   UNL d   1      22.749 -18.387  -0.347  0.00  0.00    -0.322 N 
ATOM      8  H   UNL d   1      23.510 -18.947   0.013  0.00  0.00     0.169 HD
BRANCH   7   9
ATOM      9  C   UNL d   1      21.437 -18.911  -0.127  0.00  0.00     0.035 C 
ATOM     10  C   UNL d   1      21.030 -19.314   1.149  0.00  0.00     0.032 C 
ATOM     11  C   UNL d   1      19.832 -20.014   1.344  0.00  0.00     0.038 C 
ATOM     12  C   UNL d   1      18.979 -20.236   0.262  0.00  0.00     0.103 C 
ATOM     13  C   UNL d   1      19.291 -19.699  -0.995  0.00  0.00     0.038 C 
ATOM     14  C   UNL d   1      20.531 -19.055  -1.191  0.00  0.00     0.032 C 
BRANCH  12  15
ATOM     15  N   UNL d   1      17.782 -21.074   0.443  0.00  0.00    -0.116 N 
ATOM     16  O   UNL d   1      17.624 -21.628   1.539  0.00  0.00    -0.532 OA
ATOM     17  O   UNL d   1      17.009 -21.191  -0.522  0.00  0.00    -0.532 OA
ENDBRANCH  12  15
ENDBRANCH   7   9
ENDBRANCH   3   5
BRANCH   4  18
ATOM     18  C   UNL d   1      26.769 -16.522  -0.280  0.00  0.00    -0.006 A 
ATOM     19  C   UNL d   1      27.782 -17.290  -0.783  0.00  0.00     0.104 A 
ATOM     20  N   UNL d   1      28.909 -16.505  -0.907  0.00  0.00    -0.351 N 
ATOM     21  C   UNL d   1      28.636 -15.234  -0.417  0.00  0.00     0.045 A 
ATOM     22  C   UNL d   1      29.419 -14.071  -0.311  0.00  0.00     0.030 A 
ATOM     23  C   UNL d   1      27.308 -15.244   0.024  0.00  0.00     0.002 A 
ATOM     24  C   UNL d   1      28.826 -12.913   0.218  0.00  0.00     0.002 A 
ATOM     25  C   UNL d   1      27.512 -12.909   0.656  0.00  0.00     0.001 A 
ATOM     26  C   UNL d   1      26.768 -14.078   0.605  0.00  0.00     0.014 A 
BRANCH  20  27
ATOM     27  C   UNL d   1      30.209 -16.925  -1.460  0.00  0.00     0.167 C 
BRANCH  27  28
ATOM     28  C   UNL d   1      30.281 -16.810  -2.969  0.00  0.00    -0.038 A 
ATOM     29  C   UNL d   1      29.884 -15.620  -3.606  0.00  0.00     0.009 A 
ATOM     30  C   UNL d   1      29.721 -15.573  -4.991  0.00  0.00     0.002 A 
ATOM     31  C   UNL d   1      29.922 -16.724  -5.748  0.00  0.00     0.024 A 
ATOM     32  C   UNL d   1      30.381 -17.887  -5.132  0.00  0.00     0.034 A 
ATOM     33 CL   UNL d   1      30.597 -19.315  -6.067  0.00  0.00    -0.084 Cl
ATOM     34  C   UNL d   1      30.613 -17.921  -3.756  0.00  0.00     0.032 A 
ENDBRANCH  27  28
ENDBRANCH  20  27
ENDBRANCH   4  18
TORSDOF 6
ENDMDL
MODEL 4
REMARK VINA RESULT:    -9.726      2.713      5.049
REMARK INTER + INTRA:         -13.146
REMARK INTER:                 -11.516
REMARK INTRA:                  -1.629
REMARK CONF_INDEPENDENT:        1.790
REMARK UNBOUND:                -1.629
REMARK  6 active torsions:
REMARK  status: ('A' for Active; 'I' for Inactive)
REMARK    1  A    between atoms: C_3  and  C_22 
REMARK    2  A    between atoms: C_4  and  C_5 
REMARK    3  A    between atoms: N_7  and  C_8 
REMARK    4  A    between atoms: C_8  and  C_9 
REMARK       I    between atoms: C_22  and  N_24 
REMARK    5  A    between atoms: N_24  and  C_25 
REMARK    6  A    between atoms: C_28  and  N_29 
ROOT
ATOM      1  N   UNL d   1      25.271 -14.638  -2.957  0.00  0.00    -0.096 N 
ATOM      2  C   UNL d   1      25.005 -15.479  -2.056  0.00  0.00     0.025 C 
ATOM      3  C   UNL d   1      24.686 -16.494  -0.971  0.00  0.00     0.099 C 
ATOM      4  C   UNL d   1      25.701 -16.967  -0.220  0.00  0.00     0.041 C 
ENDROOT
BRANCH   3   5
ATOM      5  C   UNL d   1      23.252 -16.955  -0.812  0.00  0.00     0.265 C 
ATOM      6  O   UNL d   1      22.353 -16.123  -0.997  0.00  0.00    -0.267 OA
ATOM      7  N   UNL d   1      22.988 -18.267  -0.389  0.00  0.00    -0.322 N 
ATOM      8  H   UNL d   1      23.729 -18.832   0.003  0.00  0.00     0.169 HD
BRANCH   7   9
ATOM      9  C   UNL d   1      21.660 -18.754  -0.177  0.00  0.00     0.035 C 
ATOM     10  C   UNL d   1      21.168 -18.954   1.117  0.00  0.00     0.032 C 
ATOM     11  C   UNL d   1      19.955 -19.619   1.340  0.00  0.00     0.038 C 
ATOM     12  C   UNL d   1      19.172 -20.009   0.252  0.00  0.00     0.103 C 
ATOM     13  C   UNL d   1      19.569 -19.673  -1.050  0.00  0.00     0.038 C 
ATOM     14  C   UNL d   1      20.825 -19.064  -1.262  0.00  0.00     0.032 C 
BRANCH  12  15
ATOM     15  N   UNL d   1      17.959 -20.811   0.482  0.00  0.00    -0.116 N 
ATOM     16  O   UNL d   1      17.652 -21.071   1.653  0.00  0.00    -0.532 OA
ATOM     17  O   UNL d   1      17.325 -21.197  -0.513  0.00  0.00    -0.532 OA
ENDBRANCH  12  15
ENDBRANCH   7   9
ENDBRANCH   3   5
BRANCH   4  18
ATOM     18  C   UNL d   1      27.059 -16.543  -0.351  0.00  0.00    -0.006 A 
ATOM     19  C   UNL d   1      27.907 -17.010  -1.317  0.00  0.00     0.104 A 
ATOM     20  N   UNL d   1      29.088 -16.302  -1.245  0.00  0.00    -0.351 N 
ATOM     21  C   UNL d   1      29.023 -15.413  -0.179  0.00  0.00     0.045 A 
ATOM     22  C   UNL d   1      29.937 -14.471   0.326  0.00  0.00     0.030 A 
ATOM     23  C   UNL d   1      27.771 -15.587   0.420  0.00  0.00     0.002 A 
ATOM     24  C   UNL d   1      29.550 -13.689   1.427  0.00  0.00     0.002 A 
ATOM     25  C   UNL d   1      28.312 -13.850   2.028  0.00  0.00     0.001 A 
ATOM     26  C   UNL d   1      27.443 -14.825   1.561  0.00  0.00     0.014 A 
BRANCH  20  27
ATOM     27  C   UNL d   1      30.251 -16.449  -2.139  0.00  0.00     0.167 C 
BRANCH  27  28
ATOM     28  C   UNL d   1      29.896 -16.325  -3.606  0.00  0.00    -0.038 A 
ATOM     29  C   UNL d   1      30.632 -17.035  -4.573  0.00  0.00     0.009 A 
ATOM     30  C   UNL d   1      30.478 -16.758  -5.931  0.00  0.00     0.002 A 
ATOM     31  C   UNL d   1      29.610 -15.745  -6.334  0.00  0.00     0.024 A 
ATOM     32  C   UNL d   1      28.829 -15.085  -5.388  0.00  0.00     0.034 A 
ATOM     33 CL   UNL d   1      27.783 -13.813  -5.887  0.00  0.00    -0.084 Cl
ATOM     34  C   UNL d   1      28.928 -15.406  -4.033  0.00  0.00     0.032 A 
ENDBRANCH  27  28
ENDBRANCH  20  27
ENDBRANCH   4  18
TORSDOF 6
ENDMDL
MODEL 5
REMARK VINA RESULT:    -9.698      2.513      4.893
REMARK INTER + INTRA:         -12.951
REMARK INTER:                 -11.488
REMARK INTRA:                  -1.463
REMARK CONF_INDEPENDENT:        1.790
REMARK UNBOUND:                -1.463
REMARK  6 active torsions:
REMARK  status: ('A' for Active; 'I' for Inactive)
REMARK    1  A    between atoms: C_3  and  C_22 
REMARK    2  A    between atoms: C_4  and  C_5 
REMARK    3  A    between atoms: N_7  and  C_8 
REMARK    4  A    between atoms: C_8  and  C_9 
REMARK       I    between atoms: C_22  and  N_24 
REMARK    5  A    between atoms: N_24  and  C_25 
REMARK    6  A    between atoms: C_28  and  N_29 
ROOT
ATOM      1  N   UNL d   1      26.776 -18.187   0.347  0.00  0.00    -0.096 N 
ATOM      2  C   UNL d   1      25.786 -17.872  -0.368  0.00  0.00     0.025 C 
ATOM      3  C   UNL d   1      24.593 -17.493  -1.229  0.00  0.00     0.099 C 
ATOM      4  C   UNL d   1      24.708 -16.427  -2.046  0.00  0.00     0.041 C 
ENDROOT
BRANCH   3   5
ATOM      5  C   UNL d   1      23.320 -18.304  -1.098  0.00  0.00     0.265 C 
ATOM      6  O   UNL d   1      23.062 -19.122  -1.991  0.00  0.00    -0.267 OA
ATOM      7  N   UNL d   1      22.444 -18.053  -0.031  0.00  0.00    -0.322 N 
ATOM      8  H   UNL d   1      22.548 -17.214   0.524  0.00  0.00     0.169 HD
BRANCH   7   9
ATOM      9  C   UNL d   1      21.206 -18.750   0.128  0.00  0.00     0.035 C 
ATOM     10  C   UNL d   1      20.859 -19.326   1.355  0.00  0.00     0.032 C 
ATOM     11  C   UNL d   1      19.756 -20.180   1.472  0.00  0.00     0.038 C 
ATOM     12  C   UNL d   1      18.927 -20.394   0.369  0.00  0.00     0.103 C 
ATOM     13  C   UNL d   1      19.164 -19.700  -0.826  0.00  0.00     0.038 C 
ATOM     14  C   UNL d   1      20.317 -18.894  -0.950  0.00  0.00     0.032 C 
BRANCH  12  15
ATOM     15  N   UNL d   1      17.841 -21.383   0.459  0.00  0.00    -0.116 N 
ATOM     16  O   UNL d   1      16.905 -21.289  -0.345  0.00  0.00    -0.532 OA
ATOM     17  O   UNL d   1      17.919 -22.245   1.349  0.00  0.00    -0.532 OA
ENDBRANCH  12  15
ENDBRANCH   7   9
ENDBRANCH   3   5
BRANCH   4  18
ATOM     18  C   UNL d   1      25.900 -15.651  -2.188  0.00  0.00    -0.006 A 
ATOM     19  C   UNL d   1      26.620 -15.577  -3.348  0.00  0.00     0.104 A 
ATOM     20  N   UNL d   1      27.623 -14.646  -3.184  0.00  0.00    -0.351 N 
ATOM     21  C   UNL d   1      27.589 -14.163  -1.881  0.00  0.00     0.045 A 
ATOM     22  C   UNL d   1      28.374 -13.215  -1.202  0.00  0.00     0.030 A 
ATOM     23  C   UNL d   1      26.540 -14.822  -1.230  0.00  0.00     0.002 A 
ATOM     24  C   UNL d   1      28.059 -12.923   0.136  0.00  0.00     0.002 A 
ATOM     25  C   UNL d   1      27.022 -13.566   0.791  0.00  0.00     0.001 A 
ATOM     26  C   UNL d   1      26.294 -14.544   0.131  0.00  0.00     0.014 A 
BRANCH  20  27
ATOM     27  C   UNL d   1      28.594 -14.218  -4.207  0.00  0.00     0.167 C 
BRANCH  27  28
ATOM     28  C   UNL d   1      27.990 -13.318  -5.265  0.00  0.00    -0.038 A 
ATOM     29  C   UNL d   1      28.526 -13.299  -6.566  0.00  0.00     0.009 A 
ATOM     30  C   UNL d   1      28.142 -12.318  -7.481  0.00  0.00     0.002 A 
ATOM     31  C   UNL d   1      27.242 -11.328  -7.093  0.00  0.00     0.024 A 
ATOM     32  C   UNL d   1      26.657 -11.381  -5.830  0.00  0.00     0.034 A 
ATOM     33 CL   UNL d   1      25.570 -10.137  -5.344  0.00  0.00    -0.084 Cl
ATOM     34  C   UNL d   1      26.985 -12.399  -4.934  0.00  0.00     0.032 A 
ENDBRANCH  27  28
ENDBRANCH  20  27
ENDBRANCH   4  18
TORSDOF 6
ENDMDL
MODEL 6
REMARK VINA RESULT:    -9.667      3.208      5.194
REMARK INTER + INTRA:         -12.857
REMARK INTER:                 -11.457
REMARK INTRA:                  -1.400
REMARK CONF_INDEPENDENT:        1.790
REMARK UNBOUND:                -1.400
REMARK  6 active torsions:
REMARK  status: ('A' for Active; 'I' for Inactive)
REMARK    1  A    between atoms: C_3  and  C_22 
REMARK    2  A    between atoms: C_4  and  C_5 
REMARK    3  A    between atoms: N_7  and  C_8 
REMARK    4  A    between atoms: C_8  and  C_9 
REMARK       I    between atoms: C_22  and  N_24 
REMARK    5  A    between atoms: N_24  and  C_25 
REMARK    6  A    between atoms: C_28  and  N_29 
ROOT
ATOM      1  N   UNL d   1      27.143 -15.507   0.779  0.00  0.00    -0.096 N 
ATOM      2  C   UNL d   1      26.356 -16.081  -0.021  0.00  0.00     0.025 C 
ATOM      3  C   UNL d   1      25.407 -16.774  -0.986  0.00  0.00     0.099 C 
ATOM      4  C   UNL d   1      25.543 -16.525  -2.304  0.00  0.00     0.041 C 
ENDROOT
BRANCH   3   5
ATOM      5  C   UNL d   1      24.331 -17.677  -0.419  0.00  0.00     0.265 C 
ATOM      6  O   UNL d   1      24.679 -18.567   0.368  0.00  0.00    -0.267 OA
ATOM      7  N   UNL d   1      23.004 -17.533  -0.854  0.00  0.00    -0.322 N 
ATOM      8  H   UNL d   1      22.798 -16.985  -1.678  0.00  0.00     0.169 HD
BRANCH   7   9
ATOM      9  C   UNL d   1      21.948 -18.379  -0.393  0.00  0.00     0.035 C 
ATOM     10  C   UNL d   1      21.070 -18.988  -1.296  0.00  0.00     0.032 C 
ATOM     11  C   UNL d   1      19.916 -19.648  -0.856  0.00  0.00     0.038 C 
ATOM     12  C   UNL d   1      19.678 -19.786   0.513  0.00  0.00     0.103 C 
ATOM     13  C   UNL d   1      20.627 -19.325   1.435  0.00  0.00     0.038 C 
ATOM     14  C   UNL d   1      21.752 -18.603   0.980  0.00  0.00     0.032 C 
BRANCH  12  15
ATOM     15  N   UNL d   1      18.408 -20.371   0.972  0.00  0.00    -0.116 N 
ATOM     16  O   UNL d   1      18.166 -20.348   2.185  0.00  0.00    -0.532 OA
ATOM     17  O   UNL d   1      17.661 -20.872   0.115  0.00  0.00    -0.532 OA
ENDBRANCH  12  15
ENDBRANCH   7   9
ENDBRANCH   3   5
BRANCH   4  18
ATOM     18  C   UNL d   1      26.552 -15.681  -2.859  0.00  0.00    -0.006 A 
ATOM     19  C   UNL d   1      27.891 -15.949  -2.779  0.00  0.00     0.104 A 
ATOM     20  N   UNL d   1      28.573 -15.014  -3.528  0.00  0.00    -0.351 N 
ATOM     21  C   UNL d   1      27.668 -14.095  -4.044  0.00  0.00     0.045 A 
ATOM     22  C   UNL d   1      27.831 -12.963  -4.861  0.00  0.00     0.030 A 
ATOM     23  C   UNL d   1      26.400 -14.475  -3.593  0.00  0.00     0.002 A 
ATOM     24  C   UNL d   1      26.686 -12.241  -5.239  0.00  0.00     0.002 A 
ATOM     25  C   UNL d   1      25.424 -12.608  -4.800  0.00  0.00     0.001 A 
ATOM     26  C   UNL d   1      25.282 -13.690  -3.944  0.00  0.00     0.014 A 
BRANCH  20  27
ATOM     27  C   UNL d   1      30.029 -14.971  -3.756  0.00  0.00     0.167 C 
BRANCH  27  28
ATOM     28  C   UNL d   1      30.482 -15.858  -4.897  0.00  0.00    -0.038 A 
ATOM     29  C   UNL d   1      30.778 -15.295  -6.153  0.00  0.00     0.009 A 
ATOM     30  C   UNL d   1      30.968 -16.108  -7.271  0.00  0.00     0.002 A 
ATOM     31  C   UNL d   1      30.832 -17.489  -7.150  0.00  0.00     0.024 A 
ATOM     32  C   UNL d   1      30.605 -18.056  -5.898  0.00  0.00     0.034 A 
ATOM     33 CL   UNL d   1      30.405 -19.760  -5.759  0.00  0.00    -0.084 Cl
ATOM     34  C   UNL d   1      30.483 -17.252  -4.763  0.00  0.00     0.032 A 
ENDBRANCH  27  28
ENDBRANCH  20  27
ENDBRANCH   4  18
TORSDOF 6
ENDMDL
MODEL 7
REMARK VINA RESULT:    -9.582      1.792      2.445
REMARK INTER + INTRA:         -12.742
REMARK INTER:                 -11.372
REMARK INTRA:                  -1.370
REMARK CONF_INDEPENDENT:        1.790
REMARK UNBOUND:                -1.370
REMARK  6 active torsions:
REMARK  status: ('A' for Active; 'I' for Inactive)
REMARK    1  A    between atoms: C_3  and  C_22 
REMARK    2  A    between atoms: C_4  and  C_5 
REMARK    3  A    between atoms: N_7  and  C_8 
REMARK    4  A    between atoms: C_8  and  C_9 
REMARK       I    between atoms: C_22  and  N_24 
REMARK    5  A    between atoms: N_24  and  C_25 
REMARK    6  A    between atoms: C_28  and  N_29 
ROOT
ATOM      1  N   UNL d   1      24.704 -15.057  -2.747  0.00  0.00    -0.096 N 
ATOM      2  C   UNL d   1      24.702 -15.938  -1.845  0.00  0.00     0.025 C 
ATOM      3  C   UNL d   1      24.700 -17.000  -0.757  0.00  0.00     0.099 C 
ATOM      4  C   UNL d   1      25.717 -17.009   0.128  0.00  0.00     0.041 C 
ENDROOT
BRANCH   3   5
ATOM      5  C   UNL d   1      23.581 -18.020  -0.745  0.00  0.00     0.265 C 
ATOM      6  O   UNL d   1      23.575 -18.882  -1.635  0.00  0.00    -0.267 OA
ATOM      7  N   UNL d   1      22.556 -17.916   0.208  0.00  0.00    -0.322 N 
ATOM      8  H   UNL d   1      22.447 -17.066   0.744  0.00  0.00     0.169 HD
BRANCH   7   9
ATOM      9  C   UNL d   1      21.448 -18.819   0.248  0.00  0.00     0.035 C 
ATOM     10  C   UNL d   1      20.802 -19.214  -0.928  0.00  0.00     0.032 C 
ATOM     11  C   UNL d   1      19.597 -19.928  -0.892  0.00  0.00     0.038 C 
ATOM     12  C   UNL d   1      19.075 -20.339   0.336  0.00  0.00     0.103 C 
ATOM     13  C   UNL d   1      19.791 -20.094   1.516  0.00  0.00     0.038 C 
ATOM     14  C   UNL d   1      20.967 -19.316   1.471  0.00  0.00     0.032 C 
BRANCH  12  15
ATOM     15  N   UNL d   1      17.752 -20.983   0.381  0.00  0.00    -0.116 N 
ATOM     16  O   UNL d   1      17.177 -21.200  -0.693  0.00  0.00    -0.532 OA
ATOM     17  O   UNL d   1      17.281 -21.254   1.498  0.00  0.00    -0.532 OA
ENDBRANCH  12  15
ENDBRANCH   7   9
ENDBRANCH   3   5
BRANCH   4  18
ATOM     18  C   UNL d   1      26.780 -16.054   0.137  0.00  0.00    -0.006 A 
ATOM     19  C   UNL d   1      26.642 -14.774   0.597  0.00  0.00     0.104 A 
ATOM     20  N   UNL d   1      27.881 -14.168   0.590  0.00  0.00    -0.351 N 
ATOM     21  C   UNL d   1      28.815 -15.048   0.058  0.00  0.00     0.045 A 
ATOM     22  C   UNL d   1      30.198 -14.936  -0.170  0.00  0.00     0.030 A 
ATOM     23  C   UNL d   1      28.128 -16.220  -0.275  0.00  0.00     0.002 A 
ATOM     24  C   UNL d   1      30.877 -16.041  -0.709  0.00  0.00     0.002 A 
ATOM     25  C   UNL d   1      30.209 -17.208  -1.041  0.00  0.00     0.001 A 
ATOM     26  C   UNL d   1      28.835 -17.285  -0.871  0.00  0.00     0.014 A 
BRANCH  20  27
ATOM     27  C   UNL d   1      28.189 -12.805   1.059  0.00  0.00     0.167 C 
BRANCH  27  28
ATOM     28  C   UNL d   1      27.988 -12.627   2.550  0.00  0.00    -0.038 A 
ATOM     29  C   UNL d   1      27.832 -11.337   3.092  0.00  0.00     0.009 A 
ATOM     30  C   UNL d   1      27.881 -11.133   4.471  0.00  0.00     0.002 A 
ATOM     31  C   UNL d   1      28.118 -12.212   5.320  0.00  0.00     0.024 A 
ATOM     32  C   UNL d   1      28.205 -13.500   4.795  0.00  0.00     0.034 A 
ATOM     33 CL   UNL d   1      28.530 -14.825   5.844  0.00  0.00    -0.084 Cl
ATOM     34  C   UNL d   1      28.088 -13.719   3.422  0.00  0.00     0.032 A 
ENDBRANCH  27  28
ENDBRANCH  20  27
ENDBRANCH   4  18
TORSDOF 6
ENDMDL
MODEL 8
REMARK VINA RESULT:    -9.337      3.069      5.216
REMARK INTER + INTRA:         -12.580
REMARK INTER:                 -11.127
REMARK INTRA:                  -1.454
REMARK CONF_INDEPENDENT:        1.790
REMARK UNBOUND:                -1.454
REMARK  6 active torsions:
REMARK  status: ('A' for Active; 'I' for Inactive)
REMARK    1  A    between atoms: C_3  and  C_22 
REMARK    2  A    between atoms: C_4  and  C_5 
REMARK    3  A    between atoms: N_7  and  C_8 
REMARK    4  A    between atoms: C_8  and  C_9 
REMARK       I    between atoms: C_22  and  N_24 
REMARK    5  A    between atoms: N_24  and  C_25 
REMARK    6  A    between atoms: C_28  and  N_29 
ROOT
ATOM      1  N   UNL d   1      27.484 -17.279  -0.269  0.00  0.00    -0.096 N 
ATOM      2  C   UNL d   1      26.273 -17.123  -0.584  0.00  0.00     0.025 C 
ATOM      3  C   UNL d   1      24.813 -16.935  -0.963  0.00  0.00     0.099 C 
ATOM      4  C   UNL d   1      24.503 -15.963  -1.845  0.00  0.00     0.041 C 
ENDROOT
BRANCH   3   5
ATOM      5  C   UNL d   1      23.775 -17.818  -0.302  0.00  0.00     0.265 C 
ATOM      6  O   UNL d   1      24.133 -18.507   0.662  0.00  0.00    -0.267 OA
ATOM      7  N   UNL d   1      22.481 -17.890  -0.840  0.00  0.00    -0.322 N 
ATOM      8  H   UNL d   1      22.296 -17.528  -1.766  0.00  0.00     0.169 HD
BRANCH   7   9
ATOM      9  C   UNL d   1      21.466 -18.736  -0.293  0.00  0.00     0.035 C 
ATOM     10  C   UNL d   1      20.524 -19.355  -1.121  0.00  0.00     0.032 C 
ATOM     11  C   UNL d   1      19.409 -20.015  -0.588  0.00  0.00     0.038 C 
ATOM     12  C   UNL d   1      19.278 -20.143   0.796  0.00  0.00     0.103 C 
ATOM     13  C   UNL d   1      20.294 -19.672   1.639  0.00  0.00     0.038 C 
ATOM     14  C   UNL d   1      21.377 -18.950   1.093  0.00  0.00     0.032 C 
BRANCH  12  15
ATOM     15  N   UNL d   1      18.050 -20.729   1.356  0.00  0.00    -0.116 N 
ATOM     16  O   UNL d   1      17.472 -21.601   0.695  0.00  0.00    -0.532 OA
ATOM     17  O   UNL d   1      17.655 -20.300   2.453  0.00  0.00    -0.532 OA
ENDBRANCH  12  15
ENDBRANCH   7   9
ENDBRANCH   3   5
BRANCH   4  18
ATOM     18  C   UNL d   1      25.466 -15.122  -2.482  0.00  0.00    -0.006 A 
ATOM     19  C   UNL d   1      25.678 -15.105  -3.833  0.00  0.00     0.104 A 
ATOM     20  N   UNL d   1      26.569 -14.094  -4.125  0.00  0.00    -0.351 N 
ATOM     21  C   UNL d   1      26.985 -13.497  -2.942  0.00  0.00     0.045 A 
ATOM     22  C   UNL d   1      27.870 -12.437  -2.676  0.00  0.00     0.030 A 
ATOM     23  C   UNL d   1      26.335 -14.165  -1.898  0.00  0.00     0.002 A 
ATOM     24  C   UNL d   1      28.061 -12.045  -1.341  0.00  0.00     0.002 A 
ATOM     25  C   UNL d   1      27.422 -12.697  -0.298  0.00  0.00     0.001 A 
ATOM     26  C   UNL d   1      26.600 -13.780  -0.567  0.00  0.00     0.014 A 
BRANCH  20  27
ATOM     27  C   UNL d   1      27.028 -13.696  -5.468  0.00  0.00     0.167 C 
BRANCH  27  28
ATOM     28  C   UNL d   1      28.402 -14.234  -5.814  0.00  0.00    -0.038 A 
ATOM     29  C   UNL d   1      29.064 -15.102  -4.925  0.00  0.00     0.009 A 
ATOM     30  C   UNL d   1      30.410 -15.419  -5.109  0.00  0.00     0.002 A 
ATOM     31  C   UNL d   1      31.115 -14.846  -6.165  0.00  0.00     0.024 A 
ATOM     32  C   UNL d   1      30.449 -14.040  -7.086  0.00  0.00     0.034 A 
ATOM     33 CL   UNL d   1      31.331 -13.308  -8.370  0.00  0.00    -0.084 Cl
ATOM     34  C   UNL d   1      29.086 -13.774  -6.946  0.00  0.00     0.032 A 
ENDBRANCH  27  28
ENDBRANCH  20  27
ENDBRANCH   4  18
TORSDOF 6
ENDMDL
MODEL 9
REMARK VINA RESULT:    -9.119      2.216      2.647
REMARK INTER + INTRA:         -12.393
REMARK INTER:                 -10.909
REMARK INTRA:                  -1.483
REMARK CONF_INDEPENDENT:        1.790
REMARK UNBOUND:                -1.483
REMARK  6 active torsions:
REMARK  status: ('A' for Active; 'I' for Inactive)
REMARK    1  A    between atoms: C_3  and  C_22 
REMARK    2  A    between atoms: C_4  and  C_5 
REMARK    3  A    between atoms: N_7  and  C_8 
REMARK    4  A    between atoms: C_8  and  C_9 
REMARK       I    between atoms: C_22  and  N_24 
REMARK    5  A    between atoms: N_24  and  C_25 
REMARK    6  A    between atoms: C_28  and  N_29 
ROOT
ATOM      1  N   UNL d   1      26.864 -18.232  -0.017  0.00  0.00    -0.096 N 
ATOM      2  C   UNL d   1      25.798 -17.813  -0.545  0.00  0.00     0.025 C 
ATOM      3  C   UNL d   1      24.513 -17.308  -1.181  0.00  0.00     0.099 C 
ATOM      4  C   UNL d   1      24.528 -16.097  -1.774  0.00  0.00     0.041 C 
ENDROOT
BRANCH   3   5
ATOM      5  C   UNL d   1      23.270 -18.168  -1.082  0.00  0.00     0.265 C 
ATOM      6  O   UNL d   1      23.062 -18.988  -1.985  0.00  0.00    -0.267 OA
ATOM      7  N   UNL d   1      22.365 -17.960  -0.030  0.00  0.00    -0.322 N 
ATOM      8  H   UNL d   1      22.425 -17.122   0.533  0.00  0.00     0.169 HD
BRANCH   7   9
ATOM      9  C   UNL d   1      21.151 -18.705   0.099  0.00  0.00     0.035 C 
ATOM     10  C   UNL d   1      20.837 -19.364   1.292  0.00  0.00     0.032 C 
ATOM     11  C   UNL d   1      19.763 -20.259   1.369  0.00  0.00     0.038 C 
ATOM     12  C   UNL d   1      18.929 -20.433   0.262  0.00  0.00     0.103 C 
ATOM     13  C   UNL d   1      19.130 -19.662  -0.890  0.00  0.00     0.038 C 
ATOM     14  C   UNL d   1      20.255 -18.813  -0.977  0.00  0.00     0.032 C 
BRANCH  12  15
ATOM     15  N   UNL d   1      17.877 -21.461   0.303  0.00  0.00    -0.116 N 
ATOM     16  O   UNL d   1      18.025 -22.410   1.084  0.00  0.00    -0.532 OA
ATOM     17  O   UNL d   1      16.908 -21.326  -0.462  0.00  0.00    -0.532 OA
ENDBRANCH  12  15
ENDBRANCH   7   9
ENDBRANCH   3   5
BRANCH   4  18
ATOM     18  C   UNL d   1      25.690 -15.273  -1.883  0.00  0.00    -0.006 A 
ATOM     19  C   UNL d   1      26.268 -14.639  -0.818  0.00  0.00     0.104 A 
ATOM     20  N   UNL d   1      27.437 -14.043  -1.243  0.00  0.00    -0.351 N 
ATOM     21  C   UNL d   1      27.579 -14.241  -2.611  0.00  0.00     0.045 A 
ATOM     22  C   UNL d   1      28.572 -13.851  -3.526  0.00  0.00     0.030 A 
ATOM     23  C   UNL d   1      26.463 -14.972  -3.034  0.00  0.00     0.002 A 
ATOM     24  C   UNL d   1      28.433 -14.240  -4.868  0.00  0.00     0.002 A 
ATOM     25  C   UNL d   1      27.335 -14.966  -5.300  0.00  0.00     0.001 A 
ATOM     26  C   UNL d   1      26.330 -15.292  -4.401  0.00  0.00     0.014 A 
BRANCH  20  27
ATOM     27  C   UNL d   1      28.396 -13.304  -0.403  0.00  0.00     0.167 C 
BRANCH  27  28
ATOM     28  C   UNL d   1      28.144 -11.810  -0.381  0.00  0.00    -0.038 A 
ATOM     29  C   UNL d   1      28.111 -11.117   0.844  0.00  0.00     0.009 A 
ATOM     30  C   UNL d   1      27.653  -9.801   0.906  0.00  0.00     0.002 A 
ATOM     31  C   UNL d   1      27.194  -9.176  -0.251  0.00  0.00     0.024 A 
ATOM     32  C   UNL d   1      27.287  -9.832  -1.477  0.00  0.00     0.034 A 
ATOM     33 CL   UNL d   1      26.688  -9.067  -2.898  0.00  0.00    -0.084 Cl
ATOM     34  C   UNL d   1      27.808 -11.124  -1.556  0.00  0.00     0.032 A 
ENDBRANCH  27  28
ENDBRANCH  20  27
ENDBRANCH   4  18
TORSDOF 6
ENDMDL
