MODEL 1
REMARK VINA RESULT:   -10.294      0.000      0.000
REMARK INTER + INTRA:         -15.658
REMARK INTER:                 -12.979
REMARK INTRA:                  -2.679
REMARK CONF_INDEPENDENT:        2.685
REMARK UNBOUND:                -2.679
REMARK  9 active torsions:
REMARK  status: ('A' for Active; 'I' for Inactive)
REMARK    1  A    between atoms: C_5  and  S_6 
REMARK    2  A    between atoms: S_6  and  N_9 
REMARK    3  A    between atoms: N_9  and  C_10 
REMARK    4  A    between atoms: C_10  and  C_11 
REMARK    5  A    between atoms: C_17  and  C_18 
REMARK    6  A    between atoms: C_18  and  O_20 
REMARK    7  A    between atoms: O_20  and  C_21 
REMARK    8  A    between atoms: C_21  and  C_22 
REMARK       I    between atoms: C_22  and  N_24 
REMARK       I    between atoms: N_24  and  C_25 
REMARK       I    between atoms: C_25  and  N_27 
REMARK    9  A    between atoms: C_28  and  N_27 
ROOT
ATOM      1  C   UNL d   1      26.484 -14.907  -1.741  0.00  0.00     0.294 C 
ATOM      2  O   UNL d   1      27.654 -14.672  -1.951  0.00  0.00    -0.259 OA
ENDROOT
BRANCH   1   3
ATOM      3  C   UNL d   1      25.988 -16.151  -1.014  0.00  0.00     0.046 A 
ATOM      4  C   UNL d   1      24.725 -16.664  -1.402  0.00  0.00     0.042 A 
ATOM      5  C   UNL d   1      24.198 -17.813  -0.793  0.00  0.00     0.075 A 
ATOM      6  C   UNL d   1      24.910 -18.461   0.222  0.00  0.00     0.025 A 
ATOM      7  C   UNL d   1      26.153 -17.963   0.618  0.00  0.00     0.009 A 
ATOM      8  C   UNL d   1      26.707 -16.818   0.008  0.00  0.00    -0.046 A 
ATOM      9  C   UNL d   1      28.063 -16.364   0.482  0.00  0.00     0.049 C 
BRANCH   5  10
ATOM     10  S   UNL d   1      22.636 -18.523  -1.271  0.00  0.00     0.241 S 
ATOM     11  O   UNL d   1      21.665 -17.446  -1.270  0.00  0.00    -0.206 OA
ATOM     12  O   UNL d   1      22.865 -19.326  -2.447  0.00  0.00    -0.206 OA
BRANCH  10  13
ATOM     13  N   UNL d   1      22.168 -19.571  -0.013  0.00  0.00    -0.209 NA
ATOM     14  H   UNL d   1      22.952 -19.780   0.605  0.00  0.00     0.140 HD
BRANCH  13  15
ATOM     15  C   UNL d   1      21.063 -18.976   0.778  0.00  0.00     0.169 C 
BRANCH  15  16
ATOM     16  C   UNL d   1      19.821 -19.805   0.820  0.00  0.00     0.066 A 
ATOM     17  C   UNL d   1      19.190 -20.384   1.905  0.00  0.00     0.036 A 
ATOM     18  C   UNL d   1      18.057 -21.060   1.410  0.00  0.00     0.027 A 
ATOM     19  C   UNL d   1      18.060 -20.857   0.049  0.00  0.00     0.142 A 
ATOM     20  O   UNL d   1      19.134 -20.102  -0.324  0.00  0.00    -0.326 OA
ENDBRANCH  15  16
ENDBRANCH  13  15
ENDBRANCH  10  13
ENDBRANCH   5  10
ENDBRANCH   1   3
BRANCH   1  21
ATOM     21  O   UNL d   1      25.454 -14.113  -2.120  0.00  0.00    -0.308 OA
BRANCH  21  22
ATOM     22  C   UNL d   1      24.715 -14.327  -3.343  0.00  0.00     0.282 C 
BRANCH  22  23
ATOM     23  C   UNL d   1      25.707 -14.956  -4.414  0.00  0.00     0.249 C 
ATOM     24  O   UNL d   1      25.416 -15.977  -5.029  0.00  0.00    -0.271 OA
ATOM     25  N   UNL d   1      26.943 -14.318  -4.562  0.00  0.00    -0.277 N 
ATOM     26  C   UNL d   1      27.800 -14.267  -5.666  0.00  0.00     0.323 C 
ATOM     27  H   UNL d   1      27.094 -13.668  -3.828  0.00  0.00     0.173 HD
ATOM     28  O   UNL d   1      27.921 -15.191  -6.466  0.00  0.00    -0.247 OA
ATOM     29  N   UNL d   1      28.658 -13.182  -5.843  0.00  0.00    -0.338 N 
ATOM     30  H   UNL d   1      29.251 -13.357  -6.648  0.00  0.00     0.164 HD
BRANCH  29  31
ATOM     31  C   UNL d   1      28.782 -11.765  -5.349  0.00  0.00     0.089 C 
ATOM     32  C   UNL d   1      27.688 -11.395  -4.310  0.00  0.00     0.026 C 
ATOM     33  C   UNL d   1      26.288 -11.559  -4.888  0.00  0.00     0.002 C 
ATOM     34  C   UNL d   1      26.145 -10.749  -6.178  0.00  0.00     0.001 C 
ATOM     35  C   UNL d   1      27.293 -11.011  -7.158  0.00  0.00     0.006 C 
ATOM     36  C   UNL d   1      28.708 -10.780  -6.502  0.00  0.00     0.004 C 
ATOM     37  C   UNL d   1      30.047 -10.919  -7.285  0.00  0.00     0.012 C 
ENDBRANCH  29  31
ENDBRANCH  22  23
ENDBRANCH  21  22
ENDBRANCH   1  21
TORSDOF 9
ENDMDL
MODEL 2
REMARK VINA RESULT:   -10.277      4.103      7.091
REMARK INTER + INTRA:         -14.979
REMARK INTER:                 -12.962
REMARK INTRA:                  -2.017
REMARK CONF_INDEPENDENT:        2.685
REMARK UNBOUND:                -2.017
REMARK  9 active torsions:
REMARK  status: ('A' for Active; 'I' for Inactive)
REMARK    1  A    between atoms: C_5  and  S_6 
REMARK    2  A    between atoms: S_6  and  N_9 
REMARK    3  A    between atoms: N_9  and  C_10 
REMARK    4  A    between atoms: C_10  and  C_11 
REMARK    5  A    between atoms: C_17  and  C_18 
REMARK    6  A    between atoms: C_18  and  O_20 
REMARK    7  A    between atoms: O_20  and  C_21 
REMARK    8  A    between atoms: C_21  and  C_22 
REMARK       I    between atoms: C_22  and  N_24 
REMARK       I    between atoms: N_24  and  C_25 
REMARK       I    between atoms: C_25  and  N_27 
REMARK    9  A    between atoms: C_28  and  N_27 
ROOT
ATOM      1  C   UNL d   1      28.220 -16.710  -0.450  0.00  0.00     0.294 C 
ATOM      2  O   UNL d   1      29.051 -17.450  -0.930  0.00  0.00    -0.259 OA
ENDROOT
BRANCH   1   3
ATOM      3  C   UNL d   1      26.805 -16.562  -0.995  0.00  0.00     0.046 A 
ATOM      4  C   UNL d   1      25.832 -17.478  -0.520  0.00  0.00     0.042 A 
ATOM      5  C   UNL d   1      24.501 -17.406  -0.960  0.00  0.00     0.075 A 
ATOM      6  C   UNL d   1      24.120 -16.433  -1.891  0.00  0.00     0.025 A 
ATOM      7  C   UNL d   1      25.069 -15.529  -2.371  0.00  0.00     0.009 A 
ATOM      8  C   UNL d   1      26.408 -15.575  -1.930  0.00  0.00    -0.046 A 
ATOM      9  C   UNL d   1      27.359 -14.546  -2.484  0.00  0.00     0.049 C 
BRANCH   5  10
ATOM     10  S   UNL d   1      23.232 -18.504  -0.365  0.00  0.00     0.241 S 
ATOM     11  O   UNL d   1      23.288 -19.698  -1.187  0.00  0.00    -0.206 OA
ATOM     12  O   UNL d   1      23.356 -18.574   1.070  0.00  0.00    -0.206 OA
BRANCH  10  13
ATOM     13  N   UNL d   1      21.739 -17.766  -0.720  0.00  0.00    -0.209 NA
ATOM     14  H   UNL d   1      21.854 -17.001  -1.385  0.00  0.00     0.140 HD
BRANCH  13  15
ATOM     15  C   UNL d   1      20.784 -18.758  -1.270  0.00  0.00     0.169 C 
BRANCH  15  16
ATOM     16  C   UNL d   1      20.010 -19.507  -0.234  0.00  0.00     0.066 A 
ATOM     17  C   UNL d   1      20.287 -19.682   1.109  0.00  0.00     0.036 A 
ATOM     18  C   UNL d   1      19.246 -20.467   1.645  0.00  0.00     0.027 A 
ATOM     19  C   UNL d   1      18.392 -20.729   0.598  0.00  0.00     0.142 A 
ATOM     20  O   UNL d   1      18.851 -20.157  -0.554  0.00  0.00    -0.326 OA
ENDBRANCH  15  16
ENDBRANCH  13  15
ENDBRANCH  10  13
ENDBRANCH   5  10
ENDBRANCH   1   3
BRANCH   1  21
ATOM     21  O   UNL d   1      28.422 -15.910   0.623  0.00  0.00    -0.308 OA
BRANCH  21  22
ATOM     22  C   UNL d   1      28.271 -14.474   0.565  0.00  0.00     0.282 C 
BRANCH  22  23
ATOM     23  C   UNL d   1      29.589 -13.816   1.163  0.00  0.00     0.249 C 
ATOM     24  O   UNL d   1      30.209 -12.957   0.545  0.00  0.00    -0.271 OA
ATOM     25  N   UNL d   1      30.027 -14.318   2.393  0.00  0.00    -0.277 N 
ATOM     26  C   UNL d   1      30.782 -13.700   3.397  0.00  0.00     0.323 C 
ATOM     27  H   UNL d   1      29.547 -15.155   2.623  0.00  0.00     0.173 HD
ATOM     28  O   UNL d   1      31.653 -12.867   3.166  0.00  0.00    -0.247 OA
ATOM     29  N   UNL d   1      30.650 -14.102   4.725  0.00  0.00    -0.338 N 
ATOM     30  H   UNL d   1      31.327 -13.599   5.292  0.00  0.00     0.164 HD
BRANCH  29  31
ATOM     31  C   UNL d   1      29.659 -14.857   5.570  0.00  0.00     0.089 C 
ATOM     32  C   UNL d   1      28.352 -15.196   4.802  0.00  0.00     0.026 C 
ATOM     33  C   UNL d   1      27.658 -13.937   4.296  0.00  0.00     0.002 C 
ATOM     34  C   UNL d   1      27.406 -12.965   5.450  0.00  0.00     0.001 C 
ATOM     35  C   UNL d   1      28.662 -12.726   6.294  0.00  0.00     0.006 C 
ATOM     36  C   UNL d   1      29.299 -14.071   6.817  0.00  0.00     0.004 C 
ATOM     37  C   UNL d   1      30.548 -14.120   7.746  0.00  0.00     0.012 C 
ENDBRANCH  29  31
ENDBRANCH  22  23
ENDBRANCH  21  22
ENDBRANCH   1  21
TORSDOF 9
ENDMDL
MODEL 3
REMARK VINA RESULT:   -10.118      1.867      2.967
REMARK INTER + INTRA:         -15.329
REMARK INTER:                 -12.803
REMARK INTRA:                  -2.527
REMARK CONF_INDEPENDENT:        2.685
REMARK UNBOUND:                -2.527
REMARK  9 active torsions:
REMARK  status: ('A' for Active; 'I' for Inactive)
REMARK    1  A    between atoms: C_5  and  S_6 
REMARK    2  A    between atoms: S_6  and  N_9 
REMARK    3  A    between atoms: N_9  and  C_10 
REMARK    4  A    between atoms: C_10  and  C_11 
REMARK    5  A    between atoms: C_17  and  C_18 
REMARK    6  A    between atoms: C_18  and  O_20 
REMARK    7  A    between atoms: O_20  and  C_21 
REMARK    8  A    between atoms: C_21  and  C_22 
REMARK       I    between atoms: C_22  and  N_24 
REMARK       I    between atoms: N_24  and  C_25 
REMARK       I    between atoms: C_25  and  N_27 
REMARK    9  A    between atoms: C_28  and  N_27 
ROOT
ATOM      1  C   UNL d   1      26.042 -15.431  -4.375  0.00  0.00     0.294 C 
ATOM      2  O   UNL d   1      26.834 -15.559  -5.284  0.00  0.00    -0.259 OA
ENDROOT
BRANCH   1   3
ATOM      3  C   UNL d   1      26.286 -15.948  -2.962  0.00  0.00     0.046 A 
ATOM      4  C   UNL d   1      25.174 -16.497  -2.275  0.00  0.00     0.042 A 
ATOM      5  C   UNL d   1      25.312 -17.005  -0.975  0.00  0.00     0.075 A 
ATOM      6  C   UNL d   1      26.553 -16.962  -0.331  0.00  0.00     0.025 A 
ATOM      7  C   UNL d   1      27.655 -16.420  -0.994  0.00  0.00     0.009 A 
ATOM      8  C   UNL d   1      27.541 -15.916  -2.306  0.00  0.00    -0.046 A 
ATOM      9  C   UNL d   1      28.787 -15.370  -2.953  0.00  0.00     0.049 C 
BRANCH   5  10
ATOM     10  S   UNL d   1      23.958 -17.743  -0.084  0.00  0.00     0.241 S 
ATOM     11  O   UNL d   1      24.489 -18.200   1.186  0.00  0.00    -0.206 OA
ATOM     12  O   UNL d   1      22.845 -16.827  -0.146  0.00  0.00    -0.206 OA
BRANCH  10  13
ATOM     13  N   UNL d   1      23.518 -19.150  -0.936  0.00  0.00    -0.209 NA
ATOM     14  H   UNL d   1      23.439 -19.951  -0.310  0.00  0.00     0.140 HD
BRANCH  13  15
ATOM     15  C   UNL d   1      22.230 -18.950  -1.645  0.00  0.00     0.169 C 
BRANCH  15  16
ATOM     16  C   UNL d   1      21.024 -19.311  -0.841  0.00  0.00     0.066 A 
ATOM     17  C   UNL d   1      20.858 -19.329   0.531  0.00  0.00     0.036 A 
ATOM     18  C   UNL d   1      19.533 -19.741   0.781  0.00  0.00     0.027 A 
ATOM     19  C   UNL d   1      18.964 -19.953  -0.454  0.00  0.00     0.142 A 
ATOM     20  O   UNL d   1      19.864 -19.704  -1.450  0.00  0.00    -0.326 OA
ENDBRANCH  15  16
ENDBRANCH  13  15
ENDBRANCH  10  13
ENDBRANCH   5  10
ENDBRANCH   1   3
BRANCH   1  21
ATOM     21  O   UNL d   1      24.836 -14.825  -4.477  0.00  0.00    -0.308 OA
BRANCH  21  22
ATOM     22  C   UNL d   1      24.591 -13.488  -3.986  0.00  0.00     0.282 C 
BRANCH  22  23
ATOM     23  C   UNL d   1      25.978 -12.881  -3.499  0.00  0.00     0.249 C 
ATOM     24  O   UNL d   1      26.232 -12.752  -2.306  0.00  0.00    -0.271 OA
ATOM     25  N   UNL d   1      26.850 -12.448  -4.502  0.00  0.00    -0.277 N 
ATOM     26  C   UNL d   1      28.245 -12.343  -4.495  0.00  0.00     0.323 C 
ATOM     27  H   UNL d   1      26.388 -12.411  -5.379  0.00  0.00     0.173 HD
ATOM     28  O   UNL d   1      28.893 -12.060  -3.491  0.00  0.00    -0.247 OA
ATOM     29  N   UNL d   1      28.966 -12.447  -5.684  0.00  0.00    -0.338 N 
ATOM     30  H   UNL d   1      29.948 -12.269  -5.492  0.00  0.00     0.164 HD
BRANCH  29  31
ATOM     31  C   UNL d   1      28.751 -12.972  -7.078  0.00  0.00     0.089 C 
ATOM     32  C   UNL d   1      28.590 -14.517  -7.117  0.00  0.00     0.026 C 
ATOM     33  C   UNL d   1      29.813 -15.222  -6.544  0.00  0.00     0.002 C 
ATOM     34  C   UNL d   1      31.081 -14.763  -7.266  0.00  0.00     0.001 C 
ATOM     35  C   UNL d   1      31.183 -13.237  -7.347  0.00  0.00     0.006 C 
ATOM     36  C   UNL d   1      29.901 -12.582  -7.989  0.00  0.00     0.004 C 
ATOM     37  C   UNL d   1      29.759 -11.052  -8.245  0.00  0.00     0.012 C 
ENDBRANCH  29  31
ENDBRANCH  22  23
ENDBRANCH  21  22
ENDBRANCH   1  21
TORSDOF 9
ENDMDL
MODEL 4
REMARK VINA RESULT:    -9.611      2.246      3.367
REMARK INTER + INTRA:         -15.523
REMARK INTER:                 -12.296
REMARK INTRA:                  -3.227
REMARK CONF_INDEPENDENT:        2.685
REMARK UNBOUND:                -3.227
REMARK  9 active torsions:
REMARK  status: ('A' for Active; 'I' for Inactive)
REMARK    1  A    between atoms: C_5  and  S_6 
REMARK    2  A    between atoms: S_6  and  N_9 
REMARK    3  A    between atoms: N_9  and  C_10 
REMARK    4  A    between atoms: C_10  and  C_11 
REMARK    5  A    between atoms: C_17  and  C_18 
REMARK    6  A    between atoms: C_18  and  O_20 
REMARK    7  A    between atoms: O_20  and  C_21 
REMARK    8  A    between atoms: C_21  and  C_22 
REMARK       I    between atoms: C_22  and  N_24 
REMARK       I    between atoms: N_24  and  C_25 
REMARK       I    between atoms: C_25  and  N_27 
REMARK    9  A    between atoms: C_28  and  N_27 
ROOT
ATOM      1  C   UNL d   1      25.978 -14.886  -3.670  0.00  0.00     0.294 C 
ATOM      2  O   UNL d   1      25.462 -15.170  -4.729  0.00  0.00    -0.259 OA
ENDROOT
BRANCH   1   3
ATOM      3  C   UNL d   1      25.896 -15.763  -2.428  0.00  0.00     0.046 A 
ATOM      4  C   UNL d   1      24.769 -16.617  -2.314  0.00  0.00     0.042 A 
ATOM      5  C   UNL d   1      24.620 -17.467  -1.207  0.00  0.00     0.075 A 
ATOM      6  C   UNL d   1      25.579 -17.470  -0.189  0.00  0.00     0.025 A 
ATOM      7  C   UNL d   1      26.690 -16.630  -0.285  0.00  0.00     0.009 A 
ATOM      8  C   UNL d   1      26.867 -15.780  -1.396  0.00  0.00    -0.046 A 
ATOM      9  C   UNL d   1      28.106 -14.924  -1.428  0.00  0.00     0.049 C 
BRANCH   5  10
ATOM     10  S   UNL d   1      23.247 -18.588  -1.036  0.00  0.00     0.241 S 
ATOM     11  O   UNL d   1      23.072 -19.239  -2.319  0.00  0.00    -0.206 OA
ATOM     12  O   UNL d   1      23.456 -19.350   0.171  0.00  0.00    -0.206 OA
BRANCH  10  13
ATOM     13  N   UNL d   1      21.857 -17.630  -0.807  0.00  0.00    -0.209 NA
ATOM     14  H   UNL d   1      21.930 -16.747  -1.311  0.00  0.00     0.140 HD
BRANCH  13  15
ATOM     15  C   UNL d   1      20.644 -18.356  -1.258  0.00  0.00     0.169 C 
BRANCH  15  16
ATOM     16  C   UNL d   1      20.066 -19.280  -0.237  0.00  0.00     0.066 A 
ATOM     17  C   UNL d   1      20.310 -19.347   1.122  0.00  0.00     0.036 A 
ATOM     18  C   UNL d   1      19.513 -20.392   1.632  0.00  0.00     0.027 A 
ATOM     19  C   UNL d   1      18.827 -20.905   0.556  0.00  0.00     0.142 A 
ATOM     20  O   UNL d   1      19.162 -20.243  -0.590  0.00  0.00    -0.326 OA
ENDBRANCH  15  16
ENDBRANCH  13  15
ENDBRANCH  10  13
ENDBRANCH   5  10
ENDBRANCH   1   3
BRANCH   1  21
ATOM     21  O   UNL d   1      26.689 -13.758  -3.432  0.00  0.00    -0.308 OA
BRANCH  21  22
ATOM     22  C   UNL d   1      26.397 -12.501  -4.080  0.00  0.00     0.282 C 
BRANCH  22  23
ATOM     23  C   UNL d   1      27.013 -12.547  -5.545  0.00  0.00     0.249 C 
ATOM     24  O   UNL d   1      26.972 -11.568  -6.284  0.00  0.00    -0.271 OA
ATOM     25  N   UNL d   1      27.537 -13.776  -5.957  0.00  0.00    -0.277 N 
ATOM     26  C   UNL d   1      28.537 -14.057  -6.894  0.00  0.00     0.323 C 
ATOM     27  H   UNL d   1      27.272 -14.500  -5.332  0.00  0.00     0.173 HD
ATOM     28  O   UNL d   1      28.725 -13.379  -7.900  0.00  0.00    -0.247 OA
ATOM     29  N   UNL d   1      29.307 -15.214  -6.778  0.00  0.00    -0.338 N 
ATOM     30  H   UNL d   1      29.922 -15.284  -7.584  0.00  0.00     0.164 HD
BRANCH  29  31
ATOM     31  C   UNL d   1      29.653 -16.222  -5.715  0.00  0.00     0.089 C 
ATOM     32  C   UNL d   1      29.687 -15.604  -4.290  0.00  0.00     0.026 C 
ATOM     33  C   UNL d   1      30.701 -14.471  -4.196  0.00  0.00     0.002 C 
ATOM     34  C   UNL d   1      32.084 -14.954  -4.641  0.00  0.00     0.001 C 
ATOM     35  C   UNL d   1      32.039 -15.682  -5.988  0.00  0.00     0.006 C 
ATOM     36  C   UNL d   1      30.998 -16.867  -5.996  0.00  0.00     0.004 C 
ATOM     37  C   UNL d   1      30.788 -17.811  -7.216  0.00  0.00     0.012 C 
ENDBRANCH  29  31
ENDBRANCH  22  23
ENDBRANCH  21  22
ENDBRANCH   1  21
TORSDOF 9
ENDMDL
MODEL 5
REMARK VINA RESULT:    -9.581      2.300      4.268
REMARK INTER + INTRA:         -15.831
REMARK INTER:                 -12.266
REMARK INTRA:                  -3.566
REMARK CONF_INDEPENDENT:        2.685
REMARK UNBOUND:                -3.566
REMARK  9 active torsions:
REMARK  status: ('A' for Active; 'I' for Inactive)
REMARK    1  A    between atoms: C_5  and  S_6 
REMARK    2  A    between atoms: S_6  and  N_9 
REMARK    3  A    between atoms: N_9  and  C_10 
REMARK    4  A    between atoms: C_10  and  C_11 
REMARK    5  A    between atoms: C_17  and  C_18 
REMARK    6  A    between atoms: C_18  and  O_20 
REMARK    7  A    between atoms: O_20  and  C_21 
REMARK    8  A    between atoms: C_21  and  C_22 
REMARK       I    between atoms: C_22  and  N_24 
REMARK       I    between atoms: N_24  and  C_25 
REMARK       I    between atoms: C_25  and  N_27 
REMARK    9  A    between atoms: C_28  and  N_27 
ROOT
ATOM      1  C   UNL d   1      25.983 -15.467  -3.193  0.00  0.00     0.294 C 
ATOM      2  O   UNL d   1      26.995 -15.553  -3.853  0.00  0.00    -0.259 OA
ENDROOT
BRANCH   1   3
ATOM      3  C   UNL d   1      25.647 -16.395  -2.033  0.00  0.00     0.046 A 
ATOM      4  C   UNL d   1      24.274 -16.640  -1.778  0.00  0.00     0.042 A 
ATOM      5  C   UNL d   1      23.877 -17.491  -0.735  0.00  0.00     0.075 A 
ATOM      6  C   UNL d   1      24.837 -18.100   0.080  0.00  0.00     0.025 A 
ATOM      7  C   UNL d   1      26.193 -17.863  -0.156  0.00  0.00     0.009 A 
ATOM      8  C   UNL d   1      26.613 -17.023  -1.207  0.00  0.00    -0.046 A 
ATOM      9  C   UNL d   1      28.096 -16.842  -1.403  0.00  0.00     0.049 C 
BRANCH   5  10
ATOM     10  S   UNL d   1      22.169 -17.865  -0.399  0.00  0.00     0.241 S 
ATOM     11  O   UNL d   1      22.081 -18.206   1.008  0.00  0.00    -0.206 OA
ATOM     12  O   UNL d   1      21.371 -16.806  -0.967  0.00  0.00    -0.206 OA
BRANCH  10  13
ATOM     13  N   UNL d   1      21.804 -19.297  -1.247  0.00  0.00    -0.209 NA
ATOM     14  H   UNL d   1      22.205 -20.112  -0.783  0.00  0.00     0.140 HD
BRANCH  13  15
ATOM     15  C   UNL d   1      20.336 -19.471  -1.369  0.00  0.00     0.169 C 
BRANCH  15  16
ATOM     16  C   UNL d   1      19.670 -19.967  -0.127  0.00  0.00     0.066 A 
ATOM     17  C   UNL d   1      18.405 -20.500   0.035  0.00  0.00     0.036 A 
ATOM     18  C   UNL d   1      18.262 -20.812   1.403  0.00  0.00     0.027 A 
ATOM     19  C   UNL d   1      19.448 -20.451   1.999  0.00  0.00     0.142 A 
ATOM     20  O   UNL d   1      20.311 -19.927   1.080  0.00  0.00    -0.326 OA
ENDBRANCH  15  16
ENDBRANCH  13  15
ENDBRANCH  10  13
ENDBRANCH   5  10
ENDBRANCH   1   3
BRANCH   1  21
ATOM     21  O   UNL d   1      25.006 -14.550  -3.390  0.00  0.00    -0.308 OA
BRANCH  21  22
ATOM     22  C   UNL d   1      25.093 -13.522  -4.401  0.00  0.00     0.282 C 
BRANCH  22  23
ATOM     23  C   UNL d   1      26.008 -12.351  -3.835  0.00  0.00     0.249 C 
ATOM     24  O   UNL d   1      25.952 -11.218  -4.301  0.00  0.00    -0.271 OA
ATOM     25  N   UNL d   1      26.916 -12.706  -2.831  0.00  0.00    -0.277 N 
ATOM     26  C   UNL d   1      27.477 -11.927  -1.814  0.00  0.00     0.323 C 
ATOM     27  H   UNL d   1      26.986 -13.692  -2.752  0.00  0.00     0.173 HD
ATOM     28  O   UNL d   1      27.735 -10.734  -1.945  0.00  0.00    -0.247 OA
ATOM     29  N   UNL d   1      27.883 -12.517  -0.617  0.00  0.00    -0.338 N 
ATOM     30  H   UNL d   1      28.333 -11.815  -0.038  0.00  0.00     0.164 HD
BRANCH  29  31
ATOM     31  C   UNL d   1      27.632 -13.794   0.139  0.00  0.00     0.089 C 
ATOM     32  C   UNL d   1      26.393 -13.704   1.072  0.00  0.00     0.026 C 
ATOM     33  C   UNL d   1      26.545 -12.587   2.097  0.00  0.00     0.002 C 
ATOM     34  C   UNL d   1      27.843 -12.759   2.888  0.00  0.00     0.001 C 
ATOM     35  C   UNL d   1      29.054 -12.980   1.975  0.00  0.00     0.006 C 
ATOM     36  C   UNL d   1      28.840 -14.178   0.973  0.00  0.00     0.004 C 
ATOM     37  C   UNL d   1      29.931 -14.660  -0.029  0.00  0.00     0.012 C 
ENDBRANCH  29  31
ENDBRANCH  22  23
ENDBRANCH  21  22
ENDBRANCH   1  21
TORSDOF 9
ENDMDL
MODEL 6
REMARK VINA RESULT:    -8.745      4.203      8.898
REMARK INTER + INTRA:         -14.850
REMARK INTER:                 -11.430
REMARK INTRA:                  -3.420
REMARK CONF_INDEPENDENT:        2.685
REMARK UNBOUND:                -3.420
REMARK  9 active torsions:
REMARK  status: ('A' for Active; 'I' for Inactive)
REMARK    1  A    between atoms: C_5  and  S_6 
REMARK    2  A    between atoms: S_6  and  N_9 
REMARK    3  A    between atoms: N_9  and  C_10 
REMARK    4  A    between atoms: C_10  and  C_11 
REMARK    5  A    between atoms: C_17  and  C_18 
REMARK    6  A    between atoms: C_18  and  O_20 
REMARK    7  A    between atoms: O_20  and  C_21 
REMARK    8  A    between atoms: C_21  and  C_22 
REMARK       I    between atoms: C_22  and  N_24 
REMARK       I    between atoms: N_24  and  C_25 
REMARK       I    between atoms: C_25  and  N_27 
REMARK    9  A    between atoms: C_28  and  N_27 
ROOT
ATOM      1  C   UNL d   1      28.584 -17.042  -0.438  0.00  0.00     0.294 C 
ATOM      2  O   UNL d   1      29.247 -18.039  -0.626  0.00  0.00    -0.259 OA
ENDROOT
BRANCH   1   3
ATOM      3  C   UNL d   1      27.171 -16.852  -0.974  0.00  0.00     0.046 A 
ATOM      4  C   UNL d   1      27.029 -16.092  -2.163  0.00  0.00     0.042 A 
ATOM      5  C   UNL d   1      25.764 -15.877  -2.732  0.00  0.00     0.075 A 
ATOM      6  C   UNL d   1      24.620 -16.400  -2.121  0.00  0.00     0.025 A 
ATOM      7  C   UNL d   1      24.745 -17.146  -0.946  0.00  0.00     0.009 A 
ATOM      8  C   UNL d   1      26.008 -17.385  -0.367  0.00  0.00    -0.046 A 
ATOM      9  C   UNL d   1      26.051 -18.218   0.888  0.00  0.00     0.049 C 
BRANCH   5  10
ATOM     10  S   UNL d   1      25.534 -14.967  -4.245  0.00  0.00     0.241 S 
ATOM     11  O   UNL d   1      25.551 -15.934  -5.326  0.00  0.00    -0.206 OA
ATOM     12  O   UNL d   1      24.415 -14.077  -4.052  0.00  0.00    -0.206 OA
BRANCH  10  13
ATOM     13  N   UNL d   1      26.926 -14.009  -4.459  0.00  0.00    -0.209 NA
ATOM     14  H   UNL d   1      27.564 -14.105  -3.669  0.00  0.00     0.140 HD
BRANCH  13  15
ATOM     15  C   UNL d   1      27.630 -14.383  -5.710  0.00  0.00     0.169 C 
BRANCH  15  16
ATOM     16  C   UNL d   1      28.802 -15.287  -5.509  0.00  0.00     0.066 A 
ATOM     17  C   UNL d   1      29.670 -15.816  -6.446  0.00  0.00     0.036 A 
ATOM     18  C   UNL d   1      30.602 -16.606  -5.742  0.00  0.00     0.027 A 
ATOM     19  C   UNL d   1      30.250 -16.516  -4.416  0.00  0.00     0.142 A 
ATOM     20  O   UNL d   1      29.150 -15.723  -4.261  0.00  0.00    -0.326 OA
ENDBRANCH  15  16
ENDBRANCH  13  15
ENDBRANCH  10  13
ENDBRANCH   5  10
ENDBRANCH   1   3
BRANCH   1  21
ATOM     21  O   UNL d   1      28.997 -15.958   0.261  0.00  0.00    -0.308 OA
BRANCH  21  22
ATOM     22  C   UNL d   1      29.715 -14.863  -0.349  0.00  0.00     0.282 C 
BRANCH  22  23
ATOM     23  C   UNL d   1      30.882 -14.428   0.640  0.00  0.00     0.249 C 
ATOM     24  O   UNL d   1      31.874 -13.835   0.231  0.00  0.00    -0.271 OA
ATOM     25  N   UNL d   1      30.738 -14.818   1.976  0.00  0.00    -0.277 N 
ATOM     26  C   UNL d   1      31.250 -14.235   3.140  0.00  0.00     0.323 C 
ATOM     27  H   UNL d   1      30.007 -15.482   2.072  0.00  0.00     0.173 HD
ATOM     28  O   UNL d   1      32.334 -13.662   3.184  0.00  0.00    -0.247 OA
ATOM     29  N   UNL d   1      30.583 -14.387   4.355  0.00  0.00    -0.338 N 
ATOM     30  H   UNL d   1      31.140 -13.965   5.093  0.00  0.00     0.164 HD
BRANCH  29  31
ATOM     31  C   UNL d   1      29.206 -14.763   4.834  0.00  0.00     0.089 C 
ATOM     32  C   UNL d   1      28.166 -14.821   3.681  0.00  0.00     0.026 C 
ATOM     33  C   UNL d   1      28.052 -13.483   2.963  0.00  0.00     0.002 C 
ATOM     34  C   UNL d   1      27.736 -12.366   3.960  0.00  0.00     0.001 C 
ATOM     35  C   UNL d   1      28.678 -12.383   5.168  0.00  0.00     0.006 C 
ATOM     36  C   UNL d   1      28.711 -13.786   5.885  0.00  0.00     0.004 C 
ATOM     37  C   UNL d   1      29.539 -14.069   7.173  0.00  0.00     0.012 C 
ENDBRANCH  29  31
ENDBRANCH  22  23
ENDBRANCH  21  22
ENDBRANCH   1  21
TORSDOF 9
ENDMDL
MODEL 7
REMARK VINA RESULT:    -8.620      4.703      7.559
REMARK INTER + INTRA:         -14.819
REMARK INTER:                 -11.305
REMARK INTRA:                  -3.515
REMARK CONF_INDEPENDENT:        2.685
REMARK UNBOUND:                -3.515
REMARK  9 active torsions:
REMARK  status: ('A' for Active; 'I' for Inactive)
REMARK    1  A    between atoms: C_5  and  S_6 
REMARK    2  A    between atoms: S_6  and  N_9 
REMARK    3  A    between atoms: N_9  and  C_10 
REMARK    4  A    between atoms: C_10  and  C_11 
REMARK    5  A    between atoms: C_17  and  C_18 
REMARK    6  A    between atoms: C_18  and  O_20 
REMARK    7  A    between atoms: O_20  and  C_21 
REMARK    8  A    between atoms: C_21  and  C_22 
REMARK       I    between atoms: C_22  and  N_24 
REMARK       I    between atoms: N_24  and  C_25 
REMARK       I    between atoms: C_25  and  N_27 
REMARK    9  A    between atoms: C_28  and  N_27 
ROOT
ATOM      1  C   UNL d   1      27.461 -14.337   1.222  0.00  0.00     0.294 C 
ATOM      2  O   UNL d   1      28.537 -14.830   1.486  0.00  0.00    -0.259 OA
ENDROOT
BRANCH   1   3
ATOM      3  C   UNL d   1      26.641 -14.707  -0.007  0.00  0.00     0.046 A 
ATOM      4  C   UNL d   1      25.932 -15.934   0.035  0.00  0.00     0.042 A 
ATOM      5  C   UNL d   1      25.143 -16.346  -1.049  0.00  0.00     0.075 A 
ATOM      6  C   UNL d   1      25.059 -15.554  -2.199  0.00  0.00     0.025 A 
ATOM      7  C   UNL d   1      25.757 -14.346  -2.257  0.00  0.00     0.009 A 
ATOM      8  C   UNL d   1      26.543 -13.906  -1.173  0.00  0.00    -0.046 A 
ATOM      9  C   UNL d   1      27.244 -12.580  -1.313  0.00  0.00     0.049 C 
BRANCH   5  10
ATOM     10  S   UNL d   1      24.199 -17.856  -1.031  0.00  0.00     0.241 S 
ATOM     11  O   UNL d   1      23.931 -18.202  -2.414  0.00  0.00    -0.206 OA
ATOM     12  O   UNL d   1      24.867 -18.776  -0.143  0.00  0.00    -0.206 OA
BRANCH  10  13
ATOM     13  N   UNL d   1      22.686 -17.481  -0.345  0.00  0.00    -0.209 NA
ATOM     14  H   UNL d   1      21.973 -17.366  -1.064  0.00  0.00     0.140 HD
BRANCH  13  15
ATOM     15  C   UNL d   1      22.265 -18.543   0.602  0.00  0.00     0.169 C 
BRANCH  15  16
ATOM     16  C   UNL d   1      20.958 -19.183   0.265  0.00  0.00     0.066 A 
ATOM     17  C   UNL d   1      20.237 -20.128   0.972  0.00  0.00     0.036 A 
ATOM     18  C   UNL d   1      19.073 -20.401   0.225  0.00  0.00     0.027 A 
ATOM     19  C   UNL d   1      19.149 -19.609  -0.897  0.00  0.00     0.142 A 
ATOM     20  O   UNL d   1      20.296 -18.869  -0.889  0.00  0.00    -0.326 OA
ENDBRANCH  15  16
ENDBRANCH  13  15
ENDBRANCH  10  13
ENDBRANCH   5  10
ENDBRANCH   1   3
BRANCH   1  21
ATOM     21  O   UNL d   1      26.838 -13.392   1.965  0.00  0.00    -0.308 OA
BRANCH  21  22
ATOM     22  C   UNL d   1      27.240 -12.005   1.959  0.00  0.00     0.282 C 
BRANCH  22  23
ATOM     23  C   UNL d   1      28.801 -11.943   2.255  0.00  0.00     0.249 C 
ATOM     24  O   UNL d   1      29.517 -11.100   1.724  0.00  0.00    -0.271 OA
ATOM     25  N   UNL d   1      29.311 -12.938   3.095  0.00  0.00    -0.277 N 
ATOM     26  C   UNL d   1      30.434 -12.919   3.929  0.00  0.00     0.323 C 
ATOM     27  H   UNL d   1      28.643 -13.658   3.234  0.00  0.00     0.173 HD
ATOM     28  O   UNL d   1      31.459 -12.297   3.663  0.00  0.00    -0.247 OA
ATOM     29  N   UNL d   1      30.478 -13.720   5.070  0.00  0.00    -0.338 N 
ATOM     30  H   UNL d   1      31.394 -13.631   5.501  0.00  0.00     0.164 HD
BRANCH  29  31
ATOM     31  C   UNL d   1      29.509 -14.458   5.954  0.00  0.00     0.089 C 
ATOM     32  C   UNL d   1      28.041 -14.348   5.456  0.00  0.00     0.026 C 
ATOM     33  C   UNL d   1      27.583 -12.897   5.384  0.00  0.00     0.002 C 
ATOM     34  C   UNL d   1      27.780 -12.206   6.735  0.00  0.00     0.001 C 
ATOM     35  C   UNL d   1      29.189 -12.420   7.296  0.00  0.00     0.006 C 
ATOM     36  C   UNL d   1      29.577 -13.946   7.381  0.00  0.00     0.004 C 
ATOM     37  C   UNL d   1      30.927 -14.454   7.967  0.00  0.00     0.012 C 
ENDBRANCH  29  31
ENDBRANCH  22  23
ENDBRANCH  21  22
ENDBRANCH   1  21
TORSDOF 9
ENDMDL
MODEL 8
REMARK VINA RESULT:    -8.549      4.165      8.602
REMARK INTER + INTRA:         -14.726
REMARK INTER:                 -11.234
REMARK INTRA:                  -3.493
REMARK CONF_INDEPENDENT:        2.685
REMARK UNBOUND:                -3.493
REMARK  9 active torsions:
REMARK  status: ('A' for Active; 'I' for Inactive)
REMARK    1  A    between atoms: C_5  and  S_6 
REMARK    2  A    between atoms: S_6  and  N_9 
REMARK    3  A    between atoms: N_9  and  C_10 
REMARK    4  A    between atoms: C_10  and  C_11 
REMARK    5  A    between atoms: C_17  and  C_18 
REMARK    6  A    between atoms: C_18  and  O_20 
REMARK    7  A    between atoms: O_20  and  C_21 
REMARK    8  A    between atoms: C_21  and  C_22 
REMARK       I    between atoms: C_22  and  N_24 
REMARK       I    between atoms: N_24  and  C_25 
REMARK       I    between atoms: C_25  and  N_27 
REMARK    9  A    between atoms: C_28  and  N_27 
ROOT
ATOM      1  C   UNL d   1      27.840 -15.851   0.693  0.00  0.00     0.294 C 
ATOM      2  O   UNL d   1      27.741 -15.311   1.774  0.00  0.00    -0.259 OA
ENDROOT
BRANCH   1   3
ATOM      3  C   UNL d   1      26.654 -16.151  -0.214  0.00  0.00     0.046 A 
ATOM      4  C   UNL d   1      26.237 -15.119  -1.093  0.00  0.00     0.042 A 
ATOM      5  C   UNL d   1      25.159 -15.315  -1.971  0.00  0.00     0.075 A 
ATOM      6  C   UNL d   1      24.470 -16.533  -1.978  0.00  0.00     0.025 A 
ATOM      7  C   UNL d   1      24.867 -17.555  -1.114  0.00  0.00     0.009 A 
ATOM      8  C   UNL d   1      25.956 -17.384  -0.235  0.00  0.00    -0.046 A 
ATOM      9  C   UNL d   1      26.328 -18.548   0.646  0.00  0.00     0.049 C 
BRANCH   5  10
ATOM     10  S   UNL d   1      24.622 -14.069  -3.123  0.00  0.00     0.241 S 
ATOM     11  O   UNL d   1      23.173 -14.132  -3.168  0.00  0.00    -0.206 OA
ATOM     12  O   UNL d   1      25.310 -12.845  -2.793  0.00  0.00    -0.206 OA
BRANCH  10  13
ATOM     13  N   UNL d   1      25.155 -14.562  -4.664  0.00  0.00    -0.209 NA
ATOM     14  H   UNL d   1      24.450 -14.372  -5.376  0.00  0.00     0.140 HD
BRANCH  13  15
ATOM     15  C   UNL d   1      26.418 -13.873  -5.024  0.00  0.00     0.169 C 
BRANCH  15  16
ATOM     16  C   UNL d   1      27.635 -14.736  -4.940  0.00  0.00     0.066 A 
ATOM     17  C   UNL d   1      28.343 -15.145  -3.825  0.00  0.00     0.036 A 
ATOM     18  C   UNL d   1      29.407 -15.947  -4.285  0.00  0.00     0.027 A 
ATOM     19  C   UNL d   1      29.290 -15.981  -5.656  0.00  0.00     0.142 A 
ATOM     20  O   UNL d   1      28.220 -15.240  -6.068  0.00  0.00    -0.326 OA
ENDBRANCH  15  16
ENDBRANCH  13  15
ENDBRANCH  10  13
ENDBRANCH   5  10
ENDBRANCH   1   3
BRANCH   1  21
ATOM     21  O   UNL d   1      29.003 -16.269   0.140  0.00  0.00    -0.308 OA
BRANCH  21  22
ATOM     22  C   UNL d   1      29.920 -15.370  -0.521  0.00  0.00     0.282 C 
BRANCH  22  23
ATOM     23  C   UNL d   1      31.090 -15.023   0.499  0.00  0.00     0.249 C 
ATOM     24  O   UNL d   1      32.227 -14.784   0.105  0.00  0.00    -0.271 OA
ATOM     25  N   UNL d   1      30.760 -15.071   1.857  0.00  0.00    -0.277 N 
ATOM     26  C   UNL d   1      31.324 -14.390   2.942  0.00  0.00     0.323 C 
ATOM     27  H   UNL d   1      29.879 -15.505   1.991  0.00  0.00     0.173 HD
ATOM     28  O   UNL d   1      32.514 -14.094   3.005  0.00  0.00    -0.247 OA
ATOM     29  N   UNL d   1      30.560 -14.114   4.075  0.00  0.00    -0.338 N 
ATOM     30  H   UNL d   1      31.155 -13.688   4.780  0.00  0.00     0.164 HD
BRANCH  29  31
ATOM     31  C   UNL d   1      29.103 -14.041   4.448  0.00  0.00     0.089 C 
ATOM     32  C   UNL d   1      28.259 -13.244   3.416  0.00  0.00     0.026 C 
ATOM     33  C   UNL d   1      28.766 -11.816   3.262  0.00  0.00     0.002 C 
ATOM     34  C   UNL d   1      28.812 -11.116   4.622  0.00  0.00     0.001 C 
ATOM     35  C   UNL d   1      29.531 -11.955   5.683  0.00  0.00     0.006 C 
ATOM     36  C   UNL d   1      28.925 -13.405   5.815  0.00  0.00     0.004 C 
ATOM     37  C   UNL d   1      29.425 -14.449   6.856  0.00  0.00     0.012 C 
ENDBRANCH  29  31
ENDBRANCH  22  23
ENDBRANCH  21  22
ENDBRANCH   1  21
TORSDOF 9
ENDMDL
MODEL 9
REMARK VINA RESULT:    -7.465      3.727      8.312
REMARK INTER + INTRA:         -15.083
REMARK INTER:                 -10.150
REMARK INTRA:                  -4.933
REMARK CONF_INDEPENDENT:        2.685
REMARK UNBOUND:                -4.933
REMARK  9 active torsions:
REMARK  status: ('A' for Active; 'I' for Inactive)
REMARK    1  A    between atoms: C_5  and  S_6 
REMARK    2  A    between atoms: S_6  and  N_9 
REMARK    3  A    between atoms: N_9  and  C_10 
REMARK    4  A    between atoms: C_10  and  C_11 
REMARK    5  A    between atoms: C_17  and  C_18 
REMARK    6  A    between atoms: C_18  and  O_20 
REMARK    7  A    between atoms: O_20  and  C_21 
REMARK    8  A    between atoms: C_21  and  C_22 
REMARK       I    between atoms: C_22  and  N_24 
REMARK       I    between atoms: N_24  and  C_25 
REMARK       I    between atoms: C_25  and  N_27 
REMARK    9  A    between atoms: C_28  and  N_27 
ROOT
ATOM      1  C   UNL d   1      29.497 -16.461  -1.770  0.00  0.00     0.294 C 
ATOM      2  O   UNL d   1      29.134 -17.498  -1.260  0.00  0.00    -0.259 OA
ENDROOT
BRANCH   1   3
ATOM      3  C   UNL d   1      28.855 -15.861  -3.015  0.00  0.00     0.046 A 
ATOM      4  C   UNL d   1      27.602 -15.217  -2.848  0.00  0.00     0.042 A 
ATOM      5  C   UNL d   1      26.946 -14.628  -3.940  0.00  0.00     0.075 A 
ATOM      6  C   UNL d   1      27.516 -14.682  -5.216  0.00  0.00     0.025 A 
ATOM      7  C   UNL d   1      28.747 -15.317  -5.395  0.00  0.00     0.009 A 
ATOM      8  C   UNL d   1      29.429 -15.903  -4.310  0.00  0.00    -0.046 A 
ATOM      9  C   UNL d   1      30.761 -16.548  -4.591  0.00  0.00     0.049 C 
BRANCH   5  10
ATOM     10  S   UNL d   1      25.393 -13.771  -3.778  0.00  0.00     0.241 S 
ATOM     11  O   UNL d   1      24.446 -14.450  -4.641  0.00  0.00    -0.206 OA
ATOM     12  O   UNL d   1      25.136 -13.599  -2.369  0.00  0.00    -0.206 OA
BRANCH  10  13
ATOM     13  N   UNL d   1      25.613 -12.224  -4.456  0.00  0.00    -0.209 NA
ATOM     14  H   UNL d   1      24.778 -11.919  -4.956  0.00  0.00     0.140 HD
BRANCH  13  15
ATOM     15  C   UNL d   1      25.946 -11.235  -3.402  0.00  0.00     0.169 C 
BRANCH  15  16
ATOM     16  C   UNL d   1      27.215 -11.523  -2.668  0.00  0.00     0.066 A 
ATOM     17  C   UNL d   1      27.440 -11.598  -1.306  0.00  0.00     0.036 A 
ATOM     18  C   UNL d   1      28.807 -11.897  -1.131  0.00  0.00     0.027 A 
ATOM     19  C   UNL d   1      29.339 -11.987  -2.396  0.00  0.00     0.142 A 
ATOM     20  O   UNL d   1      28.382 -11.753  -3.341  0.00  0.00    -0.326 OA
ENDBRANCH  15  16
ENDBRANCH  13  15
ENDBRANCH  10  13
ENDBRANCH   5  10
ENDBRANCH   1   3
BRANCH   1  21
ATOM     21  O   UNL d   1      30.517 -15.692  -1.322  0.00  0.00    -0.308 OA
BRANCH  21  22
ATOM     22  C   UNL d   1      30.752 -15.450   0.083  0.00  0.00     0.282 C 
BRANCH  22  23
ATOM     23  C   UNL d   1      29.470 -14.722   0.679  0.00  0.00     0.249 C 
ATOM     24  O   UNL d   1      29.550 -13.609   1.189  0.00  0.00    -0.271 OA
ATOM     25  N   UNL d   1      28.275 -15.447   0.644  0.00  0.00    -0.277 N 
ATOM     26  C   UNL d   1      26.952 -14.995   0.604  0.00  0.00     0.323 C 
ATOM     27  H   UNL d   1      28.446 -16.398   0.420  0.00  0.00     0.173 HD
ATOM     28  O   UNL d   1      26.578 -13.962   1.152  0.00  0.00    -0.247 OA
ATOM     29  N   UNL d   1      25.957 -15.778   0.021  0.00  0.00    -0.338 N 
ATOM     30  H   UNL d   1      25.058 -15.324   0.154  0.00  0.00     0.164 HD
BRANCH  29  31
ATOM     31  C   UNL d   1      25.866 -16.939  -0.934  0.00  0.00     0.089 C 
ATOM     32  C   UNL d   1      24.711 -16.781  -1.961  0.00  0.00     0.026 C 
ATOM     33  C   UNL d   1      23.360 -16.648  -1.269  0.00  0.00     0.002 C 
ATOM     34  C   UNL d   1      23.126 -17.830  -0.325  0.00  0.00     0.001 C 
ATOM     35  C   UNL d   1      24.317 -18.075   0.606  0.00  0.00     0.006 C 
ATOM     36  C   UNL d   1      25.672 -18.244  -0.183  0.00  0.00     0.004 C 
ATOM     37  C   UNL d   1      27.031 -18.560   0.508  0.00  0.00     0.012 C 
ENDBRANCH  29  31
ENDBRANCH  22  23
ENDBRANCH  21  22
ENDBRANCH   1  21
TORSDOF 9
ENDMDL
