MODEL 1
REMARK VINA RESULT:    -7.510      0.000      0.000
REMARK INTER + INTRA:         -11.284
REMARK INTER:                  -9.897
REMARK INTRA:                  -1.387
REMARK CONF_INDEPENDENT:        2.386
REMARK UNBOUND:                -1.387
REMARK  8 active torsions:
REMARK  status: ('A' for Active; 'I' for Inactive)
REMARK    1  A    between atoms: C_2  and  C_3 
REMARK       I    between atoms: C_2  and  N_15 
REMARK    2  A    between atoms: C_3  and  C_4 
REMARK    3  A    between atoms: C_4  and  C_5 
REMARK    4  A    between atoms: C_5  and  O_6 
REMARK    5  A    between atoms: O_6  and  C_7 
REMARK    6  A    between atoms: N_15  and  N_16 
REMARK       I    between atoms: N_16  and  C_17 
REMARK    7  A    between atoms: C_17  and  C_19 
REMARK    8  A    between atoms: C_19  and  C_20 
ROOT
ATOM      1  O   UNL d   1      26.697 -14.296   0.963  0.00  0.00    -0.272 OA
ATOM      2  C   UNL d   1      27.635 -14.466   1.745  0.00  0.00     0.236 C 
ATOM      3  N   UNL d   1      27.431 -14.325   3.097  0.00  0.00    -0.268 N 
ATOM      4  H   UNL d   1      26.489 -14.077   3.411  0.00  0.00     0.190 HD
ENDROOT
BRANCH   3   5
ATOM      5  N   UNL d   1      28.393 -14.490   4.112  0.00  0.00    -0.267 N 
ATOM      6  C   UNL d   1      28.300 -13.648   5.219  0.00  0.00     0.240 C 
ATOM      7  O   UNL d   1      27.403 -12.806   5.297  0.00  0.00    -0.272 OA
ATOM      8  H   UNL d   1      29.123 -15.183   4.009  0.00  0.00     0.190 HD
BRANCH   6   9
ATOM      9  C   UNL d   1      29.378 -13.868   6.286  0.00  0.00     0.145 C 
BRANCH   9  10
ATOM     10  C   UNL d   1      29.143 -13.028   7.509  0.00  0.00    -0.021 A 
ATOM     11  C   UNL d   1      29.015 -11.653   7.579  0.00  0.00     0.097 A 
ATOM     12  N   UNL d   1      28.688 -11.316   8.869  0.00  0.00    -0.365 N 
ATOM     13  C   UNL d   1      28.693 -12.436   9.670  0.00  0.00     0.042 A 
ATOM     14  H   UNL d   1      28.479 -10.381   9.192  0.00  0.00     0.165 HD
ATOM     15  C   UNL d   1      28.455 -12.577  11.044  0.00  0.00     0.030 A 
ATOM     16  C   UNL d   1      28.984 -13.520   8.844  0.00  0.00    -0.001 A 
ATOM     17  C   UNL d   1      28.552 -13.863  11.590  0.00  0.00     0.002 A 
ATOM     18  C   UNL d   1      28.843 -14.963  10.787  0.00  0.00     0.001 A 
ATOM     19  C   UNL d   1      29.045 -14.807   9.414  0.00  0.00     0.014 A 
ENDBRANCH   9  10
ENDBRANCH   6   9
ENDBRANCH   3   5
BRANCH   2  20
ATOM     20  C   UNL d   1      29.031 -14.832   1.270  0.00  0.00     0.106 C 
BRANCH  20  21
ATOM     21  C   UNL d   1      29.033 -15.471  -0.125  0.00  0.00     0.036 C 
BRANCH  21  22
ATOM     22  C   UNL d   1      28.511 -16.912  -0.099  0.00  0.00     0.176 C 
BRANCH  22  23
ATOM     23  O   UNL d   1      27.634 -17.105  -1.215  0.00  0.00    -0.348 OA
BRANCH  23  24
ATOM     24  C   UNL d   1      26.292 -17.088  -0.936  0.00  0.00     0.107 A 
ATOM     25  C   UNL d   1      25.382 -16.209  -1.534  0.00  0.00     0.043 A 
ATOM     26  C   UNL d   1      24.013 -16.329  -1.266  0.00  0.00     0.045 A 
ATOM     27  C   UNL d   1      23.558 -17.325  -0.408  0.00  0.00     0.119 A 
ATOM     28  F   UNL d   1      22.244 -17.440  -0.172  0.00  0.00    -0.206 F 
ATOM     29  C   UNL d   1      24.442 -18.203   0.197  0.00  0.00     0.087 A 
ATOM     30  C   UNL d   1      25.802 -18.082  -0.079  0.00  0.00     0.152 A 
ATOM     31  F   UNL d   1      26.650 -18.940   0.510  0.00  0.00    -0.203 F 
ENDBRANCH  23  24
ENDBRANCH  22  23
ENDBRANCH  21  22
ENDBRANCH  20  21
ENDBRANCH   2  20
TORSDOF 8
ENDMDL
MODEL 2
REMARK VINA RESULT:    -7.035      7.839      9.839
REMARK INTER + INTRA:         -11.035
REMARK INTER:                  -9.421
REMARK INTRA:                  -1.614
REMARK CONF_INDEPENDENT:        2.386
REMARK UNBOUND:                -1.614
REMARK  8 active torsions:
REMARK  status: ('A' for Active; 'I' for Inactive)
REMARK    1  A    between atoms: C_2  and  C_3 
REMARK       I    between atoms: C_2  and  N_15 
REMARK    2  A    between atoms: C_3  and  C_4 
REMARK    3  A    between atoms: C_4  and  C_5 
REMARK    4  A    between atoms: C_5  and  O_6 
REMARK    5  A    between atoms: O_6  and  C_7 
REMARK    6  A    between atoms: N_15  and  N_16 
REMARK       I    between atoms: N_16  and  C_17 
REMARK    7  A    between atoms: C_17  and  C_19 
REMARK    8  A    between atoms: C_19  and  C_20 
ROOT
ATOM      1  O   UNL d   1      28.945 -15.122  -7.233  0.00  0.00    -0.272 OA
ATOM      2  C   UNL d   1      28.808 -15.057  -6.010  0.00  0.00     0.236 C 
ATOM      3  N   UNL d   1      27.579 -14.752  -5.474  0.00  0.00    -0.268 N 
ATOM      4  H   UNL d   1      26.807 -14.584  -6.125  0.00  0.00     0.190 HD
ENDROOT
BRANCH   3   5
ATOM      5  N   UNL d   1      27.263 -14.645  -4.107  0.00  0.00    -0.267 N 
ATOM      6  C   UNL d   1      25.916 -14.519  -3.773  0.00  0.00     0.240 C 
ATOM      7  O   UNL d   1      25.048 -14.512  -4.648  0.00  0.00    -0.272 OA
ATOM      8  H   UNL d   1      28.002 -14.642  -3.415  0.00  0.00     0.190 HD
BRANCH   6   9
ATOM      9  C   UNL d   1      25.634 -14.397  -2.271  0.00  0.00     0.145 C 
BRANCH   9  10
ATOM     10  C   UNL d   1      25.767 -15.714  -1.562  0.00  0.00    -0.021 A 
ATOM     11  C   UNL d   1      26.932 -16.386  -1.237  0.00  0.00     0.097 A 
ATOM     12  N   UNL d   1      26.599 -17.487  -0.488  0.00  0.00    -0.365 N 
ATOM     13  C   UNL d   1      25.231 -17.604  -0.394  0.00  0.00     0.042 A 
ATOM     14  H   UNL d   1      27.260 -18.127  -0.066  0.00  0.00     0.165 HD
ATOM     15  C   UNL d   1      24.438 -18.575   0.234  0.00  0.00     0.030 A 
ATOM     16  C   UNL d   1      24.686 -16.512  -1.067  0.00  0.00    -0.001 A 
ATOM     17  C   UNL d   1      23.049 -18.436   0.139  0.00  0.00     0.002 A 
ATOM     18  C   UNL d   1      22.478 -17.355  -0.528  0.00  0.00     0.001 A 
ATOM     19  C   UNL d   1      23.285 -16.381  -1.119  0.00  0.00     0.014 A 
ENDBRANCH   9  10
ENDBRANCH   6   9
ENDBRANCH   3   5
BRANCH   2  20
ATOM     20  C   UNL d   1      29.960 -15.305  -5.051  0.00  0.00     0.106 C 
BRANCH  20  21
ATOM     21  C   UNL d   1      29.640 -16.383  -4.008  0.00  0.00     0.036 C 
BRANCH  21  22
ATOM     22  C   UNL d   1      30.641 -17.543  -4.051  0.00  0.00     0.176 C 
BRANCH  22  23
ATOM     23  O   UNL d   1      30.031 -18.655  -4.717  0.00  0.00    -0.348 OA
BRANCH  23  24
ATOM     24  C   UNL d   1      30.506 -18.940  -5.971  0.00  0.00     0.107 A 
ATOM     25  C   UNL d   1      30.778 -17.970  -6.941  0.00  0.00     0.043 A 
ATOM     26  C   UNL d   1      31.357 -18.341  -8.161  0.00  0.00     0.045 A 
ATOM     27  C   UNL d   1      31.665 -19.677  -8.405  0.00  0.00     0.119 A 
ATOM     28  F   UNL d   1      32.234 -20.018  -9.569  0.00  0.00    -0.206 F 
ATOM     29  C   UNL d   1      31.400 -20.653  -7.459  0.00  0.00     0.087 A 
ATOM     30  C   UNL d   1      30.829 -20.276  -6.246  0.00  0.00     0.152 A 
ATOM     31  F   UNL d   1      30.580 -21.229  -5.335  0.00  0.00    -0.203 F 
ENDBRANCH  23  24
ENDBRANCH  22  23
ENDBRANCH  21  22
ENDBRANCH  20  21
ENDBRANCH   2  20
TORSDOF 8
ENDMDL
MODEL 3
REMARK VINA RESULT:    -6.993      7.677      9.221
REMARK INTER + INTRA:         -11.384
REMARK INTER:                  -9.379
REMARK INTRA:                  -2.005
REMARK CONF_INDEPENDENT:        2.386
REMARK UNBOUND:                -2.005
REMARK  8 active torsions:
REMARK  status: ('A' for Active; 'I' for Inactive)
REMARK    1  A    between atoms: C_2  and  C_3 
REMARK       I    between atoms: C_2  and  N_15 
REMARK    2  A    between atoms: C_3  and  C_4 
REMARK    3  A    between atoms: C_4  and  C_5 
REMARK    4  A    between atoms: C_5  and  O_6 
REMARK    5  A    between atoms: O_6  and  C_7 
REMARK    6  A    between atoms: N_15  and  N_16 
REMARK       I    between atoms: N_16  and  C_17 
REMARK    7  A    between atoms: C_17  and  C_19 
REMARK    8  A    between atoms: C_19  and  C_20 
ROOT
ATOM      1  O   UNL d   1      25.422 -11.448  -6.378  0.00  0.00    -0.272 OA
ATOM      2  C   UNL d   1      26.051 -11.791  -5.375  0.00  0.00     0.236 C 
ATOM      3  N   UNL d   1      25.405 -12.440  -4.350  0.00  0.00    -0.268 N 
ATOM      4  H   UNL d   1      24.402 -12.617  -4.460  0.00  0.00     0.190 HD
ENDROOT
BRANCH   3   5
ATOM      5  N   UNL d   1      25.981 -12.897  -3.150  0.00  0.00    -0.267 N 
ATOM      6  C   UNL d   1      25.586 -14.152  -2.691  0.00  0.00     0.240 C 
ATOM      7  O   UNL d   1      24.772 -14.827  -3.325  0.00  0.00    -0.272 OA
ATOM      8  H   UNL d   1      26.636 -12.311  -2.648  0.00  0.00     0.190 HD
BRANCH   6   9
ATOM      9  C   UNL d   1      26.239 -14.592  -1.376  0.00  0.00     0.145 C 
BRANCH   9  10
ATOM     10  C   UNL d   1      25.985 -16.041  -1.075  0.00  0.00    -0.021 A 
ATOM     11  C   UNL d   1      26.921 -17.044  -0.898  0.00  0.00     0.097 A 
ATOM     12  N   UNL d   1      26.260 -18.187  -0.520  0.00  0.00    -0.365 N 
ATOM     13  C   UNL d   1      24.900 -17.979  -0.537  0.00  0.00     0.042 A 
ATOM     14  H   UNL d   1      26.703 -19.061  -0.268  0.00  0.00     0.165 HD
ATOM     15  C   UNL d   1      23.838 -18.852  -0.262  0.00  0.00     0.030 A 
ATOM     16  C   UNL d   1      24.701 -16.645  -0.891  0.00  0.00    -0.001 A 
ATOM     17  C   UNL d   1      22.537 -18.350  -0.386  0.00  0.00     0.002 A 
ATOM     18  C   UNL d   1      22.310 -17.022  -0.739  0.00  0.00     0.001 A 
ATOM     19  C   UNL d   1      23.382 -16.158  -0.978  0.00  0.00     0.014 A 
ENDBRANCH   9  10
ENDBRANCH   6   9
ENDBRANCH   3   5
BRANCH   2  20
ATOM     20  C   UNL d   1      27.539 -11.523  -5.220  0.00  0.00     0.106 C 
BRANCH  20  21
ATOM     21  C   UNL d   1      28.385 -12.799  -5.326  0.00  0.00     0.036 C 
BRANCH  21  22
ATOM     22  C   UNL d   1      27.847 -13.760  -6.391  0.00  0.00     0.176 C 
BRANCH  22  23
ATOM     23  O   UNL d   1      27.538 -15.013  -5.769  0.00  0.00    -0.348 OA
BRANCH  23  24
ATOM     24  C   UNL d   1      28.540 -15.578  -5.023  0.00  0.00     0.107 A 
ATOM     25  C   UNL d   1      28.467 -15.774  -3.640  0.00  0.00     0.043 A 
ATOM     26  C   UNL d   1      29.495 -16.451  -2.973  0.00  0.00     0.045 A 
ATOM     27  C   UNL d   1      30.588 -16.933  -3.688  0.00  0.00     0.119 A 
ATOM     28  F   UNL d   1      31.557 -17.594  -3.041  0.00  0.00    -0.206 F 
ATOM     29  C   UNL d   1      30.681 -16.746  -5.057  0.00  0.00     0.087 A 
ATOM     30  C   UNL d   1      29.652 -16.077  -5.716  0.00  0.00     0.152 A 
ATOM     31  F   UNL d   1      29.751 -15.904  -7.043  0.00  0.00    -0.203 F 
ENDBRANCH  23  24
ENDBRANCH  22  23
ENDBRANCH  21  22
ENDBRANCH  20  21
ENDBRANCH   2  20
TORSDOF 8
ENDMDL
MODEL 4
REMARK VINA RESULT:    -5.974      7.496      9.636
REMARK INTER + INTRA:         -10.992
REMARK INTER:                  -8.361
REMARK INTRA:                  -2.631
REMARK CONF_INDEPENDENT:        2.386
REMARK UNBOUND:                -2.631
REMARK  8 active torsions:
REMARK  status: ('A' for Active; 'I' for Inactive)
REMARK    1  A    between atoms: C_2  and  C_3 
REMARK       I    between atoms: C_2  and  N_15 
REMARK    2  A    between atoms: C_3  and  C_4 
REMARK    3  A    between atoms: C_4  and  C_5 
REMARK    4  A    between atoms: C_5  and  O_6 
REMARK    5  A    between atoms: O_6  and  C_7 
REMARK    6  A    between atoms: N_15  and  N_16 
REMARK       I    between atoms: N_16  and  C_17 
REMARK    7  A    between atoms: C_17  and  C_19 
REMARK    8  A    between atoms: C_19  and  C_20 
ROOT
ATOM      1  O   UNL d   1      25.581  -9.485  -4.237  0.00  0.00    -0.272 OA
ATOM      2  C   UNL d   1      26.207 -10.546  -4.275  0.00  0.00     0.236 C 
ATOM      3  N   UNL d   1      25.530 -11.741  -4.218  0.00  0.00    -0.268 N 
ATOM      4  H   UNL d   1      24.510 -11.704  -4.142  0.00  0.00     0.190 HD
ENDROOT
BRANCH   3   5
ATOM      5  N   UNL d   1      26.096 -13.029  -4.255  0.00  0.00    -0.267 N 
ATOM      6  C   UNL d   1      25.234 -14.109  -4.078  0.00  0.00     0.240 C 
ATOM      7  O   UNL d   1      24.027 -13.930  -3.906  0.00  0.00    -0.272 OA
ATOM      8  H   UNL d   1      27.094 -13.140  -4.385  0.00  0.00     0.190 HD
BRANCH   6   9
ATOM      9  C   UNL d   1      25.909 -15.485  -4.119  0.00  0.00     0.145 C 
BRANCH   9  10
ATOM     10  C   UNL d   1      26.386 -15.922  -2.764  0.00  0.00    -0.021 A 
ATOM     11  C   UNL d   1      27.586 -15.614  -2.150  0.00  0.00     0.097 A 
ATOM     12  N   UNL d   1      27.558 -16.118  -0.872  0.00  0.00    -0.365 N 
ATOM     13  C   UNL d   1      26.400 -16.832  -0.667  0.00  0.00     0.042 A 
ATOM     14  H   UNL d   1      28.283 -15.989  -0.179  0.00  0.00     0.165 HD
ATOM     15  C   UNL d   1      25.952 -17.544   0.454  0.00  0.00     0.030 A 
ATOM     16  C   UNL d   1      25.652 -16.734  -1.840  0.00  0.00    -0.001 A 
ATOM     17  C   UNL d   1      24.719 -18.199   0.356  0.00  0.00     0.002 A 
ATOM     18  C   UNL d   1      23.953 -18.118  -0.804  0.00  0.00     0.001 A 
ATOM     19  C   UNL d   1      24.401 -17.377  -1.900  0.00  0.00     0.014 A 
ENDBRANCH   9  10
ENDBRANCH   6   9
ENDBRANCH   3   5
BRANCH   2  20
ATOM     20  C   UNL d   1      27.722 -10.591  -4.386  0.00  0.00     0.106 C 
BRANCH  20  21
ATOM     21  C   UNL d   1      28.203 -11.399  -5.598  0.00  0.00     0.036 C 
BRANCH  21  22
ATOM     22  C   UNL d   1      29.145 -12.539  -5.194  0.00  0.00     0.176 C 
BRANCH  22  23
ATOM     23  O   UNL d   1      28.465 -13.786  -5.375  0.00  0.00    -0.348 OA
BRANCH  23  24
ATOM     24  C   UNL d   1      29.257 -14.868  -5.663  0.00  0.00     0.107 A 
ATOM     25  C   UNL d   1      29.276 -16.043  -4.905  0.00  0.00     0.043 A 
ATOM     26  C   UNL d   1      30.040 -17.137  -5.329  0.00  0.00     0.045 A 
ATOM     27  C   UNL d   1      30.777 -17.056  -6.506  0.00  0.00     0.119 A 
ATOM     28  F   UNL d   1      31.492 -18.115  -6.910  0.00  0.00    -0.206 F 
ATOM     29  C   UNL d   1      30.775 -15.899  -7.269  0.00  0.00     0.087 A 
ATOM     30  C   UNL d   1      30.008 -14.817  -6.845  0.00  0.00     0.152 A 
ATOM     31  F   UNL d   1      30.009 -13.702  -7.593  0.00  0.00    -0.203 F 
ENDBRANCH  23  24
ENDBRANCH  22  23
ENDBRANCH  21  22
ENDBRANCH  20  21
ENDBRANCH   2  20
TORSDOF 8
ENDMDL
MODEL 5
REMARK VINA RESULT:    -5.974      7.114      8.737
REMARK INTER + INTRA:         -11.413
REMARK INTER:                  -8.360
REMARK INTRA:                  -3.053
REMARK CONF_INDEPENDENT:        2.386
REMARK UNBOUND:                -3.053
REMARK  8 active torsions:
REMARK  status: ('A' for Active; 'I' for Inactive)
REMARK    1  A    between atoms: C_2  and  C_3 
REMARK       I    between atoms: C_2  and  N_15 
REMARK    2  A    between atoms: C_3  and  C_4 
REMARK    3  A    between atoms: C_4  and  C_5 
REMARK    4  A    between atoms: C_5  and  O_6 
REMARK    5  A    between atoms: O_6  and  C_7 
REMARK    6  A    between atoms: N_15  and  N_16 
REMARK       I    between atoms: N_16  and  C_17 
REMARK    7  A    between atoms: C_17  and  C_19 
REMARK    8  A    between atoms: C_19  and  C_20 
ROOT
ATOM      1  O   UNL d   1      32.525 -16.747  -4.972  0.00  0.00    -0.272 OA
ATOM      2  C   UNL d   1      31.314 -16.562  -4.834  0.00  0.00     0.236 C 
ATOM      3  N   UNL d   1      30.802 -16.279  -3.591  0.00  0.00    -0.268 N 
ATOM      4  H   UNL d   1      31.460 -16.233  -2.808  0.00  0.00     0.190 HD
ENDROOT
BRANCH   3   5
ATOM      5  N   UNL d   1      29.452 -16.040  -3.273  0.00  0.00    -0.267 N 
ATOM      6  C   UNL d   1      29.154 -15.739  -1.945  0.00  0.00     0.240 C 
ATOM      7  O   UNL d   1      30.047 -15.680  -1.097  0.00  0.00    -0.272 OA
ATOM      8  H   UNL d   1      28.743 -16.110  -3.992  0.00  0.00     0.190 HD
BRANCH   6   9
ATOM      9  C   UNL d   1      27.668 -15.498  -1.658  0.00  0.00     0.145 C 
BRANCH   9  10
ATOM     10  C   UNL d   1      27.036 -16.654  -0.938  0.00  0.00    -0.021 A 
ATOM     11  C   UNL d   1      27.665 -17.623  -0.176  0.00  0.00     0.097 A 
ATOM     12  N   UNL d   1      26.700 -18.414   0.397  0.00  0.00    -0.365 N 
ATOM     13  C   UNL d   1      25.452 -18.043  -0.050  0.00  0.00     0.042 A 
ATOM     14  H   UNL d   1      26.874 -19.166   1.050  0.00  0.00     0.165 HD
ATOM     15  C   UNL d   1      24.186 -18.575   0.230  0.00  0.00     0.030 A 
ATOM     16  C   UNL d   1      25.635 -16.949  -0.895  0.00  0.00    -0.001 A 
ATOM     17  C   UNL d   1      23.082 -17.989  -0.401  0.00  0.00     0.002 A 
ATOM     18  C   UNL d   1      23.238 -16.896  -1.251  0.00  0.00     0.001 A 
ATOM     19  C   UNL d   1      24.504 -16.359  -1.491  0.00  0.00     0.014 A 
ENDBRANCH   9  10
ENDBRANCH   6   9
ENDBRANCH   3   5
BRANCH   2  20
ATOM     20  C   UNL d   1      30.345 -16.635  -6.003  0.00  0.00     0.106 C 
BRANCH  20  21
ATOM     21  C   UNL d   1      30.270 -15.322  -6.792  0.00  0.00     0.036 C 
BRANCH  21  22
ATOM     22  C   UNL d   1      28.830 -14.817  -6.936  0.00  0.00     0.176 C 
BRANCH  22  23
ATOM     23  O   UNL d   1      28.028 -15.407  -5.907  0.00  0.00    -0.348 OA
BRANCH  23  24
ATOM     24  C   UNL d   1      27.393 -14.532  -5.062  0.00  0.00     0.107 A 
ATOM     25  C   UNL d   1      27.939 -13.313  -4.649  0.00  0.00     0.043 A 
ATOM     26  C   UNL d   1      27.178 -12.434  -3.867  0.00  0.00     0.045 A 
ATOM     27  C   UNL d   1      25.878 -12.775  -3.505  0.00  0.00     0.119 A 
ATOM     28  F   UNL d   1      25.155 -11.919  -2.770  0.00  0.00    -0.206 F 
ATOM     29  C   UNL d   1      25.321 -13.979  -3.901  0.00  0.00     0.087 A 
ATOM     30  C   UNL d   1      26.081 -14.846  -4.684  0.00  0.00     0.152 A 
ATOM     31  F   UNL d   1      25.530 -16.009  -5.065  0.00  0.00    -0.203 F 
ENDBRANCH  23  24
ENDBRANCH  22  23
ENDBRANCH  21  22
ENDBRANCH  20  21
ENDBRANCH   2  20
TORSDOF 8
ENDMDL
MODEL 6
REMARK VINA RESULT:    -5.932      4.616      8.781
REMARK INTER + INTRA:         -10.994
REMARK INTER:                  -8.318
REMARK INTRA:                  -2.675
REMARK CONF_INDEPENDENT:        2.386
REMARK UNBOUND:                -2.675
REMARK  8 active torsions:
REMARK  status: ('A' for Active; 'I' for Inactive)
REMARK    1  A    between atoms: C_2  and  C_3 
REMARK       I    between atoms: C_2  and  N_15 
REMARK    2  A    between atoms: C_3  and  C_4 
REMARK    3  A    between atoms: C_4  and  C_5 
REMARK    4  A    between atoms: C_5  and  O_6 
REMARK    5  A    between atoms: O_6  and  C_7 
REMARK    6  A    between atoms: N_15  and  N_16 
REMARK       I    between atoms: N_16  and  C_17 
REMARK    7  A    between atoms: C_17  and  C_19 
REMARK    8  A    between atoms: C_19  and  C_20 
ROOT
ATOM      1  O   UNL d   1      25.524  -9.601  -3.086  0.00  0.00    -0.272 OA
ATOM      2  C   UNL d   1      26.075 -10.701  -3.005  0.00  0.00     0.236 C 
ATOM      3  N   UNL d   1      25.570 -11.773  -3.702  0.00  0.00    -0.268 N 
ATOM      4  H   UNL d   1      24.736 -11.615  -4.273  0.00  0.00     0.190 HD
ENDROOT
BRANCH   3   5
ATOM      5  N   UNL d   1      26.086 -13.083  -3.716  0.00  0.00    -0.267 N 
ATOM      6  C   UNL d   1      25.197 -14.113  -4.018  0.00  0.00     0.240 C 
ATOM      7  O   UNL d   1      24.015 -13.872  -4.269  0.00  0.00    -0.272 OA
ATOM      8  H   UNL d   1      27.059 -13.246  -3.492  0.00  0.00     0.190 HD
BRANCH   6   9
ATOM      9  C   UNL d   1      25.813 -15.517  -4.009  0.00  0.00     0.145 C 
BRANCH   9  10
ATOM     10  C   UNL d   1      26.340 -15.895  -2.655  0.00  0.00    -0.021 A 
ATOM     11  C   UNL d   1      27.531 -15.503  -2.071  0.00  0.00     0.097 A 
ATOM     12  N   UNL d   1      27.557 -15.980  -0.783  0.00  0.00    -0.365 N 
ATOM     13  C   UNL d   1      26.448 -16.757  -0.541  0.00  0.00     0.042 A 
ATOM     14  H   UNL d   1      28.285 -15.794  -0.107  0.00  0.00     0.165 HD
ATOM     15  C   UNL d   1      26.064 -17.470   0.603  0.00  0.00     0.030 A 
ATOM     16  C   UNL d   1      25.674 -16.729  -1.701  0.00  0.00    -0.001 A 
ATOM     17  C   UNL d   1      24.871 -18.200   0.543  0.00  0.00     0.002 A 
ATOM     18  C   UNL d   1      24.079 -18.189  -0.604  0.00  0.00     0.001 A 
ATOM     19  C   UNL d   1      24.462 -17.446  -1.723  0.00  0.00     0.014 A 
ENDBRANCH   9  10
ENDBRANCH   6   9
ENDBRANCH   3   5
BRANCH   2  20
ATOM     20  C   UNL d   1      27.313 -10.926  -2.152  0.00  0.00     0.106 C 
BRANCH  20  21
ATOM     21  C   UNL d   1      27.094 -11.978  -1.057  0.00  0.00     0.036 C 
BRANCH  21  22
ATOM     22  C   UNL d   1      28.394 -12.327  -0.325  0.00  0.00     0.176 C 
BRANCH  22  23
ATOM     23  O   UNL d   1      28.281 -13.651   0.211  0.00  0.00    -0.348 OA
BRANCH  23  24
ATOM     24  C   UNL d   1      28.219 -13.744   1.577  0.00  0.00     0.107 A 
ATOM     25  C   UNL d   1      27.067 -13.480   2.326  0.00  0.00     0.043 A 
ATOM     26  C   UNL d   1      27.065 -13.699   3.709  0.00  0.00     0.045 A 
ATOM     27  C   UNL d   1      28.209 -14.184   4.337  0.00  0.00     0.119 A 
ATOM     28  F   UNL d   1      28.189 -14.405   5.658  0.00  0.00    -0.206 F 
ATOM     29  C   UNL d   1      29.360 -14.449   3.615  0.00  0.00     0.087 A 
ATOM     30  C   UNL d   1      29.354 -14.234   2.238  0.00  0.00     0.152 A 
ATOM     31  F   UNL d   1      30.474 -14.497   1.547  0.00  0.00    -0.203 F 
ENDBRANCH  23  24
ENDBRANCH  22  23
ENDBRANCH  21  22
ENDBRANCH  20  21
ENDBRANCH   2  20
TORSDOF 8
ENDMDL
MODEL 7
REMARK VINA RESULT:    -5.848      5.968      8.840
REMARK INTER + INTRA:         -11.392
REMARK INTER:                  -8.235
REMARK INTRA:                  -3.158
REMARK CONF_INDEPENDENT:        2.386
REMARK UNBOUND:                -3.158
REMARK  8 active torsions:
REMARK  status: ('A' for Active; 'I' for Inactive)
REMARK    1  A    between atoms: C_2  and  C_3 
REMARK       I    between atoms: C_2  and  N_15 
REMARK    2  A    between atoms: C_3  and  C_4 
REMARK    3  A    between atoms: C_4  and  C_5 
REMARK    4  A    between atoms: C_5  and  O_6 
REMARK    5  A    between atoms: O_6  and  C_7 
REMARK    6  A    between atoms: N_15  and  N_16 
REMARK       I    between atoms: N_16  and  C_17 
REMARK    7  A    between atoms: C_17  and  C_19 
REMARK    8  A    between atoms: C_19  and  C_20 
ROOT
ATOM      1  O   UNL d   1      29.179 -15.328  -6.907  0.00  0.00    -0.272 OA
ATOM      2  C   UNL d   1      28.937 -15.258  -5.701  0.00  0.00     0.236 C 
ATOM      3  N   UNL d   1      27.643 -15.083  -5.271  0.00  0.00    -0.268 N 
ATOM      4  H   UNL d   1      26.913 -15.014  -5.985  0.00  0.00     0.190 HD
ENDROOT
BRANCH   3   5
ATOM      5  N   UNL d   1      27.207 -14.990  -3.936  0.00  0.00    -0.267 N 
ATOM      6  C   UNL d   1      25.844 -14.796  -3.724  0.00  0.00     0.240 C 
ATOM      7  O   UNL d   1      25.063 -14.720  -4.674  0.00  0.00    -0.272 OA
ATOM      8  H   UNL d   1      27.878 -15.043  -3.180  0.00  0.00     0.190 HD
BRANCH   6   9
ATOM      9  C   UNL d   1      25.430 -14.693  -2.251  0.00  0.00     0.145 C 
BRANCH   9  10
ATOM     10  C   UNL d   1      25.479 -16.023  -1.556  0.00  0.00    -0.021 A 
ATOM     11  C   UNL d   1      26.597 -16.774  -1.243  0.00  0.00     0.097 A 
ATOM     12  N   UNL d   1      26.195 -17.858  -0.502  0.00  0.00    -0.365 N 
ATOM     13  C   UNL d   1      24.823 -17.884  -0.403  0.00  0.00     0.042 A 
ATOM     14  H   UNL d   1      26.813 -18.544  -0.091  0.00  0.00     0.165 HD
ATOM     15  C   UNL d   1      23.969 -18.806   0.220  0.00  0.00     0.030 A 
ATOM     16  C   UNL d   1      24.349 -16.751  -1.063  0.00  0.00    -0.001 A 
ATOM     17  C   UNL d   1      22.592 -18.574   0.134  0.00  0.00     0.002 A 
ATOM     18  C   UNL d   1      22.091 -17.450  -0.520  0.00  0.00     0.001 A 
ATOM     19  C   UNL d   1      22.959 -16.526  -1.106  0.00  0.00     0.014 A 
ENDBRANCH   9  10
ENDBRANCH   6   9
ENDBRANCH   3   5
BRANCH   2  20
ATOM     20  C   UNL d   1      30.028 -15.361  -4.648  0.00  0.00     0.106 C 
BRANCH  20  21
ATOM     21  C   UNL d   1      29.880 -16.603  -3.760  0.00  0.00     0.036 C 
BRANCH  21  22
ATOM     22  C   UNL d   1      29.870 -16.248  -2.269  0.00  0.00     0.176 C 
BRANCH  22  23
ATOM     23  O   UNL d   1      29.489 -14.875  -2.124  0.00  0.00    -0.348 OA
BRANCH  23  24
ATOM     24  C   UNL d   1      28.815 -14.556  -0.973  0.00  0.00     0.107 A 
ATOM     25  C   UNL d   1      28.924 -15.278   0.220  0.00  0.00     0.043 A 
ATOM     26  C   UNL d   1      28.279 -14.822   1.376  0.00  0.00     0.045 A 
ATOM     27  C   UNL d   1      27.533 -13.648   1.338  0.00  0.00     0.119 A 
ATOM     28  F   UNL d   1      26.934 -13.213   2.454  0.00  0.00    -0.206 F 
ATOM     29  C   UNL d   1      27.410 -12.920   0.166  0.00  0.00     0.087 A 
ATOM     30  C   UNL d   1      28.059 -13.376  -0.979  0.00  0.00     0.152 A 
ATOM     31  F   UNL d   1      27.937 -12.661  -2.109  0.00  0.00    -0.203 F 
ENDBRANCH  23  24
ENDBRANCH  22  23
ENDBRANCH  21  22
ENDBRANCH  20  21
ENDBRANCH   2  20
TORSDOF 8
ENDMDL
MODEL 8
REMARK VINA RESULT:    -5.725      6.569      8.220
REMARK INTER + INTRA:         -10.931
REMARK INTER:                  -8.111
REMARK INTRA:                  -2.819
REMARK CONF_INDEPENDENT:        2.386
REMARK UNBOUND:                -2.819
REMARK  8 active torsions:
REMARK  status: ('A' for Active; 'I' for Inactive)
REMARK    1  A    between atoms: C_2  and  C_3 
REMARK       I    between atoms: C_2  and  N_15 
REMARK    2  A    between atoms: C_3  and  C_4 
REMARK    3  A    between atoms: C_4  and  C_5 
REMARK    4  A    between atoms: C_5  and  O_6 
REMARK    5  A    between atoms: O_6  and  C_7 
REMARK    6  A    between atoms: N_15  and  N_16 
REMARK       I    between atoms: N_16  and  C_17 
REMARK    7  A    between atoms: C_17  and  C_19 
REMARK    8  A    between atoms: C_19  and  C_20 
ROOT
ATOM      1  O   UNL d   1      31.188 -13.694  -4.765  0.00  0.00    -0.272 OA
ATOM      2  C   UNL d   1      30.328 -14.259  -4.086  0.00  0.00     0.236 C 
ATOM      3  N   UNL d   1      29.483 -13.516  -3.296  0.00  0.00    -0.268 N 
ATOM      4  H   UNL d   1      29.604 -12.499  -3.299  0.00  0.00     0.190 HD
ENDROOT
BRANCH   3   5
ATOM      5  N   UNL d   1      28.454 -14.009  -2.472  0.00  0.00    -0.267 N 
ATOM      6  C   UNL d   1      27.853 -13.107  -1.596  0.00  0.00     0.240 C 
ATOM      7  O   UNL d   1      28.210 -11.929  -1.561  0.00  0.00    -0.272 OA
ATOM      8  H   UNL d   1      28.194 -14.986  -2.517  0.00  0.00     0.190 HD
BRANCH   6   9
ATOM      9  C   UNL d   1      26.746 -13.704  -0.718  0.00  0.00     0.145 C 
BRANCH   9  10
ATOM     10  C   UNL d   1      26.984 -15.155  -0.416  0.00  0.00    -0.021 A 
ATOM     11  C   UNL d   1      28.173 -15.758  -0.047  0.00  0.00     0.097 A 
ATOM     12  N   UNL d   1      27.914 -17.073   0.252  0.00  0.00    -0.365 N 
ATOM     13  C   UNL d   1      26.596 -17.370  -0.006  0.00  0.00     0.042 A 
ATOM     14  H   UNL d   1      28.593 -17.735   0.605  0.00  0.00     0.165 HD
ATOM     15  C   UNL d   1      25.890 -18.575   0.114  0.00  0.00     0.030 A 
ATOM     16  C   UNL d   1      25.993 -16.188  -0.434  0.00  0.00    -0.001 A 
ATOM     17  C   UNL d   1      24.538 -18.573  -0.248  0.00  0.00     0.002 A 
ATOM     18  C   UNL d   1      23.911 -17.406  -0.680  0.00  0.00     0.001 A 
ATOM     19  C   UNL d   1      24.623 -16.207  -0.761  0.00  0.00     0.014 A 
ENDBRANCH   9  10
ENDBRANCH   6   9
ENDBRANCH   3   5
BRANCH   2  20
ATOM     20  C   UNL d   1      30.158 -15.769  -4.085  0.00  0.00     0.106 C 
BRANCH  20  21
ATOM     21  C   UNL d   1      29.627 -16.305  -5.421  0.00  0.00     0.036 C 
BRANCH  21  22
ATOM     22  C   UNL d   1      29.006 -15.199  -6.281  0.00  0.00     0.176 C 
BRANCH  22  23
ATOM     23  O   UNL d   1      27.588 -15.200  -6.082  0.00  0.00    -0.348 OA
BRANCH  23  24
ATOM     24  C   UNL d   1      27.075 -14.130  -5.396  0.00  0.00     0.107 A 
ATOM     25  C   UNL d   1      27.496 -12.809  -5.583  0.00  0.00     0.043 A 
ATOM     26  C   UNL d   1      26.847 -11.765  -4.913  0.00  0.00     0.045 A 
ATOM     27  C   UNL d   1      25.779 -12.042  -4.064  0.00  0.00     0.119 A 
ATOM     28  F   UNL d   1      25.155 -11.033  -3.442  0.00  0.00    -0.206 F 
ATOM     29  C   UNL d   1      25.349 -13.343  -3.863  0.00  0.00     0.087 A 
ATOM     30  C   UNL d   1      25.995 -14.376  -4.537  0.00  0.00     0.152 A 
ATOM     31  F   UNL d   1      25.568 -15.633  -4.338  0.00  0.00    -0.203 F 
ENDBRANCH  23  24
ENDBRANCH  22  23
ENDBRANCH  21  22
ENDBRANCH  20  21
ENDBRANCH   2  20
TORSDOF 8
ENDMDL
MODEL 9
REMARK VINA RESULT:    -5.602      7.383      9.391
REMARK INTER + INTRA:         -10.980
REMARK INTER:                  -7.989
REMARK INTRA:                  -2.991
REMARK CONF_INDEPENDENT:        2.386
REMARK UNBOUND:                -2.991
REMARK  8 active torsions:
REMARK  status: ('A' for Active; 'I' for Inactive)
REMARK    1  A    between atoms: C_2  and  C_3 
REMARK       I    between atoms: C_2  and  N_15 
REMARK    2  A    between atoms: C_3  and  C_4 
REMARK    3  A    between atoms: C_4  and  C_5 
REMARK    4  A    between atoms: C_5  and  O_6 
REMARK    5  A    between atoms: O_6  and  C_7 
REMARK    6  A    between atoms: N_15  and  N_16 
REMARK       I    between atoms: N_16  and  C_17 
REMARK    7  A    between atoms: C_17  and  C_19 
REMARK    8  A    between atoms: C_19  and  C_20 
ROOT
ATOM      1  O   UNL d   1      25.415  -9.531  -3.225  0.00  0.00    -0.272 OA
ATOM      2  C   UNL d   1      26.043 -10.592  -3.216  0.00  0.00     0.236 C 
ATOM      3  N   UNL d   1      25.515 -11.704  -3.826  0.00  0.00    -0.268 N 
ATOM      4  H   UNL d   1      24.600 -11.609  -4.274  0.00  0.00     0.190 HD
ENDROOT
BRANCH   3   5
ATOM      5  N   UNL d   1      26.108 -12.979  -3.906  0.00  0.00    -0.267 N 
ATOM      6  C   UNL d   1      25.257 -14.065  -4.104  0.00  0.00     0.240 C 
ATOM      7  O   UNL d   1      24.041 -13.900  -4.213  0.00  0.00    -0.272 OA
ATOM      8  H   UNL d   1      27.109 -13.079  -3.799  0.00  0.00     0.190 HD
BRANCH   6   9
ATOM      9  C   UNL d   1      25.958 -15.427  -4.173  0.00  0.00     0.145 C 
BRANCH   9  10
ATOM     10  C   UNL d   1      26.418 -15.895  -2.822  0.00  0.00    -0.021 A 
ATOM     11  C   UNL d   1      27.620 -15.618  -2.196  0.00  0.00     0.097 A 
ATOM     12  N   UNL d   1      27.575 -16.142  -0.927  0.00  0.00    -0.365 N 
ATOM     13  C   UNL d   1      26.404 -16.840  -0.742  0.00  0.00     0.042 A 
ATOM     14  H   UNL d   1      28.298 -16.038  -0.228  0.00  0.00     0.165 HD
ATOM     15  C   UNL d   1      25.937 -17.563   0.365  0.00  0.00     0.030 A 
ATOM     16  C   UNL d   1      25.666 -16.709  -1.917  0.00  0.00    -0.001 A 
ATOM     17  C   UNL d   1      24.693 -18.196   0.248  0.00  0.00     0.002 A 
ATOM     18  C   UNL d   1      23.936 -18.082  -0.915  0.00  0.00     0.001 A 
ATOM     19  C   UNL d   1      24.403 -17.329  -1.995  0.00  0.00     0.014 A 
ENDBRANCH   9  10
ENDBRANCH   6   9
ENDBRANCH   3   5
BRANCH   2  20
ATOM     20  C   UNL d   1      27.401 -10.724  -2.547  0.00  0.00     0.106 C 
BRANCH  20  21
ATOM     21  C   UNL d   1      28.562 -10.384  -3.490  0.00  0.00     0.036 C 
BRANCH  21  22
ATOM     22  C   UNL d   1      28.795 -11.480  -4.536  0.00  0.00     0.176 C 
BRANCH  22  23
ATOM     23  O   UNL d   1      28.781 -12.753  -3.882  0.00  0.00    -0.348 OA
BRANCH  23  24
ATOM     24  C   UNL d   1      29.268 -13.809  -4.608  0.00  0.00     0.107 A 
ATOM     25  C   UNL d   1      30.285 -14.659  -4.162  0.00  0.00     0.043 A 
ATOM     26  C   UNL d   1      30.652 -15.774  -4.925  0.00  0.00     0.045 A 
ATOM     27  C   UNL d   1      30.001 -16.038  -6.127  0.00  0.00     0.119 A 
ATOM     28  F   UNL d   1      30.349 -17.117  -6.840  0.00  0.00    -0.206 F 
ATOM     29  C   UNL d   1      28.993 -15.207  -6.588  0.00  0.00     0.087 A 
ATOM     30  C   UNL d   1      28.630 -14.103  -5.821  0.00  0.00     0.152 A 
ATOM     31  F   UNL d   1      27.650 -13.306  -6.275  0.00  0.00    -0.203 F 
ENDBRANCH  23  24
ENDBRANCH  22  23
ENDBRANCH  21  22
ENDBRANCH  20  21
ENDBRANCH   2  20
TORSDOF 8
ENDMDL
