MODEL 1
REMARK VINA RESULT:   -25.032      0.000      0.000
REMARK INTER + INTRA:         -27.663
REMARK INTER:                 -26.225
REMARK INTRA:                  -1.438
REMARK CONF_INDEPENDENT:        1.193
REMARK UNBOUND:                -1.438
REMARK  4 active torsions:
REMARK  status: ('A' for Active; 'I' for Inactive)
REMARK    1  A    between atoms: N_1  and  N_2 
REMARK       I    between atoms: N_2  and  C_3 
REMARK    2  A    between atoms: C_3  and  C_5 
REMARK    3  A    between atoms: C_10  and  N_11 
REMARK       I    between atoms: N_11  and  C_12 
REMARK    4  A    between atoms: C_12  and  C_14 
ROOT
ATOM      1  C   UNL d   1      23.344 -17.439  -0.268  0.00  0.00     0.060 A 
ATOM      2  C   UNL d   1      23.578 -18.407   0.728  0.00  0.00     0.019 A 
ATOM      3  C   UNL d   1      24.843 -18.573   1.294  0.00  0.00     0.001 A 
ATOM      4  C   UNL d   1      25.910 -17.814   0.829  0.00  0.00     0.002 A 
ATOM      5  C   UNL d   1      25.702 -16.851  -0.169  0.00  0.00     0.030 A 
ATOM      6  C   UNL d   1      24.421 -16.631  -0.719  0.00  0.00     0.050 A 
ENDROOT
BRANCH   6   7
ATOM      7  N   UNL d   1      24.315 -15.607  -1.712  0.00  0.00    -0.322 N 
ATOM      8  C   UNL d   1      25.356 -15.310  -2.577  0.00  0.00     0.262 C 
ATOM      9  O   UNL d   1      26.255 -16.104  -2.799  0.00  0.00    -0.267 OA
ATOM     10  H   UNL d   1      23.385 -15.321  -2.000  0.00  0.00     0.169 HD
BRANCH   8  11
ATOM     11  C   UNL d   1      25.426 -13.989  -3.244  0.00  0.00     0.109 A 
ATOM     12  C   UNL d   1      25.330 -13.987  -4.645  0.00  0.00     0.135 A 
ATOM     13  F   UNL d   1      25.155 -15.117  -5.346  0.00  0.00    -0.205 F 
ATOM     14  C   UNL d   1      25.414 -12.818  -5.388  0.00  0.00     0.043 A 
ATOM     15  C   UNL d   1      25.526 -11.603  -4.732  0.00  0.00     0.006 A 
ATOM     16  C   UNL d   1      25.668 -11.580  -3.341  0.00  0.00     0.043 A 
ATOM     17  C   UNL d   1      25.649 -12.773  -2.606  0.00  0.00     0.135 A 
ATOM     18  F   UNL d   1      25.842 -12.705  -1.279  0.00  0.00    -0.205 F 
ENDBRANCH   8  11
ENDBRANCH   6   7
BRANCH   1  19
ATOM     19  C   UNL d   1      21.911 -17.321  -0.696  0.00  0.00     0.268 C 
ATOM     20  N   UNL d   1      21.072 -18.416  -0.429  0.00  0.00    -0.290 N 
ATOM     21  H   UNL d   1      21.515 -19.250  -0.059  0.00  0.00     0.183 HD
ATOM     22  O   UNL d   1      21.549 -16.298  -1.273  0.00  0.00    -0.266 OA
BRANCH  20  23
ATOM     23  N   UNL d   1      19.905 -18.577  -1.246  0.00  0.00    -0.247 NA
ATOM     24  H   UNL d   1      20.144 -19.050  -2.117  0.00  0.00     0.143 HD
ATOM     25  H   UNL d   1      19.629 -17.621  -1.534  0.00  0.00     0.143 HD
ENDBRANCH  20  23
ENDBRANCH   1  19
TORSDOF 4
ENDMDL
MODEL 2
REMARK VINA RESULT:   -24.943      0.223      1.809
REMARK INTER + INTRA:         -27.627
REMARK INTER:                 -26.136
REMARK INTRA:                  -1.491
REMARK CONF_INDEPENDENT:        1.193
REMARK UNBOUND:                -1.491
REMARK  4 active torsions:
REMARK  status: ('A' for Active; 'I' for Inactive)
REMARK    1  A    between atoms: N_1  and  N_2 
REMARK       I    between atoms: N_2  and  C_3 
REMARK    2  A    between atoms: C_3  and  C_5 
REMARK    3  A    between atoms: C_10  and  N_11 
REMARK       I    between atoms: N_11  and  C_12 
REMARK    4  A    between atoms: C_12  and  C_14 
ROOT
ATOM      1  C   UNL d   1      23.387 -17.466  -0.222  0.00  0.00     0.060 A 
ATOM      2  C   UNL d   1      23.619 -18.406   0.801  0.00  0.00     0.019 A 
ATOM      3  C   UNL d   1      24.890 -18.574   1.354  0.00  0.00     0.001 A 
ATOM      4  C   UNL d   1      25.962 -17.846   0.851  0.00  0.00     0.002 A 
ATOM      5  C   UNL d   1      25.754 -16.912  -0.174  0.00  0.00     0.030 A 
ATOM      6  C   UNL d   1      24.469 -16.689  -0.713  0.00  0.00     0.050 A 
ENDROOT
BRANCH   6   7
ATOM      7  N   UNL d   1      24.365 -15.695  -1.736  0.00  0.00    -0.322 N 
ATOM      8  C   UNL d   1      25.433 -15.369  -2.558  0.00  0.00     0.262 C 
ATOM      9  O   UNL d   1      26.377 -16.124  -2.715  0.00  0.00    -0.267 OA
ATOM     10  H   UNL d   1      23.438 -15.460  -2.076  0.00  0.00     0.169 HD
BRANCH   8  11
ATOM     11  C   UNL d   1      25.474 -14.063  -3.255  0.00  0.00     0.109 A 
ATOM     12  C   UNL d   1      25.769 -12.939  -2.467  0.00  0.00     0.135 A 
ATOM     13  F   UNL d   1      26.029 -13.041  -1.155  0.00  0.00    -0.205 F 
ATOM     14  C   UNL d   1      25.804 -11.657  -2.995  0.00  0.00     0.043 A 
ATOM     15  C   UNL d   1      25.614 -11.478  -4.356  0.00  0.00     0.006 A 
ATOM     16  C   UNL d   1      25.276 -12.573  -5.156  0.00  0.00     0.043 A 
ATOM     17  C   UNL d   1      25.175 -13.855  -4.598  0.00  0.00     0.135 A 
ATOM     18  F   UNL d   1      24.797 -14.867  -5.395  0.00  0.00    -0.205 F 
ENDBRANCH   8  11
ENDBRANCH   6   7
BRANCH   1  19
ATOM     19  C   UNL d   1      21.949 -17.339  -0.634  0.00  0.00     0.268 C 
ATOM     20  N   UNL d   1      21.090 -18.393  -0.286  0.00  0.00    -0.290 N 
ATOM     21  H   UNL d   1      21.519 -19.214   0.129  0.00  0.00     0.183 HD
ATOM     22  O   UNL d   1      21.602 -16.344  -1.269  0.00  0.00    -0.266 OA
BRANCH  20  23
ATOM     23  N   UNL d   1      19.905 -18.576  -1.073  0.00  0.00    -0.247 NA
ATOM     24  H   UNL d   1      20.043 -19.321  -1.754  0.00  0.00     0.143 HD
ATOM     25  H   UNL d   1      19.809 -17.715  -1.641  0.00  0.00     0.143 HD
ENDBRANCH  20  23
ENDBRANCH   1  19
TORSDOF 4
ENDMDL
