MODEL 1
REMARK VINA RESULT:    -9.278      0.000      0.000
REMARK INTER + INTRA:         -12.505
REMARK INTER:                 -11.366
REMARK INTRA:                  -1.138
REMARK CONF_INDEPENDENT:        2.088
REMARK UNBOUND:                -1.138
REMARK  7 active torsions:
REMARK  status: ('A' for Active; 'I' for Inactive)
REMARK    1  A    between atoms: C_4  and  C_5 
REMARK    2  A    between atoms: C_19  and  C_20 
REMARK       I    between atoms: C_20  and  N_22 
REMARK    3  A    between atoms: N_22  and  C_23 
REMARK    4  A    between atoms: C_23  and  C_24 
REMARK    5  A    between atoms: C_24  and  N_25 
REMARK       I    between atoms: N_25  and  C_26 
REMARK    6  A    between atoms: C_26  and  O_28 
REMARK    7  A    between atoms: O_28  and  C_29 
ROOT
ATOM      1  C   UNL d   1      31.406 -13.824   2.445  0.00  0.00     0.069 C 
ATOM      2  C   UNL d   1      30.261 -13.945   3.378  0.00  0.00     0.022 A 
ATOM      3  N   UNL d   1      30.534 -14.055   4.717  0.00  0.00    -0.359 N 
ATOM      4  C   UNL d   1      29.388 -14.136   5.446  0.00  0.00     0.040 A 
ATOM      5  C   UNL d   1      28.328 -14.097   4.549  0.00  0.00    -0.018 A 
ATOM      6  C   UNL d   1      26.877 -14.169   4.906  0.00  0.00     0.052 C 
ATOM      7  C   UNL d   1      28.879 -13.978   3.207  0.00  0.00     0.062 A 
ATOM      8  H   UNL d   1      31.471 -14.069   5.105  0.00  0.00     0.166 HD
ENDROOT
BRANCH   7   9
ATOM      9  C   UNL d   1      28.094 -13.909   1.954  0.00  0.00     0.254 C 
ATOM     10  O   UNL d   1      27.361 -12.955   1.701  0.00  0.00    -0.268 OA
ATOM     11  N   UNL d   1      28.207 -14.967   1.068  0.00  0.00    -0.355 N 
ATOM     12  H   UNL d   1      28.810 -15.738   1.292  0.00  0.00     0.162 HD
BRANCH  11  13
ATOM     13  C   UNL d   1      27.471 -14.996  -0.187  0.00  0.00     0.142 C 
BRANCH  13  14
ATOM     14  C   UNL d   1      26.956 -16.389  -0.574  0.00  0.00     0.144 C 
BRANCH  14  15
ATOM     15  N   UNL d   1      25.635 -16.723  -0.046  0.00  0.00    -0.335 N 
ATOM     16  C   UNL d   1      25.296 -18.040   0.155  0.00  0.00     0.361 C 
ATOM     17  O   UNL d   1      26.076 -18.950  -0.097  0.00  0.00    -0.238 OA
ATOM     18  H   UNL d   1      24.956 -16.009   0.178  0.00  0.00     0.164 HD
BRANCH  16  19
ATOM     19  O   UNL d   1      24.030 -18.200   0.653  0.00  0.00    -0.294 OA
BRANCH  19  20
ATOM     20  C   UNL d   1      22.900 -18.065  -0.275  0.00  0.00     0.061 C 
ATOM     21  C   UNL d   1      21.676 -18.843   0.229  0.00  0.00     0.046 C 
ATOM     22  C   UNL d   1      22.557 -16.588  -0.517  0.00  0.00     0.046 C 
ATOM     23  C   UNL d   1      23.286 -18.669  -1.646  0.00  0.00     0.046 C 
ENDBRANCH  19  20
ENDBRANCH  16  19
ENDBRANCH  14  15
ENDBRANCH  13  14
ENDBRANCH  11  13
ENDBRANCH   7   9
BRANCH   4  24
ATOM     24  C   UNL d   1      29.418 -14.240   6.856  0.00  0.00     0.048 C 
ATOM     25  C   UNL d   1      29.027 -13.356   7.784  0.00  0.00     0.047 A 
ATOM     26  C   UNL d   1      28.430 -11.977   7.711  0.00  0.00     0.257 A 
ATOM     27  C   UNL d   1      29.151 -13.672   9.208  0.00  0.00     0.009 A 
ATOM     28  O   UNL d   1      28.160 -11.334   6.710  0.00  0.00    -0.267 OA
ATOM     29  N   UNL d   1      28.247 -11.582   9.031  0.00  0.00    -0.322 N 
ATOM     30  C   UNL d   1      28.668 -12.573   9.922  0.00  0.00     0.046 A 
ATOM     31  H   UNL d   1      27.854 -10.680   9.261  0.00  0.00     0.169 HD
ATOM     32  C   UNL d   1      28.656 -12.575  11.306  0.00  0.00     0.033 A 
ATOM     33  C   UNL d   1      29.144 -13.722  11.958  0.00  0.00     0.044 A 
ATOM     34  C   UNL d   1      29.626 -14.813  11.226  0.00  0.00     0.117 A 
ATOM     35  F   UNL d   1      30.091 -15.896  11.861  0.00  0.00    -0.206 F 
ATOM     36  C   UNL d   1      29.635 -14.801   9.845  0.00  0.00     0.057 A 
ENDBRANCH   4  24
TORSDOF 7
ENDMDL
MODEL 2
REMARK VINA RESULT:    -9.264      7.610     11.615
REMARK INTER + INTRA:         -12.397
REMARK INTER:                 -11.352
REMARK INTRA:                  -1.045
REMARK CONF_INDEPENDENT:        2.088
REMARK UNBOUND:                -1.045
REMARK  7 active torsions:
REMARK  status: ('A' for Active; 'I' for Inactive)
REMARK    1  A    between atoms: C_4  and  C_5 
REMARK    2  A    between atoms: C_19  and  C_20 
REMARK       I    between atoms: C_20  and  N_22 
REMARK    3  A    between atoms: N_22  and  C_23 
REMARK    4  A    between atoms: C_23  and  C_24 
REMARK    5  A    between atoms: C_24  and  N_25 
REMARK       I    between atoms: N_25  and  C_26 
REMARK    6  A    between atoms: C_26  and  O_28 
REMARK    7  A    between atoms: O_28  and  C_29 
ROOT
ATOM      1  C   UNL d   1      27.063 -13.705   0.104  0.00  0.00     0.069 C 
ATOM      2  C   UNL d   1      26.720 -14.005  -1.306  0.00  0.00     0.022 A 
ATOM      3  N   UNL d   1      26.973 -13.041  -2.247  0.00  0.00    -0.359 N 
ATOM      4  C   UNL d   1      26.628 -13.467  -3.492  0.00  0.00     0.040 A 
ATOM      5  C   UNL d   1      26.112 -14.750  -3.357  0.00  0.00    -0.018 A 
ATOM      6  C   UNL d   1      25.595 -15.605  -4.470  0.00  0.00     0.052 C 
ATOM      7  C   UNL d   1      26.162 -15.108  -1.947  0.00  0.00     0.062 A 
ATOM      8  H   UNL d   1      27.371 -12.132  -2.033  0.00  0.00     0.166 HD
ENDROOT
BRANCH   7   9
ATOM      9  C   UNL d   1      25.704 -16.390  -1.366  0.00  0.00     0.254 C 
ATOM     10  O   UNL d   1      26.397 -17.405  -1.410  0.00  0.00    -0.268 OA
ATOM     11  N   UNL d   1      24.456 -16.414  -0.769  0.00  0.00    -0.355 N 
ATOM     12  H   UNL d   1      23.903 -15.576  -0.744  0.00  0.00     0.162 HD
BRANCH  11  13
ATOM     13  C   UNL d   1      23.913 -17.627  -0.176  0.00  0.00     0.142 C 
BRANCH  13  14
ATOM     14  C   UNL d   1      22.845 -18.317  -1.035  0.00  0.00     0.144 C 
BRANCH  14  15
ATOM     15  N   UNL d   1      21.513 -18.365  -0.436  0.00  0.00    -0.335 N 
ATOM     16  C   UNL d   1      20.517 -19.088  -1.048  0.00  0.00     0.361 C 
ATOM     17  O   UNL d   1      20.715 -19.700  -2.091  0.00  0.00    -0.238 OA
ATOM     18  H   UNL d   1      21.298 -17.877   0.423  0.00  0.00     0.164 HD
BRANCH  16  19
ATOM     19  O   UNL d   1      19.325 -19.041  -0.375  0.00  0.00    -0.294 OA
BRANCH  19  20
ATOM     20  C   UNL d   1      19.085 -20.040   0.674  0.00  0.00     0.061 C 
ATOM     21  C   UNL d   1      18.683 -19.367   1.995  0.00  0.00     0.046 C 
ATOM     22  C   UNL d   1      18.029 -21.063   0.231  0.00  0.00     0.046 C 
ATOM     23  C   UNL d   1      20.389 -20.825   0.946  0.00  0.00     0.046 C 
ENDBRANCH  19  20
ENDBRANCH  16  19
ENDBRANCH  14  15
ENDBRANCH  13  14
ENDBRANCH  11  13
ENDBRANCH   7   9
BRANCH   4  24
ATOM     24  C   UNL d   1      26.813 -12.646  -4.629  0.00  0.00     0.048 C 
ATOM     25  C   UNL d   1      27.424 -12.923  -5.789  0.00  0.00     0.047 A 
ATOM     26  C   UNL d   1      28.118 -14.145  -6.325  0.00  0.00     0.257 A 
ATOM     27  C   UNL d   1      27.504 -11.912  -6.844  0.00  0.00     0.009 A 
ATOM     28  O   UNL d   1      28.277 -15.217  -5.766  0.00  0.00    -0.267 OA
ATOM     29  N   UNL d   1      28.544 -13.798  -7.602  0.00  0.00    -0.322 N 
ATOM     30  C   UNL d   1      28.188 -12.484  -7.919  0.00  0.00     0.046 A 
ATOM     31  H   UNL d   1      29.045 -14.453  -8.186  0.00  0.00     0.169 HD
ATOM     32  C   UNL d   1      28.422 -11.764  -9.077  0.00  0.00     0.033 A 
ATOM     33  C   UNL d   1      27.944 -10.442  -9.127  0.00  0.00     0.044 A 
ATOM     34  C   UNL d   1      27.262  -9.884  -8.040  0.00  0.00     0.117 A 
ATOM     35  F   UNL d   1      26.816  -8.623  -8.102  0.00  0.00    -0.206 F 
ATOM     36  C   UNL d   1      27.034 -10.611  -6.888  0.00  0.00     0.057 A 
ENDBRANCH   4  24
TORSDOF 7
ENDMDL
MODEL 3
REMARK VINA RESULT:    -8.870      1.070      1.173
REMARK INTER + INTRA:         -12.049
REMARK INTER:                 -10.958
REMARK INTRA:                  -1.091
REMARK CONF_INDEPENDENT:        2.088
REMARK UNBOUND:                -1.091
REMARK  7 active torsions:
REMARK  status: ('A' for Active; 'I' for Inactive)
REMARK    1  A    between atoms: C_4  and  C_5 
REMARK    2  A    between atoms: C_19  and  C_20 
REMARK       I    between atoms: C_20  and  N_22 
REMARK    3  A    between atoms: N_22  and  C_23 
REMARK    4  A    between atoms: C_23  and  C_24 
REMARK    5  A    between atoms: C_24  and  N_25 
REMARK       I    between atoms: N_25  and  C_26 
REMARK    6  A    between atoms: C_26  and  O_28 
REMARK    7  A    between atoms: O_28  and  C_29 
ROOT
ATOM      1  C   UNL d   1      31.577 -13.413   2.553  0.00  0.00     0.069 C 
ATOM      2  C   UNL d   1      30.412 -13.715   3.417  0.00  0.00     0.022 A 
ATOM      3  N   UNL d   1      30.623 -13.810   4.768  0.00  0.00    -0.359 N 
ATOM      4  C   UNL d   1      29.462 -14.067   5.430  0.00  0.00     0.040 A 
ATOM      5  C   UNL d   1      28.459 -14.164   4.474  0.00  0.00    -0.018 A 
ATOM      6  C   UNL d   1      27.016 -14.450   4.746  0.00  0.00     0.052 C 
ATOM      7  C   UNL d   1      29.061 -13.943   3.167  0.00  0.00     0.062 A 
ATOM      8  H   UNL d   1      31.530 -13.696   5.210  0.00  0.00     0.166 HD
ENDROOT
BRANCH   7   9
ATOM      9  C   UNL d   1      28.345 -13.963   1.872  0.00  0.00     0.254 C 
ATOM     10  O   UNL d   1      27.516 -13.104   1.576  0.00  0.00    -0.268 OA
ATOM     11  N   UNL d   1      28.636 -14.994   0.995  0.00  0.00    -0.355 N 
ATOM     12  H   UNL d   1      29.315 -15.688   1.254  0.00  0.00     0.162 HD
BRANCH  11  13
ATOM     13  C   UNL d   1      27.980 -15.107  -0.299  0.00  0.00     0.142 C 
BRANCH  13  14
ATOM     14  C   UNL d   1      26.450 -15.002  -0.233  0.00  0.00     0.144 C 
BRANCH  14  15
ATOM     15  N   UNL d   1      25.736 -16.238  -0.547  0.00  0.00    -0.335 N 
ATOM     16  C   UNL d   1      24.981 -16.315  -1.693  0.00  0.00     0.361 C 
ATOM     17  O   UNL d   1      24.889 -15.370  -2.467  0.00  0.00    -0.238 OA
ATOM     18  H   UNL d   1      25.780 -17.046   0.059  0.00  0.00     0.164 HD
BRANCH  16  19
ATOM     19  O   UNL d   1      24.371 -17.531  -1.855  0.00  0.00    -0.294 OA
BRANCH  19  20
ATOM     20  C   UNL d   1      23.323 -17.911  -0.900  0.00  0.00     0.061 C 
ATOM     21  C   UNL d   1      23.927 -18.575   0.346  0.00  0.00     0.046 C 
ATOM     22  C   UNL d   1      22.458 -16.701  -0.518  0.00  0.00     0.046 C 
ATOM     23  C   UNL d   1      22.383 -18.950  -1.554  0.00  0.00     0.046 C 
ENDBRANCH  19  20
ENDBRANCH  16  19
ENDBRANCH  14  15
ENDBRANCH  13  14
ENDBRANCH  11  13
ENDBRANCH   7   9
BRANCH   4  24
ATOM     24  C   UNL d   1      29.429 -14.192   6.838  0.00  0.00     0.048 C 
ATOM     25  C   UNL d   1      29.004 -13.318   7.761  0.00  0.00     0.047 A 
ATOM     26  C   UNL d   1      28.423 -11.933   7.682  0.00  0.00     0.257 A 
ATOM     27  C   UNL d   1      29.063 -13.656   9.184  0.00  0.00     0.009 A 
ATOM     28  O   UNL d   1      28.203 -11.273   6.680  0.00  0.00    -0.267 OA
ATOM     29  N   UNL d   1      28.185 -11.556   8.999  0.00  0.00    -0.322 N 
ATOM     30  C   UNL d   1      28.558 -12.564   9.893  0.00  0.00     0.046 A 
ATOM     31  H   UNL d   1      27.790 -10.654   9.225  0.00  0.00     0.169 HD
ATOM     32  C   UNL d   1      28.485 -12.586  11.275  0.00  0.00     0.033 A 
ATOM     33  C   UNL d   1      28.934 -13.746  11.930  0.00  0.00     0.044 A 
ATOM     34  C   UNL d   1      29.439 -14.831  11.204  0.00  0.00     0.117 A 
ATOM     35  F   UNL d   1      29.867 -15.927  11.843  0.00  0.00    -0.206 F 
ATOM     36  C   UNL d   1      29.509 -14.799   9.825  0.00  0.00     0.057 A 
ENDBRANCH   4  24
TORSDOF 7
ENDMDL
MODEL 4
REMARK VINA RESULT:    -7.574      1.483      1.726
REMARK INTER + INTRA:         -12.166
REMARK INTER:                  -9.662
REMARK INTRA:                  -2.504
REMARK CONF_INDEPENDENT:        2.088
REMARK UNBOUND:                -2.504
REMARK  7 active torsions:
REMARK  status: ('A' for Active; 'I' for Inactive)
REMARK    1  A    between atoms: C_4  and  C_5 
REMARK    2  A    between atoms: C_19  and  C_20 
REMARK       I    between atoms: C_20  and  N_22 
REMARK    3  A    between atoms: N_22  and  C_23 
REMARK    4  A    between atoms: C_23  and  C_24 
REMARK    5  A    between atoms: C_24  and  N_25 
REMARK       I    between atoms: N_25  and  C_26 
REMARK    6  A    between atoms: C_26  and  O_28 
REMARK    7  A    between atoms: O_28  and  C_29 
ROOT
ATOM      1  C   UNL d   1      27.108 -10.803   3.054  0.00  0.00     0.069 C 
ATOM      2  C   UNL d   1      27.447 -12.042   3.792  0.00  0.00     0.022 A 
ATOM      3  N   UNL d   1      27.648 -11.948   5.145  0.00  0.00    -0.359 N 
ATOM      4  C   UNL d   1      27.927 -13.165   5.686  0.00  0.00     0.040 A 
ATOM      5  C   UNL d   1      27.928 -14.085   4.645  0.00  0.00    -0.018 A 
ATOM      6  C   UNL d   1      28.200 -15.550   4.774  0.00  0.00     0.052 C 
ATOM      7  C   UNL d   1      27.623 -13.371   3.414  0.00  0.00     0.062 A 
ATOM      8  H   UNL d   1      27.589 -11.080   5.668  0.00  0.00     0.166 HD
ENDROOT
BRANCH   7   9
ATOM      9  C   UNL d   1      27.530 -13.975   2.066  0.00  0.00     0.254 C 
ATOM     10  O   UNL d   1      26.532 -13.834   1.361  0.00  0.00    -0.268 OA
ATOM     11  N   UNL d   1      28.610 -14.716   1.619  0.00  0.00    -0.355 N 
ATOM     12  H   UNL d   1      29.416 -14.821   2.209  0.00  0.00     0.162 HD
BRANCH  11  13
ATOM     13  C   UNL d   1      28.612 -15.356   0.312  0.00  0.00     0.142 C 
BRANCH  13  14
ATOM     14  C   UNL d   1      27.929 -16.730   0.290  0.00  0.00     0.144 C 
BRANCH  14  15
ATOM     15  N   UNL d   1      26.480 -16.697   0.479  0.00  0.00    -0.335 N 
ATOM     16  C   UNL d   1      25.756 -17.863   0.392  0.00  0.00     0.361 C 
ATOM     17  O   UNL d   1      26.295 -18.938   0.160  0.00  0.00    -0.238 OA
ATOM     18  H   UNL d   1      25.988 -15.836   0.672  0.00  0.00     0.164 HD
BRANCH  16  19
ATOM     19  O   UNL d   1      24.413 -17.679   0.590  0.00  0.00    -0.294 OA
BRANCH  19  20
ATOM     20  C   UNL d   1      23.546 -17.591  -0.592  0.00  0.00     0.061 C 
ATOM     21  C   UNL d   1      22.720 -18.873  -0.766  0.00  0.00     0.046 C 
ATOM     22  C   UNL d   1      22.640 -16.353  -0.522  0.00  0.00     0.046 C 
ATOM     23  C   UNL d   1      24.419 -17.440  -1.860  0.00  0.00     0.046 C 
ENDBRANCH  19  20
ENDBRANCH  16  19
ENDBRANCH  14  15
ENDBRANCH  13  14
ENDBRANCH  11  13
ENDBRANCH   7   9
BRANCH   4  24
ATOM     24  C   UNL d   1      28.157 -13.319   7.073  0.00  0.00     0.048 C 
ATOM     25  C   UNL d   1      28.664 -12.446   7.954  0.00  0.00     0.047 A 
ATOM     26  C   UNL d   1      29.164 -11.033   7.838  0.00  0.00     0.257 A 
ATOM     27  C   UNL d   1      28.819 -12.819   9.361  0.00  0.00     0.009 A 
ATOM     28  O   UNL d   1      29.211 -10.339   6.835  0.00  0.00    -0.267 OA
ATOM     29  N   UNL d   1      29.564 -10.674   9.120  0.00  0.00    -0.322 N 
ATOM     30  C   UNL d   1      29.365 -11.719  10.026  0.00  0.00     0.046 A 
ATOM     31  H   UNL d   1      29.944  -9.759   9.316  0.00  0.00     0.169 HD
ATOM     32  C   UNL d   1      29.629 -11.769  11.384  0.00  0.00     0.033 A 
ATOM     33  C   UNL d   1      29.325 -12.964  12.061  0.00  0.00     0.044 A 
ATOM     34  C   UNL d   1      28.780 -14.057  11.378  0.00  0.00     0.117 A 
ATOM     35  F   UNL d   1      28.500 -15.189  12.036  0.00  0.00    -0.206 F 
ATOM     36  C   UNL d   1      28.521 -13.997  10.022  0.00  0.00     0.057 A 
ENDBRANCH   4  24
TORSDOF 7
ENDMDL
MODEL 5
REMARK VINA RESULT:    -7.297      3.637      5.336
REMARK INTER + INTRA:         -11.431
REMARK INTER:                  -9.385
REMARK INTRA:                  -2.047
REMARK CONF_INDEPENDENT:        2.088
REMARK UNBOUND:                -2.047
REMARK  7 active torsions:
REMARK  status: ('A' for Active; 'I' for Inactive)
REMARK    1  A    between atoms: C_4  and  C_5 
REMARK    2  A    between atoms: C_19  and  C_20 
REMARK       I    between atoms: C_20  and  N_22 
REMARK    3  A    between atoms: N_22  and  C_23 
REMARK    4  A    between atoms: C_23  and  C_24 
REMARK    5  A    between atoms: C_24  and  N_25 
REMARK       I    between atoms: N_25  and  C_26 
REMARK    6  A    between atoms: C_26  and  O_28 
REMARK    7  A    between atoms: O_28  and  C_29 
ROOT
ATOM      1  C   UNL d   1      28.151 -16.709   0.554  0.00  0.00     0.069 C 
ATOM      2  C   UNL d   1      27.821 -15.306   0.899  0.00  0.00     0.022 A 
ATOM      3  N   UNL d   1      28.162 -14.856   2.148  0.00  0.00    -0.359 N 
ATOM      4  C   UNL d   1      27.818 -13.550   2.310  0.00  0.00     0.040 A 
ATOM      5  C   UNL d   1      27.212 -13.136   1.131  0.00  0.00    -0.018 A 
ATOM      6  C   UNL d   1      26.663 -11.771   0.862  0.00  0.00     0.052 C 
ATOM      7  C   UNL d   1      27.203 -14.265   0.211  0.00  0.00     0.062 A 
ATOM      8  H   UNL d   1      28.616 -15.429   2.852  0.00  0.00     0.166 HD
ENDROOT
BRANCH   7   9
ATOM      9  C   UNL d   1      26.645 -14.256  -1.160  0.00  0.00     0.254 C 
ATOM     10  O   UNL d   1      27.206 -13.669  -2.084  0.00  0.00    -0.268 OA
ATOM     11  N   UNL d   1      25.456 -14.933  -1.372  0.00  0.00    -0.355 N 
ATOM     12  H   UNL d   1      25.012 -15.406  -0.605  0.00  0.00     0.162 HD
BRANCH  11  13
ATOM     13  C   UNL d   1      24.824 -14.977  -2.682  0.00  0.00     0.142 C 
BRANCH  13  14
ATOM     14  C   UNL d   1      25.218 -13.816  -3.603  0.00  0.00     0.144 C 
BRANCH  14  15
ATOM     15  N   UNL d   1      26.419 -14.047  -4.403  0.00  0.00    -0.335 N 
ATOM     16  C   UNL d   1      26.464 -15.112  -5.271  0.00  0.00     0.361 C 
ATOM     17  O   UNL d   1      25.517 -15.879  -5.398  0.00  0.00    -0.238 OA
ATOM     18  H   UNL d   1      27.228 -13.444  -4.335  0.00  0.00     0.164 HD
BRANCH  16  19
ATOM     19  O   UNL d   1      27.650 -15.203  -5.951  0.00  0.00    -0.294 OA
BRANCH  19  20
ATOM     20  C   UNL d   1      28.889 -15.294  -5.169  0.00  0.00     0.061 C 
ATOM     21  C   UNL d   1      29.552 -13.917  -5.024  0.00  0.00     0.046 C 
ATOM     22  C   UNL d   1      28.631 -15.931  -3.795  0.00  0.00     0.046 C 
ATOM     23  C   UNL d   1      29.898 -16.206  -5.906  0.00  0.00     0.046 C 
ENDBRANCH  19  20
ENDBRANCH  16  19
ENDBRANCH  14  15
ENDBRANCH  13  14
ENDBRANCH  11  13
ENDBRANCH   7   9
BRANCH   4  24
ATOM     24  C   UNL d   1      28.085 -12.862   3.517  0.00  0.00     0.048 C 
ATOM     25  C   UNL d   1      28.275 -13.350   4.751  0.00  0.00     0.047 A 
ATOM     26  C   UNL d   1      28.283 -14.741   5.322  0.00  0.00     0.257 A 
ATOM     27  C   UNL d   1      28.541 -12.447   5.872  0.00  0.00     0.009 A 
ATOM     28  O   UNL d   1      28.103 -15.791   4.729  0.00  0.00    -0.267 OA
ATOM     29  N   UNL d   1      28.539 -14.583   6.679  0.00  0.00    -0.322 N 
ATOM     30  C   UNL d   1      28.694 -13.235   7.015  0.00  0.00     0.046 A 
ATOM     31  H   UNL d   1      28.597 -15.378   7.301  0.00  0.00     0.169 HD
ATOM     32  C   UNL d   1      28.957 -12.659   8.245  0.00  0.00     0.033 A 
ATOM     33  C   UNL d   1      29.065 -11.257   8.296  0.00  0.00     0.044 A 
ATOM     34  C   UNL d   1      28.907 -10.483   7.140  0.00  0.00     0.117 A 
ATOM     35  F   UNL d   1      29.009  -9.150   7.206  0.00  0.00    -0.206 F 
ATOM     36  C   UNL d   1      28.644 -11.068   5.917  0.00  0.00     0.057 A 
ENDBRANCH   4  24
TORSDOF 7
ENDMDL
MODEL 6
REMARK VINA RESULT:    -7.043      1.464      2.040
REMARK INTER + INTRA:         -11.341
REMARK INTER:                  -9.131
REMARK INTRA:                  -2.209
REMARK CONF_INDEPENDENT:        2.088
REMARK UNBOUND:                -2.209
REMARK  7 active torsions:
REMARK  status: ('A' for Active; 'I' for Inactive)
REMARK    1  A    between atoms: C_4  and  C_5 
REMARK    2  A    between atoms: C_19  and  C_20 
REMARK       I    between atoms: C_20  and  N_22 
REMARK    3  A    between atoms: N_22  and  C_23 
REMARK    4  A    between atoms: C_23  and  C_24 
REMARK    5  A    between atoms: C_24  and  N_25 
REMARK       I    between atoms: N_25  and  C_26 
REMARK    6  A    between atoms: C_26  and  O_28 
REMARK    7  A    between atoms: O_28  and  C_29 
ROOT
ATOM      1  C   UNL d   1      26.286 -13.108   2.323  0.00  0.00     0.069 C 
ATOM      2  C   UNL d   1      27.491 -13.596   3.032  0.00  0.00     0.022 A 
ATOM      3  N   UNL d   1      27.471 -13.600   4.403  0.00  0.00    -0.359 N 
ATOM      4  C   UNL d   1      28.633 -14.094   4.910  0.00  0.00     0.040 A 
ATOM      5  C   UNL d   1      29.450 -14.407   3.831  0.00  0.00    -0.018 A 
ATOM      6  C   UNL d   1      30.833 -14.970   3.917  0.00  0.00     0.052 C 
ATOM      7  C   UNL d   1      28.725 -14.085   2.610  0.00  0.00     0.062 A 
ATOM      8  H   UNL d   1      26.685 -13.278   4.959  0.00  0.00     0.166 HD
ENDROOT
BRANCH   7   9
ATOM      9  C   UNL d   1      29.235 -14.261   1.232  0.00  0.00     0.254 C 
ATOM     10  O   UNL d   1      29.540 -13.301   0.527  0.00  0.00    -0.268 OA
ATOM     11  N   UNL d   1      29.353 -15.554   0.753  0.00  0.00    -0.355 N 
ATOM     12  H   UNL d   1      29.097 -16.326   1.342  0.00  0.00     0.162 HD
BRANCH  11  13
ATOM     13  C   UNL d   1      29.837 -15.831  -0.592  0.00  0.00     0.142 C 
BRANCH  13  14
ATOM     14  C   UNL d   1      28.798 -16.499  -1.502  0.00  0.00     0.144 C 
BRANCH  14  15
ATOM     15  N   UNL d   1      27.410 -16.157  -1.202  0.00  0.00    -0.335 N 
ATOM     16  C   UNL d   1      26.795 -16.709  -0.102  0.00  0.00     0.361 C 
ATOM     17  O   UNL d   1      27.384 -17.485   0.641  0.00  0.00    -0.238 OA
ATOM     18  H   UNL d   1      26.880 -15.522  -1.783  0.00  0.00     0.164 HD
BRANCH  16  19
ATOM     19  O   UNL d   1      25.498 -16.298   0.053  0.00  0.00    -0.294 OA
BRANCH  19  20
ATOM     20  C   UNL d   1      24.457 -16.992  -0.716  0.00  0.00     0.061 C 
ATOM     21  C   UNL d   1      23.088 -16.325  -0.519  0.00  0.00     0.046 C 
ATOM     22  C   UNL d   1      24.827 -17.068  -2.205  0.00  0.00     0.046 C 
ATOM     23  C   UNL d   1      24.328 -18.448  -0.209  0.00  0.00     0.046 C 
ENDBRANCH  19  20
ENDBRANCH  16  19
ENDBRANCH  14  15
ENDBRANCH  13  14
ENDBRANCH  11  13
ENDBRANCH   7   9
BRANCH   4  24
ATOM     24  C   UNL d   1      28.838 -14.209   6.305  0.00  0.00     0.048 C 
ATOM     25  C   UNL d   1      28.643 -13.302   7.272  0.00  0.00     0.047 A 
ATOM     26  C   UNL d   1      28.157 -11.879   7.271  0.00  0.00     0.257 A 
ATOM     27  C   UNL d   1      28.925 -13.636   8.669  0.00  0.00     0.009 A 
ATOM     28  O   UNL d   1      27.812 -11.209   6.311  0.00  0.00    -0.267 OA
ATOM     29  N   UNL d   1      28.180 -11.478   8.602  0.00  0.00    -0.322 N 
ATOM     30  C   UNL d   1      28.630 -12.506   9.435  0.00  0.00     0.046 A 
ATOM     31  H   UNL d   1      27.894 -10.549   8.877  0.00  0.00     0.169 HD
ATOM     32  C   UNL d   1      28.798 -12.516  10.809  0.00  0.00     0.033 A 
ATOM     33  C   UNL d   1      29.272 -13.702  11.397  0.00  0.00     0.044 A 
ATOM     34  C   UNL d   1      29.564 -14.825  10.613  0.00  0.00     0.117 A 
ATOM     35  F   UNL d   1      30.018 -15.945  11.187  0.00  0.00    -0.206 F 
ATOM     36  C   UNL d   1      29.394 -14.804   9.242  0.00  0.00     0.057 A 
ENDBRANCH   4  24
TORSDOF 7
ENDMDL
MODEL 7
REMARK VINA RESULT:    -7.023      2.276      2.959
REMARK INTER + INTRA:         -11.491
REMARK INTER:                  -9.111
REMARK INTRA:                  -2.379
REMARK CONF_INDEPENDENT:        2.088
REMARK UNBOUND:                -2.379
REMARK  7 active torsions:
REMARK  status: ('A' for Active; 'I' for Inactive)
REMARK    1  A    between atoms: C_4  and  C_5 
REMARK    2  A    between atoms: C_19  and  C_20 
REMARK       I    between atoms: C_20  and  N_22 
REMARK    3  A    between atoms: N_22  and  C_23 
REMARK    4  A    between atoms: C_23  and  C_24 
REMARK    5  A    between atoms: C_24  and  N_25 
REMARK       I    between atoms: N_25  and  C_26 
REMARK    6  A    between atoms: C_26  and  O_28 
REMARK    7  A    between atoms: O_28  and  C_29 
ROOT
ATOM      1  C   UNL d   1      27.243 -10.502   3.203  0.00  0.00     0.069 C 
ATOM      2  C   UNL d   1      27.530 -11.752   3.944  0.00  0.00     0.022 A 
ATOM      3  N   UNL d   1      27.717 -11.666   5.300  0.00  0.00    -0.359 N 
ATOM      4  C   UNL d   1      27.948 -12.892   5.842  0.00  0.00     0.040 A 
ATOM      5  C   UNL d   1      27.931 -13.811   4.801  0.00  0.00    -0.018 A 
ATOM      6  C   UNL d   1      28.151 -15.285   4.932  0.00  0.00     0.052 C 
ATOM      7  C   UNL d   1      27.665 -13.086   3.567  0.00  0.00     0.062 A 
ATOM      8  H   UNL d   1      27.681 -10.796   5.822  0.00  0.00     0.166 HD
ENDROOT
BRANCH   7   9
ATOM      9  C   UNL d   1      27.568 -13.686   2.217  0.00  0.00     0.254 C 
ATOM     10  O   UNL d   1      26.802 -13.241   1.364  0.00  0.00    -0.268 OA
ATOM     11  N   UNL d   1      28.371 -14.780   1.943  0.00  0.00    -0.355 N 
ATOM     12  H   UNL d   1      28.989 -15.130   2.652  0.00  0.00     0.162 HD
BRANCH  11  13
ATOM     13  C   UNL d   1      28.343 -15.445   0.648  0.00  0.00     0.142 C 
BRANCH  13  14
ATOM     14  C   UNL d   1      27.001 -16.114   0.321  0.00  0.00     0.144 C 
BRANCH  14  15
ATOM     15  N   UNL d   1      26.108 -15.319  -0.519  0.00  0.00    -0.335 N 
ATOM     16  C   UNL d   1      25.433 -15.921  -1.554  0.00  0.00     0.361 C 
ATOM     17  O   UNL d   1      25.558 -17.116  -1.795  0.00  0.00    -0.238 OA
ATOM     18  H   UNL d   1      25.971 -14.330  -0.362  0.00  0.00     0.164 HD
BRANCH  16  19
ATOM     19  O   UNL d   1      24.636 -15.054  -2.254  0.00  0.00    -0.294 OA
BRANCH  19  20
ATOM     20  C   UNL d   1      25.241 -14.293  -3.354  0.00  0.00     0.061 C 
ATOM     21  C   UNL d   1      26.226 -15.162  -4.149  0.00  0.00     0.046 C 
ATOM     22  C   UNL d   1      24.163 -13.697  -4.271  0.00  0.00     0.046 C 
ATOM     23  C   UNL d   1      26.048 -13.108  -2.776  0.00  0.00     0.046 C 
ENDBRANCH  19  20
ENDBRANCH  16  19
ENDBRANCH  14  15
ENDBRANCH  13  14
ENDBRANCH  11  13
ENDBRANCH   7   9
BRANCH   4  24
ATOM     24  C   UNL d   1      28.155 -13.054   7.232  0.00  0.00     0.048 C 
ATOM     25  C   UNL d   1      28.715 -12.214   8.114  0.00  0.00     0.047 A 
ATOM     26  C   UNL d   1      29.314 -10.840   7.995  0.00  0.00     0.257 A 
ATOM     27  C   UNL d   1      28.832 -12.589   9.524  0.00  0.00     0.009 A 
ATOM     28  O   UNL d   1      29.418 -10.157   6.989  0.00  0.00    -0.267 OA
ATOM     29  N   UNL d   1      29.727 -10.503   9.278  0.00  0.00    -0.322 N 
ATOM     30  C   UNL d   1      29.448 -11.527  10.188  0.00  0.00     0.046 A 
ATOM     31  H   UNL d   1      30.169  -9.615   9.473  0.00  0.00     0.169 HD
ATOM     32  C   UNL d   1      29.697 -11.587  11.548  0.00  0.00     0.033 A 
ATOM     33  C   UNL d   1      29.305 -12.754  12.229  0.00  0.00     0.044 A 
ATOM     34  C   UNL d   1      28.690 -13.811  11.546  0.00  0.00     0.117 A 
ATOM     35  F   UNL d   1      28.326 -14.916  12.207  0.00  0.00    -0.206 F 
ATOM     36  C   UNL d   1      28.447 -13.740  10.188  0.00  0.00     0.057 A 
ENDBRANCH   4  24
TORSDOF 7
ENDMDL
MODEL 8
REMARK VINA RESULT:    -6.969      7.988     10.493
REMARK INTER + INTRA:         -11.555
REMARK INTER:                  -9.057
REMARK INTRA:                  -2.498
REMARK CONF_INDEPENDENT:        2.088
REMARK UNBOUND:                -2.498
REMARK  7 active torsions:
REMARK  status: ('A' for Active; 'I' for Inactive)
REMARK    1  A    between atoms: C_4  and  C_5 
REMARK    2  A    between atoms: C_19  and  C_20 
REMARK       I    between atoms: C_20  and  N_22 
REMARK    3  A    between atoms: N_22  and  C_23 
REMARK    4  A    between atoms: C_23  and  C_24 
REMARK    5  A    between atoms: C_24  and  N_25 
REMARK       I    between atoms: N_25  and  C_26 
REMARK    6  A    between atoms: C_26  and  O_28 
REMARK    7  A    between atoms: O_28  and  C_29 
ROOT
ATOM      1  C   UNL d   1      25.656  -9.954  -4.509  0.00  0.00     0.069 C 
ATOM      2  C   UNL d   1      25.906 -11.412  -4.570  0.00  0.00     0.022 A 
ATOM      3  N   UNL d   1      25.305 -12.206  -3.628  0.00  0.00    -0.359 N 
ATOM      4  C   UNL d   1      25.608 -13.518  -3.825  0.00  0.00     0.040 A 
ATOM      5  C   UNL d   1      26.454 -13.582  -4.925  0.00  0.00    -0.018 A 
ATOM      6  C   UNL d   1      27.049 -14.829  -5.498  0.00  0.00     0.052 C 
ATOM      7  C   UNL d   1      26.658 -12.226  -5.415  0.00  0.00     0.062 A 
ATOM      8  H   UNL d   1      24.710 -11.853  -2.885  0.00  0.00     0.166 HD
ENDROOT
BRANCH   7   9
ATOM      9  C   UNL d   1      27.497 -11.844  -6.572  0.00  0.00     0.254 C 
ATOM     10  O   UNL d   1      27.003 -11.467  -7.634  0.00  0.00    -0.268 OA
ATOM     11  N   UNL d   1      28.870 -11.928  -6.424  0.00  0.00    -0.355 N 
ATOM     12  H   UNL d   1      29.256 -12.239  -5.549  0.00  0.00     0.162 HD
BRANCH  11  13
ATOM     13  C   UNL d   1      29.780 -11.581  -7.505  0.00  0.00     0.142 C 
BRANCH  13  14
ATOM     14  C   UNL d   1      30.672 -12.742  -7.965  0.00  0.00     0.144 C 
BRANCH  14  15
ATOM     15  N   UNL d   1      30.160 -14.073  -7.645  0.00  0.00    -0.335 N 
ATOM     16  C   UNL d   1      30.210 -14.528  -6.349  0.00  0.00     0.361 C 
ATOM     17  O   UNL d   1      30.675 -13.845  -5.445  0.00  0.00    -0.238 OA
ATOM     18  H   UNL d   1      29.766 -14.676  -8.355  0.00  0.00     0.164 HD
BRANCH  16  19
ATOM     19  O   UNL d   1      29.696 -15.789  -6.201  0.00  0.00    -0.294 OA
BRANCH  19  20
ATOM     20  C   UNL d   1      30.523 -16.798  -5.527  0.00  0.00     0.061 C 
ATOM     21  C   UNL d   1      32.006 -16.400  -5.549  0.00  0.00     0.046 C 
ATOM     22  C   UNL d   1      30.036 -17.042  -4.091  0.00  0.00     0.046 C 
ATOM     23  C   UNL d   1      30.405 -18.145  -6.278  0.00  0.00     0.046 C 
ENDBRANCH  19  20
ENDBRANCH  16  19
ENDBRANCH  14  15
ENDBRANCH  13  14
ENDBRANCH  11  13
ENDBRANCH   7   9
BRANCH   4  24
ATOM     24  C   UNL d   1      25.089 -14.528  -2.982  0.00  0.00     0.048 C 
ATOM     25  C   UNL d   1      25.739 -15.430  -2.233  0.00  0.00     0.047 A 
ATOM     26  C   UNL d   1      27.195 -15.718  -1.995  0.00  0.00     0.257 A 
ATOM     27  C   UNL d   1      24.994 -16.399  -1.427  0.00  0.00     0.009 A 
ATOM     28  O   UNL d   1      28.157 -15.142  -2.475  0.00  0.00    -0.267 OA
ATOM     29  N   UNL d   1      27.221 -16.787  -1.107  0.00  0.00    -0.322 N 
ATOM     30  C   UNL d   1      25.929 -17.196  -0.764  0.00  0.00     0.046 A 
ATOM     31  H   UNL d   1      28.093 -17.180  -0.780  0.00  0.00     0.169 HD
ATOM     32  C   UNL d   1      25.523 -18.213   0.082  0.00  0.00     0.033 A 
ATOM     33  C   UNL d   1      24.140 -18.407   0.247  0.00  0.00     0.044 A 
ATOM     34  C   UNL d   1      23.216 -17.599  -0.427  0.00  0.00     0.117 A 
ATOM     35  F   UNL d   1      21.903 -17.799  -0.261  0.00  0.00    -0.206 F 
ATOM     36  C   UNL d   1      23.632 -16.587  -1.270  0.00  0.00     0.057 A 
ENDBRANCH   4  24
TORSDOF 7
ENDMDL
MODEL 9
REMARK VINA RESULT:    -6.379      2.537      3.624
REMARK INTER + INTRA:         -11.320
REMARK INTER:                  -8.467
REMARK INTRA:                  -2.854
REMARK CONF_INDEPENDENT:        2.088
REMARK UNBOUND:                -2.854
REMARK  7 active torsions:
REMARK  status: ('A' for Active; 'I' for Inactive)
REMARK    1  A    between atoms: C_4  and  C_5 
REMARK    2  A    between atoms: C_19  and  C_20 
REMARK       I    between atoms: C_20  and  N_22 
REMARK    3  A    between atoms: N_22  and  C_23 
REMARK    4  A    between atoms: C_23  and  C_24 
REMARK    5  A    between atoms: C_24  and  N_25 
REMARK       I    between atoms: N_25  and  C_26 
REMARK    6  A    between atoms: C_26  and  O_28 
REMARK    7  A    between atoms: O_28  and  C_29 
ROOT
ATOM      1  C   UNL d   1      28.249 -15.634   0.447  0.00  0.00     0.069 C 
ATOM      2  C   UNL d   1      28.018 -14.300   1.049  0.00  0.00     0.022 A 
ATOM      3  N   UNL d   1      28.294 -14.141   2.382  0.00  0.00    -0.359 N 
ATOM      4  C   UNL d   1      28.055 -12.864   2.785  0.00  0.00     0.040 A 
ATOM      5  C   UNL d   1      27.587 -12.167   1.678  0.00  0.00    -0.018 A 
ATOM      6  C   UNL d   1      27.186 -10.725   1.658  0.00  0.00     0.052 C 
ATOM      7  C   UNL d   1      27.554 -13.085   0.549  0.00  0.00     0.062 A 
ATOM      8  H   UNL d   1      28.636 -14.885   2.983  0.00  0.00     0.166 HD
ENDROOT
BRANCH   7   9
ATOM      9  C   UNL d   1      27.113 -12.751  -0.823  0.00  0.00     0.254 C 
ATOM     10  O   UNL d   1      27.274 -11.628  -1.300  0.00  0.00    -0.268 OA
ATOM     11  N   UNL d   1      26.502 -13.750  -1.561  0.00  0.00    -0.355 N 
ATOM     12  H   UNL d   1      26.378 -14.660  -1.155  0.00  0.00     0.162 HD
BRANCH  11  13
ATOM     13  C   UNL d   1      26.027 -13.518  -2.918  0.00  0.00     0.142 C 
BRANCH  13  14
ATOM     14  C   UNL d   1      25.957 -14.787  -3.777  0.00  0.00     0.144 C 
BRANCH  14  15
ATOM     15  N   UNL d   1      25.367 -15.947  -3.112  0.00  0.00    -0.335 N 
ATOM     16  C   UNL d   1      26.131 -16.700  -2.253  0.00  0.00     0.361 C 
ATOM     17  O   UNL d   1      27.303 -16.424  -2.025  0.00  0.00    -0.238 OA
ATOM     18  H   UNL d   1      24.405 -16.216  -3.267  0.00  0.00     0.164 HD
BRANCH  16  19
ATOM     19  O   UNL d   1      25.447 -17.753  -1.705  0.00  0.00    -0.294 OA
BRANCH  19  20
ATOM     20  C   UNL d   1      24.762 -17.540  -0.424  0.00  0.00     0.061 C 
ATOM     21  C   UNL d   1      23.330 -18.093  -0.465  0.00  0.00     0.046 C 
ATOM     22  C   UNL d   1      25.559 -18.154   0.737  0.00  0.00     0.046 C 
ATOM     23  C   UNL d   1      24.653 -16.023  -0.144  0.00  0.00     0.046 C 
ENDBRANCH  19  20
ENDBRANCH  16  19
ENDBRANCH  14  15
ENDBRANCH  13  14
ENDBRANCH  11  13
ENDBRANCH   7   9
BRANCH   4  24
ATOM     24  C   UNL d   1      28.283 -12.458   4.120  0.00  0.00     0.048 C 
ATOM     25  C   UNL d   1      28.397 -13.202   5.229  0.00  0.00     0.047 A 
ATOM     26  C   UNL d   1      28.334 -14.681   5.492  0.00  0.00     0.257 A 
ATOM     27  C   UNL d   1      28.633 -12.567   6.527  0.00  0.00     0.009 A 
ATOM     28  O   UNL d   1      28.152 -15.575   4.681  0.00  0.00    -0.267 OA
ATOM     29  N   UNL d   1      28.527 -14.824   6.861  0.00  0.00    -0.322 N 
ATOM     30  C   UNL d   1      28.705 -13.584   7.481  0.00  0.00     0.046 A 
ATOM     31  H   UNL d   1      28.530 -15.734   7.300  0.00  0.00     0.169 HD
ATOM     32  C   UNL d   1      28.924 -13.291   8.816  0.00  0.00     0.033 A 
ATOM     33  C   UNL d   1      29.072 -11.938   9.168  0.00  0.00     0.044 A 
ATOM     34  C   UNL d   1      28.995 -10.931   8.198  0.00  0.00     0.117 A 
ATOM     35  F   UNL d   1      29.134  -9.647   8.550  0.00  0.00    -0.206 F 
ATOM     36  C   UNL d   1      28.775 -11.234   6.869  0.00  0.00     0.057 A 
ENDBRANCH   4  24
TORSDOF 7
ENDMDL
