MODEL 1
REMARK VINA RESULT:    -9.479      0.000      0.000
REMARK INTER + INTRA:         -12.620
REMARK INTER:                 -11.567
REMARK INTRA:                  -1.053
REMARK CONF_INDEPENDENT:        2.088
REMARK UNBOUND:                -1.053
REMARK  7 active torsions:
REMARK  status: ('A' for Active; 'I' for Inactive)
REMARK    1  A    between atoms: O_2  and  C_3 
REMARK    2  A    between atoms: C_5  and  O_6 
REMARK    3  A    between atoms: C_9  and  C_10 
REMARK       I    between atoms: C_10  and  N_12 
REMARK       I    between atoms: C_13  and  N_14 
REMARK       I    between atoms: C_13  and  N_26 
REMARK    4  A    between atoms: N_14  and  C_15 
REMARK    5  A    between atoms: C_15  and  C_16 
REMARK    6  A    between atoms: C_16  and  C_17 
REMARK    7  A    between atoms: N_26  and  C_27 
ROOT
ATOM      1  C   UNL d   1      25.744 -13.075  -4.037  0.00  0.00     0.294 C 
ATOM      2  O   UNL d   1      25.082 -14.003  -4.474  0.00  0.00    -0.265 OA
ATOM      3  N   UNL d   1      26.251 -12.990  -2.758  0.00  0.00    -0.023 NA
ATOM      4  C   UNL d   1      26.100 -14.003  -1.955  0.00  0.00     0.704 C 
ATOM      5  N   UNL d   1      26.626 -13.919  -0.690  0.00  0.00    -0.224 N 
ATOM      6  N   UNL d   1      25.506 -15.202  -2.260  0.00  0.00    -0.190 N 
ATOM      7  H   UNL d   1      26.625 -14.769  -0.137  0.00  0.00     0.177 HD
ATOM      8  H   UNL d   1      25.079 -15.243  -3.190  0.00  0.00     0.184 HD
ENDROOT
BRANCH   5   9
ATOM      9  C   UNL d   1      27.404 -12.804  -0.218  0.00  0.00     0.142 C 
BRANCH   9  10
ATOM     10  C   UNL d   1      26.966 -12.400   1.177  0.00  0.00     0.057 C 
BRANCH  10  11
ATOM     11  C   UNL d   1      27.433 -13.268   2.302  0.00  0.00    -0.048 A 
ATOM     12  C   UNL d   1      27.613 -12.749   3.515  0.00  0.00    -0.006 A 
ATOM     13  C   UNL d   1      27.430 -11.425   3.986  0.00  0.00     0.014 A 
ATOM     14  C   UNL d   1      28.127 -13.827   4.364  0.00  0.00     0.038 A 
ATOM     15  C   UNL d   1      27.833 -11.135   5.226  0.00  0.00     0.001 A 
ATOM     16  C   UNL d   1      28.322 -12.174   6.118  0.00  0.00     0.002 A 
ATOM     17  C   UNL d   1      28.479 -13.467   5.756  0.00  0.00     0.030 A 
ATOM     18  N   UNL d   1      28.190 -14.935   3.725  0.00  0.00    -0.385 N 
ATOM     19  C   UNL d   1      27.782 -14.730   2.297  0.00  0.00     0.155 A 
ATOM     20  H   UNL d   1      28.477 -15.809   4.167  0.00  0.00     0.160 HD
ENDBRANCH  10  11
ENDBRANCH   9  10
ENDBRANCH   5   9
BRANCH   6  21
ATOM     21  C   UNL d   1      25.106 -16.246  -1.412  0.00  0.00     0.050 C 
ATOM     22  C   UNL d   1      23.808 -16.766  -1.488  0.00  0.00     0.036 C 
ATOM     23  C   UNL d   1      23.437 -17.862  -0.694  0.00  0.00    -0.059 C 
ATOM     24  C   UNL d   1      22.010 -18.307  -0.576  0.00  0.00     0.048 C 
ATOM     25  C   UNL d   1      24.403 -18.509   0.086  0.00  0.00     0.013 C 
ATOM     26  C   UNL d   1      25.682 -17.974   0.204  0.00  0.00    -0.059 C 
ATOM     27  C   UNL d   1      26.706 -18.570   1.111  0.00  0.00     0.048 C 
ATOM     28  C   UNL d   1      26.003 -16.822  -0.510  0.00  0.00     0.036 C 
ENDBRANCH   6  21
BRANCH   1  29
ATOM     29  C   UNL d   1      26.021 -11.904  -4.922  0.00  0.00     0.040 A 
ATOM     30  C   UNL d   1      26.734 -12.137  -6.103  0.00  0.00     0.054 A 
ATOM     31  C   UNL d   1      26.913 -11.117  -7.032  0.00  0.00     0.071 A 
ATOM     32  C   UNL d   1      26.473  -9.826  -6.720  0.00  0.00     0.073 A 
ATOM     33  C   UNL d   1      25.770  -9.579  -5.534  0.00  0.00     0.071 A 
ATOM     34  C   UNL d   1      25.531 -10.623  -4.640  0.00  0.00     0.054 A 
BRANCH  31  35
ATOM     35  O   UNL d   1      27.459 -11.293  -8.277  0.00  0.00    -0.356 OA
ATOM     36  C   UNL d   1      26.649 -10.874  -9.379  0.00  0.00     0.210 C 
ENDBRANCH  31  35
BRANCH  33  37
ATOM     37  O   UNL d   1      25.239  -8.324  -5.402  0.00  0.00    -0.356 OA
ATOM     38  C   UNL d   1      23.939  -8.140  -5.948  0.00  0.00     0.210 C 
ENDBRANCH  33  37
ENDBRANCH   1  29
TORSDOF 7
ENDMDL
MODEL 2
REMARK VINA RESULT:    -9.081      4.005      9.227
REMARK INTER + INTRA:         -12.542
REMARK INTER:                 -11.169
REMARK INTRA:                  -1.373
REMARK CONF_INDEPENDENT:        2.088
REMARK UNBOUND:                -1.373
REMARK  7 active torsions:
REMARK  status: ('A' for Active; 'I' for Inactive)
REMARK    1  A    between atoms: O_2  and  C_3 
REMARK    2  A    between atoms: C_5  and  O_6 
REMARK    3  A    between atoms: C_9  and  C_10 
REMARK       I    between atoms: C_10  and  N_12 
REMARK       I    between atoms: C_13  and  N_14 
REMARK       I    between atoms: C_13  and  N_26 
REMARK    4  A    between atoms: N_14  and  C_15 
REMARK    5  A    between atoms: C_15  and  C_16 
REMARK    6  A    between atoms: C_16  and  C_17 
REMARK    7  A    between atoms: N_26  and  C_27 
ROOT
ATOM      1  C   UNL d   1      24.982 -14.713  -2.613  0.00  0.00     0.294 C 
ATOM      2  O   UNL d   1      24.024 -14.174  -3.145  0.00  0.00    -0.265 OA
ATOM      3  N   UNL d   1      26.293 -14.302  -2.726  0.00  0.00    -0.023 NA
ATOM      4  C   UNL d   1      26.553 -13.205  -3.376  0.00  0.00     0.704 C 
ATOM      5  N   UNL d   1      27.858 -12.791  -3.466  0.00  0.00    -0.224 N 
ATOM      6  N   UNL d   1      25.633 -12.362  -3.950  0.00  0.00    -0.190 N 
ATOM      7  H   UNL d   1      28.019 -11.866  -3.847  0.00  0.00     0.177 HD
ATOM      8  H   UNL d   1      24.667 -12.698  -3.916  0.00  0.00     0.184 HD
ENDROOT
BRANCH   5   9
ATOM      9  C   UNL d   1      28.957 -13.458  -2.819  0.00  0.00     0.142 C 
BRANCH   9  10
ATOM     10  C   UNL d   1      29.040 -14.906  -3.264  0.00  0.00     0.057 C 
BRANCH  10  11
ATOM     11  C   UNL d   1      29.299 -15.144  -4.718  0.00  0.00    -0.048 A 
ATOM     12  C   UNL d   1      29.898 -16.265  -5.114  0.00  0.00    -0.006 A 
ATOM     13  C   UNL d   1      30.375 -17.369  -4.364  0.00  0.00     0.014 A 
ATOM     14  C   UNL d   1      30.061 -16.167  -6.567  0.00  0.00     0.038 A 
ATOM     15  C   UNL d   1      31.082 -18.306  -5.001  0.00  0.00     0.001 A 
ATOM     16  C   UNL d   1      31.246 -18.270  -6.445  0.00  0.00     0.002 A 
ATOM     17  C   UNL d   1      30.779 -17.276  -7.233  0.00  0.00     0.030 A 
ATOM     18  N   UNL d   1      29.537 -15.091  -7.024  0.00  0.00    -0.385 N 
ATOM     19  C   UNL d   1      28.998 -14.261  -5.897  0.00  0.00     0.155 A 
ATOM     20  H   UNL d   1      29.508 -14.874  -8.020  0.00  0.00     0.160 HD
ENDBRANCH  10  11
ENDBRANCH   9  10
ENDBRANCH   5   9
BRANCH   6  21
ATOM     21  C   UNL d   1      25.828 -11.299  -4.844  0.00  0.00     0.050 C 
ATOM     22  C   UNL d   1      26.283 -11.540  -6.146  0.00  0.00     0.036 C 
ATOM     23  C   UNL d   1      26.400 -10.483  -7.062  0.00  0.00    -0.059 C 
ATOM     24  C   UNL d   1      27.088 -10.654  -8.384  0.00  0.00     0.048 C 
ATOM     25  C   UNL d   1      25.948  -9.207  -6.706  0.00  0.00     0.013 C 
ATOM     26  C   UNL d   1      25.539  -8.947  -5.402  0.00  0.00    -0.059 C 
ATOM     27  C   UNL d   1      25.156  -7.576  -4.954  0.00  0.00     0.048 C 
ATOM     28  C   UNL d   1      25.529  -9.986  -4.475  0.00  0.00     0.036 C 
ENDBRANCH   6  21
BRANCH   1  29
ATOM     29  C   UNL d   1      24.757 -15.940  -1.790  0.00  0.00     0.040 A 
ATOM     30  C   UNL d   1      25.876 -16.708  -1.451  0.00  0.00     0.054 A 
ATOM     31  C   UNL d   1      25.753 -17.787  -0.580  0.00  0.00     0.071 A 
ATOM     32  C   UNL d   1      24.480 -18.166  -0.142  0.00  0.00     0.073 A 
ATOM     33  C   UNL d   1      23.352 -17.412  -0.487  0.00  0.00     0.071 A 
ATOM     34  C   UNL d   1      23.493 -16.289  -1.301  0.00  0.00     0.054 A 
BRANCH  31  35
ATOM     35  O   UNL d   1      26.811 -18.494  -0.073  0.00  0.00    -0.356 OA
ATOM     36  C   UNL d   1      28.086 -17.849  -0.145  0.00  0.00     0.210 C 
ENDBRANCH  31  35
BRANCH  33  37
ATOM     37  O   UNL d   1      22.181 -17.768   0.129  0.00  0.00    -0.356 OA
ATOM     38  C   UNL d   1      21.710 -19.082  -0.147  0.00  0.00     0.210 C 
ENDBRANCH  33  37
ENDBRANCH   1  29
TORSDOF 7
ENDMDL
MODEL 3
REMARK VINA RESULT:    -8.875      1.979      6.068
REMARK INTER + INTRA:         -12.710
REMARK INTER:                 -10.964
REMARK INTRA:                  -1.746
REMARK CONF_INDEPENDENT:        2.088
REMARK UNBOUND:                -1.746
REMARK  7 active torsions:
REMARK  status: ('A' for Active; 'I' for Inactive)
REMARK    1  A    between atoms: O_2  and  C_3 
REMARK    2  A    between atoms: C_5  and  O_6 
REMARK    3  A    between atoms: C_9  and  C_10 
REMARK       I    between atoms: C_10  and  N_12 
REMARK       I    between atoms: C_13  and  N_14 
REMARK       I    between atoms: C_13  and  N_26 
REMARK    4  A    between atoms: N_14  and  C_15 
REMARK    5  A    between atoms: C_15  and  C_16 
REMARK    6  A    between atoms: C_16  and  C_17 
REMARK    7  A    between atoms: N_26  and  C_27 
ROOT
ATOM      1  C   UNL d   1      27.202 -13.180  -1.471  0.00  0.00     0.294 C 
ATOM      2  O   UNL d   1      26.670 -12.288  -0.829  0.00  0.00    -0.265 OA
ATOM      3  N   UNL d   1      27.990 -14.181  -0.944  0.00  0.00    -0.023 NA
ATOM      4  C   UNL d   1      28.130 -14.255   0.348  0.00  0.00     0.704 C 
ATOM      5  N   UNL d   1      28.900 -15.266   0.866  0.00  0.00    -0.224 N 
ATOM      6  N   UNL d   1      27.530 -13.445   1.279  0.00  0.00    -0.190 N 
ATOM      7  H   UNL d   1      28.874 -15.391   1.871  0.00  0.00     0.177 HD
ATOM      8  H   UNL d   1      26.991 -12.668   0.885  0.00  0.00     0.184 HD
ENDROOT
BRANCH   5   9
ATOM      9  C   UNL d   1      29.505 -16.301   0.069  0.00  0.00     0.142 C 
BRANCH   9  10
ATOM     10  C   UNL d   1      28.490 -16.907  -0.881  0.00  0.00     0.057 C 
BRANCH  10  11
ATOM     11  C   UNL d   1      27.221 -17.412  -0.269  0.00  0.00    -0.048 A 
ATOM     12  C   UNL d   1      26.045 -17.024  -0.757  0.00  0.00    -0.006 A 
ATOM     13  C   UNL d   1      25.736 -16.156  -1.834  0.00  0.00     0.014 A 
ATOM     14  C   UNL d   1      25.015 -17.635   0.087  0.00  0.00     0.038 A 
ATOM     15  C   UNL d   1      24.459 -15.810  -2.019  0.00  0.00     0.001 A 
ATOM     16  C   UNL d   1      23.397 -16.411  -1.228  0.00  0.00     0.002 A 
ATOM     17  C   UNL d   1      23.610 -17.283  -0.217  0.00  0.00     0.030 A 
ATOM     18  N   UNL d   1      25.532 -18.392   0.981  0.00  0.00    -0.385 N 
ATOM     19  C   UNL d   1      27.029 -18.335   0.901  0.00  0.00     0.155 A 
ATOM     20  H   UNL d   1      24.968 -18.941   1.630  0.00  0.00     0.160 HD
ENDBRANCH  10  11
ENDBRANCH   9  10
ENDBRANCH   5   9
BRANCH   6  21
ATOM     21  C   UNL d   1      27.791 -13.310   2.651  0.00  0.00     0.050 C 
ATOM     22  C   UNL d   1      27.840 -12.043   3.244  0.00  0.00     0.036 C 
ATOM     23  C   UNL d   1      28.022 -11.916   4.629  0.00  0.00    -0.059 C 
ATOM     24  C   UNL d   1      28.304 -10.590   5.273  0.00  0.00     0.048 C 
ATOM     25  C   UNL d   1      28.034 -13.062   5.432  0.00  0.00     0.013 C 
ATOM     26  C   UNL d   1      28.032 -14.326   4.850  0.00  0.00    -0.059 C 
ATOM     27  C   UNL d   1      28.155 -15.570   5.665  0.00  0.00     0.048 C 
ATOM     28  C   UNL d   1      27.958 -14.433   3.464  0.00  0.00     0.036 C 
ENDBRANCH   6  21
BRANCH   1  29
ATOM     29  C   UNL d   1      27.030 -13.205  -2.955  0.00  0.00     0.040 A 
ATOM     30  C   UNL d   1      26.497 -12.066  -3.566  0.00  0.00     0.054 A 
ATOM     31  C   UNL d   1      26.432 -11.973  -4.953  0.00  0.00     0.071 A 
ATOM     32  C   UNL d   1      26.797 -13.080  -5.726  0.00  0.00     0.073 A 
ATOM     33  C   UNL d   1      27.320 -14.231  -5.124  0.00  0.00     0.071 A 
ATOM     34  C   UNL d   1      27.450 -14.288  -3.736  0.00  0.00     0.054 A 
BRANCH  31  35
ATOM     35  O   UNL d   1      26.072 -10.841  -5.635  0.00  0.00    -0.356 OA
ATOM     36  C   UNL d   1      25.535  -9.778  -4.843  0.00  0.00     0.210 C 
ENDBRANCH  31  35
BRANCH  33  37
ATOM     37  O   UNL d   1      27.802 -15.188  -5.976  0.00  0.00    -0.356 OA
ATOM     38  C   UNL d   1      28.935 -14.815  -6.750  0.00  0.00     0.210 C 
ENDBRANCH  33  37
ENDBRANCH   1  29
TORSDOF 7
ENDMDL
MODEL 4
REMARK VINA RESULT:    -8.775      2.062      5.852
REMARK INTER + INTRA:         -12.628
REMARK INTER:                 -10.863
REMARK INTRA:                  -1.765
REMARK CONF_INDEPENDENT:        2.088
REMARK UNBOUND:                -1.765
REMARK  7 active torsions:
REMARK  status: ('A' for Active; 'I' for Inactive)
REMARK    1  A    between atoms: O_2  and  C_3 
REMARK    2  A    between atoms: C_5  and  O_6 
REMARK    3  A    between atoms: C_9  and  C_10 
REMARK       I    between atoms: C_10  and  N_12 
REMARK       I    between atoms: C_13  and  N_14 
REMARK       I    between atoms: C_13  and  N_26 
REMARK    4  A    between atoms: N_14  and  C_15 
REMARK    5  A    between atoms: C_15  and  C_16 
REMARK    6  A    between atoms: C_16  and  C_17 
REMARK    7  A    between atoms: N_26  and  C_27 
ROOT
ATOM      1  C   UNL d   1      27.413 -13.030  -1.468  0.00  0.00     0.294 C 
ATOM      2  O   UNL d   1      26.913 -12.122  -0.824  0.00  0.00    -0.265 OA
ATOM      3  N   UNL d   1      28.143 -14.074  -0.941  0.00  0.00    -0.023 NA
ATOM      4  C   UNL d   1      28.254 -14.172   0.352  0.00  0.00     0.704 C 
ATOM      5  N   UNL d   1      28.964 -15.225   0.870  0.00  0.00    -0.224 N 
ATOM      6  N   UNL d   1      27.675 -13.345   1.284  0.00  0.00    -0.190 N 
ATOM      7  H   UNL d   1      28.914 -15.362   1.873  0.00  0.00     0.177 HD
ATOM      8  H   UNL d   1      27.182 -12.539   0.890  0.00  0.00     0.184 HD
ENDROOT
BRANCH   5   9
ATOM      9  C   UNL d   1      29.535 -16.277   0.071  0.00  0.00     0.142 C 
BRANCH   9  10
ATOM     10  C   UNL d   1      28.516 -16.808  -0.920  0.00  0.00     0.057 C 
BRANCH  10  11
ATOM     11  C   UNL d   1      27.239 -17.336  -0.346  0.00  0.00    -0.048 A 
ATOM     12  C   UNL d   1      26.070 -16.907  -0.818  0.00  0.00    -0.006 A 
ATOM     13  C   UNL d   1      25.776 -15.975  -1.844  0.00  0.00     0.014 A 
ATOM     14  C   UNL d   1      25.028 -17.556  -0.017  0.00  0.00     0.038 A 
ATOM     15  C   UNL d   1      24.504 -15.606  -2.017  0.00  0.00     0.001 A 
ATOM     16  C   UNL d   1      23.431 -16.241  -1.269  0.00  0.00     0.002 A 
ATOM     17  C   UNL d   1      23.628 -17.173  -0.310  0.00  0.00     0.030 A 
ATOM     18  N   UNL d   1      25.532 -18.369   0.834  0.00  0.00    -0.385 N 
ATOM     19  C   UNL d   1      27.030 -18.322   0.767  0.00  0.00     0.155 A 
ATOM     20  H   UNL d   1      24.958 -18.950   1.446  0.00  0.00     0.160 HD
ENDBRANCH  10  11
ENDBRANCH   9  10
ENDBRANCH   5   9
BRANCH   6  21
ATOM     21  C   UNL d   1      27.916 -13.241   2.662  0.00  0.00     0.050 C 
ATOM     22  C   UNL d   1      27.992 -11.986   3.277  0.00  0.00     0.036 C 
ATOM     23  C   UNL d   1      28.153 -11.887   4.667  0.00  0.00    -0.059 C 
ATOM     24  C   UNL d   1      28.463 -10.582   5.338  0.00  0.00     0.048 C 
ATOM     25  C   UNL d   1      28.117 -13.046   5.451  0.00  0.00     0.013 C 
ATOM     26  C   UNL d   1      28.087 -14.300   4.847  0.00  0.00    -0.059 C 
ATOM     27  C   UNL d   1      28.159 -15.560   5.643  0.00  0.00     0.048 C 
ATOM     28  C   UNL d   1      28.035 -14.382   3.459  0.00  0.00     0.036 C 
ENDBRANCH   6  21
BRANCH   1  29
ATOM     29  C   UNL d   1      27.269 -13.028  -2.955  0.00  0.00     0.040 A 
ATOM     30  C   UNL d   1      27.843 -14.088  -3.665  0.00  0.00     0.054 A 
ATOM     31  C   UNL d   1      27.635 -14.215  -5.035  0.00  0.00     0.071 A 
ATOM     32  C   UNL d   1      26.944 -13.206  -5.715  0.00  0.00     0.073 A 
ATOM     33  C   UNL d   1      26.377 -12.133  -5.016  0.00  0.00     0.071 A 
ATOM     34  C   UNL d   1      26.528 -12.051  -3.632  0.00  0.00     0.054 A 
BRANCH  31  35
ATOM     35  O   UNL d   1      28.025 -15.298  -5.778  0.00  0.00    -0.356 OA
ATOM     36  C   UNL d   1      29.349 -15.243  -6.315  0.00  0.00     0.210 C 
ENDBRANCH  31  35
BRANCH  33  37
ATOM     37  O   UNL d   1      25.582 -11.293  -5.748  0.00  0.00    -0.356 OA
ATOM     38  C   UNL d   1      25.628  -9.919  -5.383  0.00  0.00     0.210 C 
ENDBRANCH  33  37
ENDBRANCH   1  29
TORSDOF 7
ENDMDL
MODEL 5
REMARK VINA RESULT:    -8.514      1.894      7.357
REMARK INTER + INTRA:         -12.770
REMARK INTER:                 -10.602
REMARK INTRA:                  -2.168
REMARK CONF_INDEPENDENT:        2.088
REMARK UNBOUND:                -2.168
REMARK  7 active torsions:
REMARK  status: ('A' for Active; 'I' for Inactive)
REMARK    1  A    between atoms: O_2  and  C_3 
REMARK    2  A    between atoms: C_5  and  O_6 
REMARK    3  A    between atoms: C_9  and  C_10 
REMARK       I    between atoms: C_10  and  N_12 
REMARK       I    between atoms: C_13  and  N_14 
REMARK       I    between atoms: C_13  and  N_26 
REMARK    4  A    between atoms: N_14  and  C_15 
REMARK    5  A    between atoms: C_15  and  C_16 
REMARK    6  A    between atoms: C_16  and  C_17 
REMARK    7  A    between atoms: N_26  and  C_27 
ROOT
ATOM      1  C   UNL d   1      25.187 -14.301  -2.733  0.00  0.00     0.294 C 
ATOM      2  O   UNL d   1      24.347 -14.083  -3.592  0.00  0.00    -0.265 OA
ATOM      3  N   UNL d   1      26.287 -13.512  -2.476  0.00  0.00    -0.023 NA
ATOM      4  C   UNL d   1      26.424 -12.394  -3.128  0.00  0.00     0.704 C 
ATOM      5  N   UNL d   1      27.511 -11.604  -2.851  0.00  0.00    -0.224 N 
ATOM      6  N   UNL d   1      25.547 -11.875  -4.048  0.00  0.00    -0.190 N 
ATOM      7  H   UNL d   1      27.520 -10.677  -3.260  0.00  0.00     0.177 HD
ATOM      8  H   UNL d   1      24.760 -12.489  -4.280  0.00  0.00     0.184 HD
ENDROOT
BRANCH   5   9
ATOM      9  C   UNL d   1      28.477 -11.900  -1.825  0.00  0.00     0.142 C 
BRANCH   9  10
ATOM     10  C   UNL d   1      27.811 -11.947  -0.463  0.00  0.00     0.057 C 
BRANCH  10  11
ATOM     11  C   UNL d   1      27.999 -13.202   0.330  0.00  0.00    -0.048 A 
ATOM     12  C   UNL d   1      27.792 -13.198   1.645  0.00  0.00    -0.006 A 
ATOM     13  C   UNL d   1      27.393 -12.149   2.511  0.00  0.00     0.014 A 
ATOM     14  C   UNL d   1      28.117 -14.542   2.128  0.00  0.00     0.038 A 
ATOM     15  C   UNL d   1      27.408 -12.377   3.827  0.00  0.00     0.001 A 
ATOM     16  C   UNL d   1      27.695 -13.702   4.356  0.00  0.00     0.002 A 
ATOM     17  C   UNL d   1      28.036 -14.762   3.590  0.00  0.00     0.030 A 
ATOM     18  N   UNL d   1      28.434 -15.322   1.163  0.00  0.00    -0.385 N 
ATOM     19  C   UNL d   1      28.434 -14.565  -0.132  0.00  0.00     0.155 A 
ATOM     20  H   UNL d   1      28.643 -16.311   1.301  0.00  0.00     0.160 HD
ENDBRANCH  10  11
ENDBRANCH   9  10
ENDBRANCH   5   9
BRANCH   6  21
ATOM     21  C   UNL d   1      25.716 -10.811  -4.946  0.00  0.00     0.050 C 
ATOM     22  C   UNL d   1      26.202 -11.043  -6.238  0.00  0.00     0.036 C 
ATOM     23  C   UNL d   1      26.294  -9.989  -7.160  0.00  0.00    -0.059 C 
ATOM     24  C   UNL d   1      27.012 -10.141  -8.468  0.00  0.00     0.048 C 
ATOM     25  C   UNL d   1      25.786  -8.730  -6.822  0.00  0.00     0.013 C 
ATOM     26  C   UNL d   1      25.343  -8.477  -5.527  0.00  0.00    -0.059 C 
ATOM     27  C   UNL d   1      24.898  -7.119  -5.096  0.00  0.00     0.048 C 
ATOM     28  C   UNL d   1      25.358  -9.509  -4.593  0.00  0.00     0.036 C 
ENDBRANCH   6  21
BRANCH   1  29
ATOM     29  C   UNL d   1      25.061 -15.530  -1.894  0.00  0.00     0.040 A 
ATOM     30  C   UNL d   1      26.236 -16.088  -1.379  0.00  0.00     0.054 A 
ATOM     31  C   UNL d   1      26.179 -17.153  -0.485  0.00  0.00     0.071 A 
ATOM     32  C   UNL d   1      24.940 -17.736  -0.199  0.00  0.00     0.073 A 
ATOM     33  C   UNL d   1      23.758 -17.194  -0.720  0.00  0.00     0.071 A 
ATOM     34  C   UNL d   1      23.818 -16.080  -1.557  0.00  0.00     0.054 A 
BRANCH  31  35
ATOM     35  O   UNL d   1      27.262 -17.658   0.185  0.00  0.00    -0.356 OA
ATOM     36  C   UNL d   1      27.030 -18.849   0.941  0.00  0.00     0.210 C 
ENDBRANCH  31  35
BRANCH  33  37
ATOM     37  O   UNL d   1      22.591 -17.732  -0.246  0.00  0.00    -0.356 OA
ATOM     38  C   UNL d   1      22.145 -18.915  -0.897  0.00  0.00     0.210 C 
ENDBRANCH  33  37
ENDBRANCH   1  29
TORSDOF 7
ENDMDL
MODEL 6
REMARK VINA RESULT:    -8.432      1.932      7.366
REMARK INTER + INTRA:         -12.795
REMARK INTER:                 -10.520
REMARK INTRA:                  -2.274
REMARK CONF_INDEPENDENT:        2.088
REMARK UNBOUND:                -2.274
REMARK  7 active torsions:
REMARK  status: ('A' for Active; 'I' for Inactive)
REMARK    1  A    between atoms: O_2  and  C_3 
REMARK    2  A    between atoms: C_5  and  O_6 
REMARK    3  A    between atoms: C_9  and  C_10 
REMARK       I    between atoms: C_10  and  N_12 
REMARK       I    between atoms: C_13  and  N_14 
REMARK       I    between atoms: C_13  and  N_26 
REMARK    4  A    between atoms: N_14  and  C_15 
REMARK    5  A    between atoms: C_15  and  C_16 
REMARK    6  A    between atoms: C_16  and  C_17 
REMARK    7  A    between atoms: N_26  and  C_27 
ROOT
ATOM      1  C   UNL d   1      25.166 -14.305  -2.932  0.00  0.00     0.294 C 
ATOM      2  O   UNL d   1      24.299 -14.080  -3.762  0.00  0.00    -0.265 OA
ATOM      3  N   UNL d   1      26.293 -13.538  -2.727  0.00  0.00    -0.023 NA
ATOM      4  C   UNL d   1      26.430 -12.433  -3.401  0.00  0.00     0.704 C 
ATOM      5  N   UNL d   1      27.544 -11.664  -3.177  0.00  0.00    -0.224 N 
ATOM      6  N   UNL d   1      25.530 -11.908  -4.295  0.00  0.00    -0.190 N 
ATOM      7  H   UNL d   1      27.557 -10.744  -3.601  0.00  0.00     0.177 HD
ATOM      8  H   UNL d   1      24.722 -12.507  -4.489  0.00  0.00     0.184 HD
ENDROOT
BRANCH   5   9
ATOM      9  C   UNL d   1      28.540 -11.967  -2.183  0.00  0.00     0.142 C 
BRANCH   9  10
ATOM     10  C   UNL d   1      27.925 -11.979  -0.796  0.00  0.00     0.057 C 
BRANCH  10  11
ATOM     11  C   UNL d   1      28.094 -13.236  -0.002  0.00  0.00    -0.048 A 
ATOM     12  C   UNL d   1      27.852 -13.235   1.307  0.00  0.00    -0.006 A 
ATOM     13  C   UNL d   1      27.427 -12.189   2.164  0.00  0.00     0.014 A 
ATOM     14  C   UNL d   1      28.166 -14.580   1.796  0.00  0.00     0.038 A 
ATOM     15  C   UNL d   1      27.408 -12.421   3.480  0.00  0.00     0.001 A 
ATOM     16  C   UNL d   1      27.682 -13.746   4.013  0.00  0.00     0.002 A 
ATOM     17  C   UNL d   1      28.046 -14.804   3.254  0.00  0.00     0.030 A 
ATOM     18  N   UNL d   1      28.510 -15.357   0.837  0.00  0.00    -0.385 N 
ATOM     19  C   UNL d   1      28.544 -14.597  -0.455  0.00  0.00     0.155 A 
ATOM     20  H   UNL d   1      28.718 -16.346   0.979  0.00  0.00     0.160 HD
ENDBRANCH  10  11
ENDBRANCH   9  10
ENDBRANCH   5   9
BRANCH   6  21
ATOM     21  C   UNL d   1      25.689 -10.861  -5.216  0.00  0.00     0.050 C 
ATOM     22  C   UNL d   1      25.256  -9.567  -4.902  0.00  0.00     0.036 C 
ATOM     23  C   UNL d   1      25.488  -8.508  -5.792  0.00  0.00    -0.059 C 
ATOM     24  C   UNL d   1      24.853  -7.162  -5.605  0.00  0.00     0.048 C 
ATOM     25  C   UNL d   1      26.259  -8.726  -6.940  0.00  0.00     0.013 C 
ATOM     26  C   UNL d   1      26.654 -10.015  -7.284  0.00  0.00    -0.059 C 
ATOM     27  C   UNL d   1      27.381 -10.304  -8.556  0.00  0.00     0.048 C 
ATOM     28  C   UNL d   1      26.323 -11.073  -6.442  0.00  0.00     0.036 C 
ENDBRANCH   6  21
BRANCH   1  29
ATOM     29  C   UNL d   1      25.044 -15.519  -2.069  0.00  0.00     0.040 A 
ATOM     30  C   UNL d   1      26.226 -16.122  -1.627  0.00  0.00     0.054 A 
ATOM     31  C   UNL d   1      26.184 -17.174  -0.717  0.00  0.00     0.071 A 
ATOM     32  C   UNL d   1      24.944 -17.700  -0.341  0.00  0.00     0.073 A 
ATOM     33  C   UNL d   1      23.754 -17.112  -0.789  0.00  0.00     0.071 A 
ATOM     34  C   UNL d   1      23.805 -16.011  -1.643  0.00  0.00     0.054 A 
BRANCH  31  35
ATOM     35  O   UNL d   1      27.288 -17.719  -0.114  0.00  0.00    -0.356 OA
ATOM     36  C   UNL d   1      27.030 -18.603   0.980  0.00  0.00     0.210 C 
ENDBRANCH  31  35
BRANCH  33  37
ATOM     37  O   UNL d   1      22.600 -17.594  -0.231  0.00  0.00    -0.356 OA
ATOM     38  C   UNL d   1      22.282 -18.946  -0.535  0.00  0.00     0.210 C 
ENDBRANCH  33  37
ENDBRANCH   1  29
TORSDOF 7
ENDMDL
MODEL 7
REMARK VINA RESULT:    -8.366      1.943      6.643
REMARK INTER + INTRA:         -12.636
REMARK INTER:                 -10.454
REMARK INTRA:                  -2.182
REMARK CONF_INDEPENDENT:        2.088
REMARK UNBOUND:                -2.182
REMARK  7 active torsions:
REMARK  status: ('A' for Active; 'I' for Inactive)
REMARK    1  A    between atoms: O_2  and  C_3 
REMARK    2  A    between atoms: C_5  and  O_6 
REMARK    3  A    between atoms: C_9  and  C_10 
REMARK       I    between atoms: C_10  and  N_12 
REMARK       I    between atoms: C_13  and  N_14 
REMARK       I    between atoms: C_13  and  N_26 
REMARK    4  A    between atoms: N_14  and  C_15 
REMARK    5  A    between atoms: C_15  and  C_16 
REMARK    6  A    between atoms: C_16  and  C_17 
REMARK    7  A    between atoms: N_26  and  C_27 
ROOT
ATOM      1  C   UNL d   1      27.221 -12.585  -0.603  0.00  0.00     0.294 C 
ATOM      2  O   UNL d   1      27.070 -11.666   0.186  0.00  0.00    -0.265 OA
ATOM      3  N   UNL d   1      27.926 -13.744  -0.352  0.00  0.00    -0.023 NA
ATOM      4  C   UNL d   1      28.411 -13.938   0.839  0.00  0.00     0.704 C 
ATOM      5  N   UNL d   1      29.093 -15.102   1.087  0.00  0.00    -0.224 N 
ATOM      6  N   UNL d   1      28.261 -13.109   1.924  0.00  0.00    -0.190 N 
ATOM      7  H   UNL d   1      29.332 -15.296   2.052  0.00  0.00     0.177 HD
ATOM      8  H   UNL d   1      27.788 -12.223   1.722  0.00  0.00     0.184 HD
ENDROOT
BRANCH   5   9
ATOM      9  C   UNL d   1      29.244 -16.162   0.125  0.00  0.00     0.142 C 
BRANCH   9  10
ATOM     10  C   UNL d   1      28.085 -17.137   0.219  0.00  0.00     0.057 C 
BRANCH  10  11
ATOM     11  C   UNL d   1      26.980 -16.957  -0.774  0.00  0.00    -0.048 A 
ATOM     12  C   UNL d   1      25.759 -17.412  -0.501  0.00  0.00    -0.006 A 
ATOM     13  C   UNL d   1      25.261 -18.087   0.642  0.00  0.00     0.014 A 
ATOM     14  C   UNL d   1      24.934 -17.141  -1.682  0.00  0.00     0.038 A 
ATOM     15  C   UNL d   1      24.018 -18.575   0.595  0.00  0.00     0.001 A 
ATOM     16  C   UNL d   1      23.150 -18.308  -0.541  0.00  0.00     0.002 A 
ATOM     17  C   UNL d   1      23.537 -17.631  -1.645  0.00  0.00     0.030 A 
ATOM     18  N   UNL d   1      25.594 -16.507  -2.577  0.00  0.00    -0.385 N 
ATOM     19  C   UNL d   1      27.016 -16.324  -2.136  0.00  0.00     0.155 A 
ATOM     20  H   UNL d   1      25.171 -16.187  -3.449  0.00  0.00     0.160 HD
ENDBRANCH  10  11
ENDBRANCH   9  10
ENDBRANCH   5   9
BRANCH   6  21
ATOM     21  C   UNL d   1      28.922 -13.124   3.162  0.00  0.00     0.050 C 
ATOM     22  C   UNL d   1      29.966 -12.230   3.421  0.00  0.00     0.036 C 
ATOM     23  C   UNL d   1      30.570 -12.194   4.687  0.00  0.00    -0.059 C 
ATOM     24  C   UNL d   1      31.829 -11.419   4.943  0.00  0.00     0.048 C 
ATOM     25  C   UNL d   1      30.046 -12.973   5.725  0.00  0.00     0.013 C 
ATOM     26  C   UNL d   1      29.039 -13.899   5.467  0.00  0.00    -0.059 C 
ATOM     27  C   UNL d   1      28.530 -14.825   6.520  0.00  0.00     0.048 C 
ATOM     28  C   UNL d   1      28.523 -13.996   4.178  0.00  0.00     0.036 C 
ENDBRANCH   6  21
BRANCH   1  29
ATOM     29  C   UNL d   1      26.633 -12.469  -1.972  0.00  0.00     0.040 A 
ATOM     30  C   UNL d   1      26.713 -11.226  -2.608  0.00  0.00     0.054 A 
ATOM     31  C   UNL d   1      26.304 -11.083  -3.931  0.00  0.00     0.071 A 
ATOM     32  C   UNL d   1      25.702 -12.167  -4.578  0.00  0.00     0.073 A 
ATOM     33  C   UNL d   1      25.605 -13.413  -3.944  0.00  0.00     0.071 A 
ATOM     34  C   UNL d   1      26.084 -13.567  -2.644  0.00  0.00     0.054 A 
BRANCH  31  35
ATOM     35  O   UNL d   1      26.489  -9.950  -4.678  0.00  0.00    -0.356 OA
ATOM     36  C   UNL d   1      25.484  -9.676  -5.658  0.00  0.00     0.210 C 
ENDBRANCH  31  35
BRANCH  33  37
ATOM     37  O   UNL d   1      25.155 -14.447  -4.721  0.00  0.00    -0.356 OA
ATOM     38  C   UNL d   1      26.160 -15.265  -5.307  0.00  0.00     0.210 C 
ENDBRANCH  33  37
ENDBRANCH   1  29
TORSDOF 7
ENDMDL
MODEL 8
REMARK VINA RESULT:    -8.090      2.224      3.597
REMARK INTER + INTRA:         -12.511
REMARK INTER:                 -10.178
REMARK INTRA:                  -2.333
REMARK CONF_INDEPENDENT:        2.088
REMARK UNBOUND:                -2.333
REMARK  7 active torsions:
REMARK  status: ('A' for Active; 'I' for Inactive)
REMARK    1  A    between atoms: O_2  and  C_3 
REMARK    2  A    between atoms: C_5  and  O_6 
REMARK    3  A    between atoms: C_9  and  C_10 
REMARK       I    between atoms: C_10  and  N_12 
REMARK       I    between atoms: C_13  and  N_14 
REMARK       I    between atoms: C_13  and  N_26 
REMARK    4  A    between atoms: N_14  and  C_15 
REMARK    5  A    between atoms: C_15  and  C_16 
REMARK    6  A    between atoms: C_16  and  C_17 
REMARK    7  A    between atoms: N_26  and  C_27 
ROOT
ATOM      1  C   UNL d   1      25.727 -13.060  -4.039  0.00  0.00     0.294 C 
ATOM      2  O   UNL d   1      25.135 -14.022  -4.501  0.00  0.00    -0.265 OA
ATOM      3  N   UNL d   1      26.150 -12.936  -2.732  0.00  0.00    -0.023 NA
ATOM      4  C   UNL d   1      25.994 -13.944  -1.924  0.00  0.00     0.704 C 
ATOM      5  N   UNL d   1      26.436 -13.820  -0.631  0.00  0.00    -0.224 N 
ATOM      6  N   UNL d   1      25.473 -15.173  -2.247  0.00  0.00    -0.190 N 
ATOM      7  H   UNL d   1      26.438 -14.662  -0.066  0.00  0.00     0.177 HD
ATOM      8  H   UNL d   1      25.107 -15.244  -3.200  0.00  0.00     0.184 HD
ENDROOT
BRANCH   5   9
ATOM      9  C   UNL d   1      27.134 -12.666  -0.129  0.00  0.00     0.142 C 
BRANCH   9  10
ATOM     10  C   UNL d   1      28.631 -12.907  -0.123  0.00  0.00     0.057 C 
BRANCH  10  11
ATOM     11  C   UNL d   1      29.078 -14.335  -0.165  0.00  0.00    -0.048 A 
ATOM     12  C   UNL d   1      29.263 -14.941  -1.336  0.00  0.00    -0.006 A 
ATOM     13  C   UNL d   1      29.110 -14.456  -2.659  0.00  0.00     0.014 A 
ATOM     14  C   UNL d   1      29.632 -16.328  -1.039  0.00  0.00     0.038 A 
ATOM     15  C   UNL d   1      29.214 -15.327  -3.666  0.00  0.00     0.001 A 
ATOM     16  C   UNL d   1      29.607 -16.707  -3.427  0.00  0.00     0.002 A 
ATOM     17  C   UNL d   1      29.817 -17.230  -2.198  0.00  0.00     0.030 A 
ATOM     18  N   UNL d   1      29.727 -16.527   0.222  0.00  0.00    -0.385 N 
ATOM     19  C   UNL d   1      29.354 -15.281   0.969  0.00  0.00     0.155 A 
ATOM     20  H   UNL d   1      30.023 -17.419   0.617  0.00  0.00     0.160 HD
ENDBRANCH  10  11
ENDBRANCH   9  10
ENDBRANCH   5   9
BRANCH   6  21
ATOM     21  C   UNL d   1      25.068 -16.222  -1.408  0.00  0.00     0.050 C 
ATOM     22  C   UNL d   1      23.768 -16.735  -1.490  0.00  0.00     0.036 C 
ATOM     23  C   UNL d   1      23.391 -17.837  -0.707  0.00  0.00    -0.059 C 
ATOM     24  C   UNL d   1      21.961 -18.276  -0.594  0.00  0.00     0.048 C 
ATOM     25  C   UNL d   1      24.353 -18.495   0.067  0.00  0.00     0.013 C 
ATOM     26  C   UNL d   1      25.634 -17.967   0.191  0.00  0.00    -0.059 C 
ATOM     27  C   UNL d   1      26.655 -18.577   1.094  0.00  0.00     0.048 C 
ATOM     28  C   UNL d   1      25.961 -16.811  -0.511  0.00  0.00     0.036 C 
ENDBRANCH   6  21
BRANCH   1  29
ATOM     29  C   UNL d   1      26.007 -11.888  -4.923  0.00  0.00     0.040 A 
ATOM     30  C   UNL d   1      26.708 -12.124  -6.110  0.00  0.00     0.054 A 
ATOM     31  C   UNL d   1      26.888 -11.103  -7.039  0.00  0.00     0.071 A 
ATOM     32  C   UNL d   1      26.462  -9.810  -6.719  0.00  0.00     0.073 A 
ATOM     33  C   UNL d   1      25.770  -9.560  -5.527  0.00  0.00     0.071 A 
ATOM     34  C   UNL d   1      25.530 -10.605  -4.634  0.00  0.00     0.054 A 
BRANCH  31  35
ATOM     35  O   UNL d   1      27.422 -11.281  -8.288  0.00  0.00    -0.356 OA
ATOM     36  C   UNL d   1      26.529 -11.071  -9.385  0.00  0.00     0.210 C 
ENDBRANCH  31  35
BRANCH  33  37
ATOM     37  O   UNL d   1      25.251  -8.301  -5.388  0.00  0.00    -0.356 OA
ATOM     38  C   UNL d   1      23.855  -8.175  -5.633  0.00  0.00     0.210 C 
ENDBRANCH  33  37
ENDBRANCH   1  29
TORSDOF 7
ENDMDL
MODEL 9
REMARK VINA RESULT:    -7.477      3.229      8.333
REMARK INTER + INTRA:         -12.618
REMARK INTER:                  -9.565
REMARK INTRA:                  -3.052
REMARK CONF_INDEPENDENT:        2.088
REMARK UNBOUND:                -3.052
REMARK  7 active torsions:
REMARK  status: ('A' for Active; 'I' for Inactive)
REMARK    1  A    between atoms: O_2  and  C_3 
REMARK    2  A    between atoms: C_5  and  O_6 
REMARK    3  A    between atoms: C_9  and  C_10 
REMARK       I    between atoms: C_10  and  N_12 
REMARK       I    between atoms: C_13  and  N_14 
REMARK       I    between atoms: C_13  and  N_26 
REMARK    4  A    between atoms: N_14  and  C_15 
REMARK    5  A    between atoms: C_15  and  C_16 
REMARK    6  A    between atoms: C_16  and  C_17 
REMARK    7  A    between atoms: N_26  and  C_27 
ROOT
ATOM      1  C   UNL d   1      25.047 -14.293  -2.951  0.00  0.00     0.294 C 
ATOM      2  O   UNL d   1      24.463 -14.212  -4.020  0.00  0.00    -0.265 OA
ATOM      3  N   UNL d   1      25.879 -13.330  -2.422  0.00  0.00    -0.023 NA
ATOM      4  C   UNL d   1      26.007 -12.197  -3.050  0.00  0.00     0.704 C 
ATOM      5  N   UNL d   1      26.820 -11.236  -2.507  0.00  0.00    -0.224 N 
ATOM      6  N   UNL d   1      25.354 -11.826  -4.200  0.00  0.00    -0.190 N 
ATOM      7  H   UNL d   1      26.789 -10.316  -2.932  0.00  0.00     0.177 HD
ATOM      8  H   UNL d   1      24.782 -12.563  -4.622  0.00  0.00     0.184 HD
ENDROOT
BRANCH   5   9
ATOM      9  C   UNL d   1      27.488 -11.373  -1.239  0.00  0.00     0.142 C 
BRANCH   9  10
ATOM     10  C   UNL d   1      28.854 -12.008  -1.420  0.00  0.00     0.057 C 
BRANCH  10  11
ATOM     11  C   UNL d   1      28.883 -13.496  -1.577  0.00  0.00    -0.048 A 
ATOM     12  C   UNL d   1      28.964 -14.037  -2.791  0.00  0.00    -0.006 A 
ATOM     13  C   UNL d   1      29.036 -13.426  -4.068  0.00  0.00     0.014 A 
ATOM     14  C   UNL d   1      28.908 -15.490  -2.610  0.00  0.00     0.038 A 
ATOM     15  C   UNL d   1      28.953 -14.210  -5.147  0.00  0.00     0.001 A 
ATOM     16  C   UNL d   1      28.927 -15.658  -5.022  0.00  0.00     0.002 A 
ATOM     17  C   UNL d   1      28.905 -16.314  -3.840  0.00  0.00     0.030 A 
ATOM     18  N   UNL d   1      28.864 -15.805  -1.370  0.00  0.00    -0.385 N 
ATOM     19  C   UNL d   1      28.810 -14.567  -0.525  0.00  0.00     0.155 A 
ATOM     20  H   UNL d   1      28.873 -16.773  -1.048  0.00  0.00     0.160 HD
ENDBRANCH  10  11
ENDBRANCH   9  10
ENDBRANCH   5   9
BRANCH   6  21
ATOM     21  C   UNL d   1      25.591 -10.738  -5.054  0.00  0.00     0.050 C 
ATOM     22  C   UNL d   1      26.224 -10.929  -6.288  0.00  0.00     0.036 C 
ATOM     23  C   UNL d   1      26.387  -9.852  -7.173  0.00  0.00    -0.059 C 
ATOM     24  C   UNL d   1      27.249  -9.957  -8.396  0.00  0.00     0.048 C 
ATOM     25  C   UNL d   1      25.810  -8.614  -6.869  0.00  0.00     0.013 C 
ATOM     26  C   UNL d   1      25.220  -8.402  -5.627  0.00  0.00    -0.059 C 
ATOM     27  C   UNL d   1      24.692  -7.066  -5.222  0.00  0.00     0.048 C 
ATOM     28  C   UNL d   1      25.160  -9.454  -4.716  0.00  0.00     0.036 C 
ENDBRANCH   6  21
BRANCH   1  29
ATOM     29  C   UNL d   1      24.895 -15.536  -2.135  0.00  0.00     0.040 A 
ATOM     30  C   UNL d   1      26.056 -16.243  -1.807  0.00  0.00     0.054 A 
ATOM     31  C   UNL d   1      25.999 -17.333  -0.944  0.00  0.00     0.071 A 
ATOM     32  C   UNL d   1      24.751 -17.785  -0.501  0.00  0.00     0.073 A 
ATOM     33  C   UNL d   1      23.581 -17.092  -0.834  0.00  0.00     0.071 A 
ATOM     34  C   UNL d   1      23.655 -15.957  -1.641  0.00  0.00     0.054 A 
BRANCH  31  35
ATOM     35  O   UNL d   1      27.097 -17.984  -0.448  0.00  0.00    -0.356 OA
ATOM     36  C   UNL d   1      26.946 -18.567   0.850  0.00  0.00     0.210 C 
ENDBRANCH  31  35
BRANCH  33  37
ATOM     37  O   UNL d   1      22.436 -17.516  -0.215  0.00  0.00    -0.356 OA
ATOM     38  C   UNL d   1      22.144 -18.903  -0.332  0.00  0.00     0.210 C 
ENDBRANCH  33  37
ENDBRANCH   1  29
TORSDOF 7
ENDMDL
