MODEL 1
REMARK VINA RESULT:   -11.073      0.000      0.000
REMARK INTER + INTRA:         -17.970
REMARK INTER:                 -14.354
REMARK INTRA:                  -3.616
REMARK CONF_INDEPENDENT:        3.281
REMARK UNBOUND:                -3.616
REMARK  11 active torsions:
REMARK  status: ('A' for Active; 'I' for Inactive)
REMARK    1  A    between atoms: C_6  and  O_7 
REMARK    2  A    between atoms: O_7  and  C_8 
REMARK    3  A    between atoms: C_8  and  C_10 
REMARK    4  A    between atoms: C_10  and  C_11 
REMARK    5  A    between atoms: C_10  and  N_21 
REMARK    6  A    between atoms: C_11  and  C_12 
REMARK       I    between atoms: N_21  and  C_22 
REMARK    7  A    between atoms: C_22  and  O_24 
REMARK    8  A    between atoms: O_24  and  C_25 
REMARK    9  A    between atoms: C_25  and  C_26 
REMARK   10  A    between atoms: C_37  and  O_38 
REMARK   11  A    between atoms: O_38  and  C_39 
ROOT
ATOM      1  C   UNL d   1      25.246 -16.317  -0.908  0.00  0.00     0.191 C 
ENDROOT
BRANCH   1   2
ATOM      2  C   UNL d   1      26.624 -16.692  -0.304  0.00  0.00     0.287 C 
ATOM      3  O   UNL d   1      26.676 -17.605   0.525  0.00  0.00    -0.262 OA
BRANCH   2   4
ATOM      4  O   UNL d   1      27.756 -15.948  -0.777  0.00  0.00    -0.277 OA
BRANCH   4   5
ATOM      5  C   UNL d   1      28.855 -16.542  -1.528  0.00  0.00     0.082 C 
ATOM      6  C   UNL d   1      29.350 -15.882  -2.629  0.00  0.00     0.075 C 
ATOM      7  C   UNL d   1      30.452 -16.364  -3.305  0.00  0.00     0.092 C 
ATOM      8  O   UNL d   1      30.725 -15.682  -4.435  0.00  0.00    -0.311 OA
ATOM      9  C   UNL d   1      31.191 -17.441  -2.872  0.00  0.00     0.051 C 
ATOM     10  C   UNL d   1      31.332 -16.376  -5.443  0.00  0.00     0.087 C 
ATOM     11  C   UNL d   1      30.956 -15.715  -6.730  0.00  0.00     0.080 C 
ATOM     12  C   UNL d   1      32.143 -17.444  -5.221  0.00  0.00     0.156 C 
ATOM     13  C   UNL d   1      32.235 -17.944  -3.791  0.00  0.00     0.221 C 
ATOM     14  O   UNL d   1      33.036 -18.796  -3.427  0.00  0.00    -0.284 OA
ATOM     15  C   UNL d   1      30.840 -18.026  -1.663  0.00  0.00     0.021 C 
ATOM     16  C   UNL d   1      29.608 -17.642  -1.043  0.00  0.00     0.038 C 
BRANCH  12  17
ATOM     17  O   UNL d   1      32.863 -18.183  -6.157  0.00  0.00    -0.304 OA
BRANCH  17  18
ATOM     18  C   UNL d   1      32.228 -18.711  -7.253  0.00  0.00     0.076 C 
ATOM     19  C   UNL d   1      32.873 -18.633  -8.485  0.00  0.00     0.037 C 
ATOM     20  C   UNL d   1      32.280 -19.215  -9.607  0.00  0.00     0.003 C 
ATOM     21  C   UNL d   1      31.127 -19.990  -9.470  0.00  0.00     0.000 C 
ATOM     22  C   UNL d   1      30.491 -20.073  -8.235  0.00  0.00     0.003 C 
ATOM     23  C   UNL d   1      30.989 -19.348  -7.151  0.00  0.00     0.037 C 
ENDBRANCH  17  18
ENDBRANCH  12  17
ENDBRANCH   4   5
ENDBRANCH   2   4
ENDBRANCH   1   2
BRANCH   1  24
ATOM     24  C   UNL d   1      25.169 -16.421  -2.452  0.00  0.00     0.076 C 
BRANCH  24  25
ATOM     25  C   UNL d   1      25.232 -15.121  -3.181  0.00  0.00    -0.028 C 
ATOM     26  C   UNL d   1      24.331 -14.077  -3.141  0.00  0.00     0.096 C 
ATOM     27  N   UNL d   1      24.854 -13.033  -3.862  0.00  0.00    -0.365 N 
ATOM     28  C   UNL d   1      26.012 -13.429  -4.485  0.00  0.00     0.042 A 
ATOM     29  H   UNL d   1      24.409 -12.139  -4.009  0.00  0.00     0.165 HD
ATOM     30  C   UNL d   1      26.912 -12.728  -5.296  0.00  0.00     0.030 A 
ATOM     31  C   UNL d   1      26.161 -14.781  -4.198  0.00  0.00    -0.002 A 
ATOM     32  C   UNL d   1      27.928 -13.469  -5.901  0.00  0.00     0.002 A 
ATOM     33  C   UNL d   1      27.997 -14.853  -5.751  0.00  0.00     0.001 A 
ATOM     34  C   UNL d   1      27.145 -15.512  -4.871  0.00  0.00     0.014 A 
ENDBRANCH  24  25
ENDBRANCH   1  24
BRANCH   1  35
ATOM     35  N   UNL d   1      24.266 -17.294  -0.315  0.00  0.00    -0.323 N 
ATOM     36  C   UNL d   1      22.903 -17.131  -0.392  0.00  0.00     0.361 C 
ATOM     37  O   UNL d   1      22.363 -16.173  -0.895  0.00  0.00    -0.238 OA
ATOM     38  H   UNL d   1      24.631 -18.155   0.083  0.00  0.00     0.165 HD
BRANCH  36  39
ATOM     39  O   UNL d   1      22.240 -18.187   0.162  0.00  0.00    -0.299 OA
BRANCH  39  40
ATOM     40  C   UNL d   1      21.203 -18.746  -0.687  0.00  0.00     0.219 C 
BRANCH  40  41
ATOM     41  C   UNL d   1      20.140 -19.471   0.123  0.00  0.00    -0.034 A 
ATOM     42  C   UNL d   1      20.270 -19.649   1.514  0.00  0.00     0.009 A 
ATOM     43  C   UNL d   1      19.362 -20.453   2.218  0.00  0.00     0.001 A 
ATOM     44  C   UNL d   1      18.272 -21.018   1.559  0.00  0.00     0.000 A 
ATOM     45  C   UNL d   1      18.118 -20.825   0.191  0.00  0.00     0.001 A 
ATOM     46  C   UNL d   1      19.051 -20.072  -0.520  0.00  0.00     0.009 A 
ENDBRANCH  40  41
ENDBRANCH  39  40
ENDBRANCH  36  39
ENDBRANCH   1  35
TORSDOF 11
ENDMDL
MODEL 2
REMARK VINA RESULT:   -10.594      5.198      8.686
REMARK INTER + INTRA:         -17.397
REMARK INTER:                 -13.875
REMARK INTRA:                  -3.522
REMARK CONF_INDEPENDENT:        3.281
REMARK UNBOUND:                -3.522
REMARK  11 active torsions:
REMARK  status: ('A' for Active; 'I' for Inactive)
REMARK    1  A    between atoms: C_6  and  O_7 
REMARK    2  A    between atoms: O_7  and  C_8 
REMARK    3  A    between atoms: C_8  and  C_10 
REMARK    4  A    between atoms: C_10  and  C_11 
REMARK    5  A    between atoms: C_10  and  N_21 
REMARK    6  A    between atoms: C_11  and  C_12 
REMARK       I    between atoms: N_21  and  C_22 
REMARK    7  A    between atoms: C_22  and  O_24 
REMARK    8  A    between atoms: O_24  and  C_25 
REMARK    9  A    between atoms: C_25  and  C_26 
REMARK   10  A    between atoms: C_37  and  O_38 
REMARK   11  A    between atoms: O_38  and  C_39 
ROOT
ATOM      1  C   UNL d   1      25.707 -16.093  -0.852  0.00  0.00     0.191 C 
ENDROOT
BRANCH   1   2
ATOM      2  C   UNL d   1      27.021 -16.450  -0.109  0.00  0.00     0.287 C 
ATOM      3  O   UNL d   1      27.162 -17.597   0.322  0.00  0.00    -0.262 OA
BRANCH   2   4
ATOM      4  O   UNL d   1      27.997 -15.405   0.005  0.00  0.00    -0.277 OA
BRANCH   4   5
ATOM      5  C   UNL d   1      27.910 -14.322   0.977  0.00  0.00     0.082 C 
ATOM      6  C   UNL d   1      29.067 -13.717   1.414  0.00  0.00     0.075 C 
ATOM      7  C   UNL d   1      29.018 -12.627   2.257  0.00  0.00     0.092 C 
ATOM      8  O   UNL d   1      30.232 -12.239   2.699  0.00  0.00    -0.311 OA
ATOM      9  C   UNL d   1      27.846 -12.003   2.618  0.00  0.00     0.051 C 
ATOM     10  C   UNL d   1      30.279 -11.642   3.927  0.00  0.00     0.087 C 
ATOM     11  C   UNL d   1      31.639 -11.895   4.494  0.00  0.00     0.080 C 
ATOM     12  C   UNL d   1      29.240 -10.936   4.445  0.00  0.00     0.156 C 
ATOM     13  C   UNL d   1      27.941 -10.960   3.661  0.00  0.00     0.221 C 
ATOM     14  O   UNL d   1      26.978 -10.252   3.933  0.00  0.00    -0.284 OA
ATOM     15  C   UNL d   1      26.665 -12.464   2.052  0.00  0.00     0.021 C 
ATOM     16  C   UNL d   1      26.686 -13.690   1.312  0.00  0.00     0.038 C 
BRANCH  12  17
ATOM     17  O   UNL d   1      29.197 -10.233   5.647  0.00  0.00    -0.304 OA
BRANCH  17  18
ATOM     18  C   UNL d   1      29.054 -10.907   6.834  0.00  0.00     0.076 C 
ATOM     19  C   UNL d   1      28.270 -12.059   6.844  0.00  0.00     0.037 C 
ATOM     20  C   UNL d   1      28.154 -12.799   8.022  0.00  0.00     0.003 C 
ATOM     21  C   UNL d   1      28.930 -12.470   9.136  0.00  0.00     0.000 C 
ATOM     22  C   UNL d   1      29.719 -11.325   9.119  0.00  0.00     0.003 C 
ATOM     23  C   UNL d   1      29.699 -10.489   8.000  0.00  0.00     0.037 C 
ENDBRANCH  17  18
ENDBRANCH  12  17
ENDBRANCH   4   5
ENDBRANCH   2   4
ENDBRANCH   1   2
BRANCH   1  24
ATOM     24  C   UNL d   1      25.857 -15.930  -2.385  0.00  0.00     0.076 C 
BRANCH  24  25
ATOM     25  C   UNL d   1      25.711 -14.536  -2.893  0.00  0.00    -0.028 C 
ATOM     26  C   UNL d   1      24.808 -14.056  -3.820  0.00  0.00     0.096 C 
ATOM     27  N   UNL d   1      24.947 -12.693  -3.886  0.00  0.00    -0.365 N 
ATOM     28  C   UNL d   1      26.018 -12.294  -3.125  0.00  0.00     0.042 A 
ATOM     29  H   UNL d   1      24.418 -12.077  -4.486  0.00  0.00     0.165 HD
ATOM     30  C   UNL d   1      26.539 -11.024  -2.855  0.00  0.00     0.030 A 
ATOM     31  C   UNL d   1      26.600 -13.460  -2.638  0.00  0.00    -0.002 A 
ATOM     32  C   UNL d   1      27.742 -10.970  -2.150  0.00  0.00     0.002 A 
ATOM     33  C   UNL d   1      28.421 -12.134  -1.793  0.00  0.00     0.001 A 
ATOM     34  C   UNL d   1      27.840 -13.382  -1.996  0.00  0.00     0.014 A 
ENDBRANCH  24  25
ENDBRANCH   1  24
BRANCH   1  35
ATOM     35  N   UNL d   1      24.768 -17.240  -0.583  0.00  0.00    -0.323 N 
ATOM     36  C   UNL d   1      23.400 -17.122  -0.654  0.00  0.00     0.361 C 
ATOM     37  O   UNL d   1      22.821 -16.087  -0.889  0.00  0.00    -0.238 OA
ATOM     38  H   UNL d   1      25.170 -18.160  -0.428  0.00  0.00     0.165 HD
BRANCH  36  39
ATOM     39  O   UNL d   1      22.782 -18.319  -0.436  0.00  0.00    -0.299 OA
BRANCH  39  40
ATOM     40  C   UNL d   1      21.528 -18.477  -1.149  0.00  0.00     0.219 C 
BRANCH  40  41
ATOM     41  C   UNL d   1      20.476 -19.165  -0.295  0.00  0.00    -0.034 A 
ATOM     42  C   UNL d   1      20.650 -19.335   1.092  0.00  0.00     0.009 A 
ATOM     43  C   UNL d   1      19.746 -20.108   1.835  0.00  0.00     0.001 A 
ATOM     44  C   UNL d   1      18.618 -20.648   1.221  0.00  0.00     0.000 A 
ATOM     45  C   UNL d   1      18.421 -20.463  -0.142  0.00  0.00     0.001 A 
ATOM     46  C   UNL d   1      19.348 -19.742  -0.893  0.00  0.00     0.009 A 
ENDBRANCH  40  41
ENDBRANCH  39  40
ENDBRANCH  36  39
ENDBRANCH   1  35
TORSDOF 11
ENDMDL
MODEL 3
REMARK VINA RESULT:   -10.488      1.795      2.629
REMARK INTER + INTRA:         -18.043
REMARK INTER:                 -13.770
REMARK INTRA:                  -4.273
REMARK CONF_INDEPENDENT:        3.281
REMARK UNBOUND:                -4.273
REMARK  11 active torsions:
REMARK  status: ('A' for Active; 'I' for Inactive)
REMARK    1  A    between atoms: C_6  and  O_7 
REMARK    2  A    between atoms: O_7  and  C_8 
REMARK    3  A    between atoms: C_8  and  C_10 
REMARK    4  A    between atoms: C_10  and  C_11 
REMARK    5  A    between atoms: C_10  and  N_21 
REMARK    6  A    between atoms: C_11  and  C_12 
REMARK       I    between atoms: N_21  and  C_22 
REMARK    7  A    between atoms: C_22  and  O_24 
REMARK    8  A    between atoms: O_24  and  C_25 
REMARK    9  A    between atoms: C_25  and  C_26 
REMARK   10  A    between atoms: C_37  and  O_38 
REMARK   11  A    between atoms: O_38  and  C_39 
ROOT
ATOM      1  C   UNL d   1      24.955 -16.633  -0.960  0.00  0.00     0.191 C 
ENDROOT
BRANCH   1   2
ATOM      2  C   UNL d   1      25.983 -17.322  -0.026  0.00  0.00     0.287 C 
ATOM      3  O   UNL d   1      25.760 -18.477   0.347  0.00  0.00    -0.262 OA
BRANCH   2   4
ATOM      4  O   UNL d   1      27.145 -16.557   0.324  0.00  0.00    -0.277 OA
BRANCH   4   5
ATOM      5  C   UNL d   1      28.085 -16.022  -0.654  0.00  0.00     0.082 C 
ATOM      6  C   UNL d   1      28.282 -16.699  -1.836  0.00  0.00     0.075 C 
ATOM      7  C   UNL d   1      29.088 -16.172  -2.824  0.00  0.00     0.092 C 
ATOM      8  O   UNL d   1      29.286 -17.017  -3.857  0.00  0.00    -0.311 OA
ATOM      9  C   UNL d   1      29.642 -14.915  -2.757  0.00  0.00     0.051 C 
ATOM     10  C   UNL d   1      30.466 -16.896  -4.534  0.00  0.00     0.087 C 
ATOM     11  C   UNL d   1      30.778 -18.231  -5.129  0.00  0.00     0.080 C 
ATOM     12  C   UNL d   1      31.148 -15.724  -4.627  0.00  0.00     0.156 C 
ATOM     13  C   UNL d   1      30.619 -14.561  -3.808  0.00  0.00     0.221 C 
ATOM     14  O   UNL d   1      31.045 -13.417  -3.912  0.00  0.00    -0.284 OA
ATOM     15  C   UNL d   1      29.318 -14.121  -1.665  0.00  0.00     0.021 C 
ATOM     16  C   UNL d   1      28.623 -14.713  -0.562  0.00  0.00     0.038 C 
BRANCH  12  17
ATOM     17  O   UNL d   1      32.317 -15.467  -5.340  0.00  0.00    -0.304 OA
BRANCH  17  18
ATOM     18  C   UNL d   1      32.249 -14.956  -6.612  0.00  0.00     0.076 C 
ATOM     19  C   UNL d   1      31.346 -13.924  -6.857  0.00  0.00     0.037 C 
ATOM     20  C   UNL d   1      31.297 -13.343  -8.125  0.00  0.00     0.003 C 
ATOM     21  C   UNL d   1      32.240 -13.691  -9.094  0.00  0.00     0.000 C 
ATOM     22  C   UNL d   1      33.147 -14.715  -8.842  0.00  0.00     0.003 C 
ATOM     23  C   UNL d   1      33.082 -15.415  -7.635  0.00  0.00     0.037 C 
ENDBRANCH  17  18
ENDBRANCH  12  17
ENDBRANCH   4   5
ENDBRANCH   2   4
ENDBRANCH   1   2
BRANCH   1  24
ATOM     24  C   UNL d   1      25.375 -16.575  -2.450  0.00  0.00     0.076 C 
BRANCH  24  25
ATOM     25  C   UNL d   1      25.341 -15.218  -3.068  0.00  0.00    -0.028 C 
ATOM     26  C   UNL d   1      24.442 -14.198  -2.836  0.00  0.00     0.096 C 
ATOM     27  N   UNL d   1      24.869 -13.088  -3.521  0.00  0.00    -0.365 N 
ATOM     28  C   UNL d   1      25.950 -13.409  -4.305  0.00  0.00     0.042 A 
ATOM     29  H   UNL d   1      24.402 -12.193  -3.539  0.00  0.00     0.165 HD
ATOM     30  C   UNL d   1      26.743 -12.627  -5.152  0.00  0.00     0.030 A 
ATOM     31  C   UNL d   1      26.142 -14.778  -4.153  0.00  0.00    -0.002 A 
ATOM     32  C   UNL d   1      27.688 -13.297  -5.931  0.00  0.00     0.002 A 
ATOM     33  C   UNL d   1      27.786 -14.687  -5.908  0.00  0.00     0.001 A 
ATOM     34  C   UNL d   1      27.047 -15.433  -4.995  0.00  0.00     0.014 A 
ENDBRANCH  24  25
ENDBRANCH   1  24
BRANCH   1  35
ATOM     35  N   UNL d   1      23.697 -17.454  -0.850  0.00  0.00    -0.323 N 
ATOM     36  C   UNL d   1      22.437 -16.903  -0.874  0.00  0.00     0.361 C 
ATOM     37  O   UNL d   1      22.218 -15.716  -0.936  0.00  0.00    -0.238 OA
ATOM     38  H   UNL d   1      23.786 -18.466  -0.846  0.00  0.00     0.165 HD
BRANCH  36  39
ATOM     39  O   UNL d   1      21.470 -17.864  -0.828  0.00  0.00    -0.299 OA
BRANCH  39  40
ATOM     40  C   UNL d   1      21.749 -18.941   0.106  0.00  0.00     0.219 C 
BRANCH  40  41
ATOM     41  C   UNL d   1      20.472 -19.570   0.640  0.00  0.00    -0.034 A 
ATOM     42  C   UNL d   1      20.253 -19.730   2.022  0.00  0.00     0.009 A 
ATOM     43  C   UNL d   1      19.145 -20.452   2.489  0.00  0.00     0.001 A 
ATOM     44  C   UNL d   1      18.203 -20.947   1.590  0.00  0.00     0.000 A 
ATOM     45  C   UNL d   1      18.394 -20.769   0.224  0.00  0.00     0.001 A 
ATOM     46  C   UNL d   1      19.524 -20.101  -0.244  0.00  0.00     0.009 A 
ENDBRANCH  40  41
ENDBRANCH  39  40
ENDBRANCH  36  39
ENDBRANCH   1  35
TORSDOF 11
ENDMDL
MODEL 4
REMARK VINA RESULT:   -10.248      1.644      3.797
REMARK INTER + INTRA:         -17.672
REMARK INTER:                 -13.530
REMARK INTRA:                  -4.142
REMARK CONF_INDEPENDENT:        3.281
REMARK UNBOUND:                -4.142
REMARK  11 active torsions:
REMARK  status: ('A' for Active; 'I' for Inactive)
REMARK    1  A    between atoms: C_6  and  O_7 
REMARK    2  A    between atoms: O_7  and  C_8 
REMARK    3  A    between atoms: C_8  and  C_10 
REMARK    4  A    between atoms: C_10  and  C_11 
REMARK    5  A    between atoms: C_10  and  N_21 
REMARK    6  A    between atoms: C_11  and  C_12 
REMARK       I    between atoms: N_21  and  C_22 
REMARK    7  A    between atoms: C_22  and  O_24 
REMARK    8  A    between atoms: O_24  and  C_25 
REMARK    9  A    between atoms: C_25  and  C_26 
REMARK   10  A    between atoms: C_37  and  O_38 
REMARK   11  A    between atoms: O_38  and  C_39 
ROOT
ATOM      1  C   UNL d   1      24.952 -15.777  -1.826  0.00  0.00     0.191 C 
ENDROOT
BRANCH   1   2
ATOM      2  C   UNL d   1      24.618 -14.551  -2.715  0.00  0.00     0.287 C 
ATOM      3  O   UNL d   1      23.478 -14.450  -3.176  0.00  0.00    -0.262 OA
BRANCH   2   4
ATOM      4  O   UNL d   1      25.674 -13.602  -2.922  0.00  0.00    -0.277 OA
BRANCH   4   5
ATOM      5  C   UNL d   1      26.771 -13.806  -3.861  0.00  0.00     0.082 C 
ATOM      6  C   UNL d   1      27.264 -15.076  -4.052  0.00  0.00     0.075 C 
ATOM      7  C   UNL d   1      28.233 -15.319  -5.003  0.00  0.00     0.092 C 
ATOM      8  O   UNL d   1      28.705 -16.583  -4.971  0.00  0.00    -0.311 OA
ATOM      9  C   UNL d   1      28.680 -14.366  -5.889  0.00  0.00     0.051 C 
ATOM     10  C   UNL d   1      29.996 -16.769  -5.379  0.00  0.00     0.087 C 
ATOM     11  C   UNL d   1      30.513 -17.986  -4.683  0.00  0.00     0.080 C 
ATOM     12  C   UNL d   1      30.607 -15.963  -6.287  0.00  0.00     0.156 C 
ATOM     13  C   UNL d   1      29.840 -14.730  -6.729  0.00  0.00     0.221 C 
ATOM     14  O   UNL d   1      30.206 -14.003  -7.645  0.00  0.00    -0.284 OA
ATOM     15  C   UNL d   1      28.076 -13.117  -5.856  0.00  0.00     0.021 C 
ATOM     16  C   UNL d   1      27.193 -12.804  -4.772  0.00  0.00     0.038 C 
BRANCH  12  17
ATOM     17  O   UNL d   1      31.886 -16.093  -6.824  0.00  0.00    -0.304 OA
BRANCH  17  18
ATOM     18  C   UNL d   1      32.298 -17.297  -7.337  0.00  0.00     0.076 C 
ATOM     19  C   UNL d   1      33.395 -17.921  -6.747  0.00  0.00     0.037 C 
ATOM     20  C   UNL d   1      33.800 -19.174  -7.208  0.00  0.00     0.003 C 
ATOM     21  C   UNL d   1      33.030 -19.859  -8.150  0.00  0.00     0.000 C 
ATOM     22  C   UNL d   1      31.930 -19.237  -8.730  0.00  0.00     0.003 C 
ATOM     23  C   UNL d   1      31.627 -17.915  -8.395  0.00  0.00     0.037 C 
ENDBRANCH  17  18
ENDBRANCH  12  17
ENDBRANCH   4   5
ENDBRANCH   2   4
ENDBRANCH   1   2
BRANCH   1  24
ATOM     24  C   UNL d   1      25.897 -15.472  -0.637  0.00  0.00     0.076 C 
BRANCH  24  25
ATOM     25  C   UNL d   1      27.171 -16.248  -0.624  0.00  0.00    -0.028 C 
ATOM     26  C   UNL d   1      27.406 -17.493  -0.077  0.00  0.00     0.096 C 
ATOM     27  N   UNL d   1      28.681 -17.874  -0.413  0.00  0.00    -0.365 N 
ATOM     28  C   UNL d   1      29.326 -16.841  -1.047  0.00  0.00     0.042 A 
ATOM     29  H   UNL d   1      29.125 -18.739  -0.144  0.00  0.00     0.165 HD
ATOM     30  C   UNL d   1      30.610 -16.750  -1.596  0.00  0.00     0.030 A 
ATOM     31  C   UNL d   1      28.442 -15.767  -1.029  0.00  0.00    -0.002 A 
ATOM     32  C   UNL d   1      31.020 -15.494  -2.044  0.00  0.00     0.002 A 
ATOM     33  C   UNL d   1      30.206 -14.373  -1.889  0.00  0.00     0.001 A 
ATOM     34  C   UNL d   1      28.902 -14.505  -1.421  0.00  0.00     0.014 A 
ENDBRANCH  24  25
ENDBRANCH   1  24
BRANCH   1  35
ATOM     35  N   UNL d   1      23.631 -16.247  -1.276  0.00  0.00    -0.323 N 
ATOM     36  C   UNL d   1      23.490 -17.408  -0.552  0.00  0.00     0.361 C 
ATOM     37  O   UNL d   1      24.392 -18.180  -0.329  0.00  0.00    -0.238 OA
ATOM     38  H   UNL d   1      22.827 -15.633  -1.373  0.00  0.00     0.165 HD
BRANCH  36  39
ATOM     39  O   UNL d   1      22.209 -17.570  -0.112  0.00  0.00    -0.299 OA
BRANCH  39  40
ATOM     40  C   UNL d   1      21.431 -18.518  -0.890  0.00  0.00     0.219 C 
BRANCH  40  41
ATOM     41  C   UNL d   1      20.510 -19.349  -0.011  0.00  0.00    -0.034 A 
ATOM     42  C   UNL d   1      19.432 -20.075  -0.553  0.00  0.00     0.009 A 
ATOM     43  C   UNL d   1      18.503 -20.705   0.287  0.00  0.00     0.001 A 
ATOM     44  C   UNL d   1      18.685 -20.689   1.668  0.00  0.00     0.000 A 
ATOM     45  C   UNL d   1      19.761 -20.000   2.213  0.00  0.00     0.001 A 
ATOM     46  C   UNL d   1      20.655 -19.326   1.382  0.00  0.00     0.009 A 
ENDBRANCH  40  41
ENDBRANCH  39  40
ENDBRANCH  36  39
ENDBRANCH   1  35
TORSDOF 11
ENDMDL
MODEL 5
REMARK VINA RESULT:   -10.207      2.267      4.590
REMARK INTER + INTRA:         -17.707
REMARK INTER:                 -13.489
REMARK INTRA:                  -4.218
REMARK CONF_INDEPENDENT:        3.281
REMARK UNBOUND:                -4.218
REMARK  11 active torsions:
REMARK  status: ('A' for Active; 'I' for Inactive)
REMARK    1  A    between atoms: C_6  and  O_7 
REMARK    2  A    between atoms: O_7  and  C_8 
REMARK    3  A    between atoms: C_8  and  C_10 
REMARK    4  A    between atoms: C_10  and  C_11 
REMARK    5  A    between atoms: C_10  and  N_21 
REMARK    6  A    between atoms: C_11  and  C_12 
REMARK       I    between atoms: N_21  and  C_22 
REMARK    7  A    between atoms: C_22  and  O_24 
REMARK    8  A    between atoms: O_24  and  C_25 
REMARK    9  A    between atoms: C_25  and  C_26 
REMARK   10  A    between atoms: C_37  and  O_38 
REMARK   11  A    between atoms: O_38  and  C_39 
ROOT
ATOM      1  C   UNL d   1      24.937 -15.672  -1.928  0.00  0.00     0.191 C 
ENDROOT
BRANCH   1   2
ATOM      2  C   UNL d   1      24.449 -14.457  -2.758  0.00  0.00     0.287 C 
ATOM      3  O   UNL d   1      23.283 -14.448  -3.161  0.00  0.00    -0.262 OA
BRANCH   2   4
ATOM      4  O   UNL d   1      25.401 -13.408  -2.980  0.00  0.00    -0.277 OA
BRANCH   4   5
ATOM      5  C   UNL d   1      26.409 -13.442  -4.034  0.00  0.00     0.082 C 
ATOM      6  C   UNL d   1      26.970 -14.647  -4.388  0.00  0.00     0.075 C 
ATOM      7  C   UNL d   1      27.853 -14.730  -5.445  0.00  0.00     0.092 C 
ATOM      8  O   UNL d   1      28.415 -15.950  -5.575  0.00  0.00    -0.311 OA
ATOM      9  C   UNL d   1      28.138 -13.672  -6.277  0.00  0.00     0.051 C 
ATOM     10  C   UNL d   1      29.667 -15.996  -6.119  0.00  0.00     0.087 C 
ATOM     11  C   UNL d   1      30.338 -17.222  -5.590  0.00  0.00     0.080 C 
ATOM     12  C   UNL d   1      30.124 -15.069  -7.002  0.00  0.00     0.156 C 
ATOM     13  C   UNL d   1      29.230 -13.869  -7.253  0.00  0.00     0.221 C 
ATOM     14  O   UNL d   1      29.448 -13.040  -8.129  0.00  0.00    -0.284 OA
ATOM     15  C   UNL d   1      27.452 -12.483  -6.071  0.00  0.00     0.021 C 
ATOM     16  C   UNL d   1      26.664 -12.336  -4.885  0.00  0.00     0.038 C 
BRANCH  12  17
ATOM     17  O   UNL d   1      31.347 -15.050  -7.668  0.00  0.00    -0.304 OA
BRANCH  17  18
ATOM     18  C   UNL d   1      32.380 -14.284  -7.189  0.00  0.00     0.076 C 
ATOM     19  C   UNL d   1      32.927 -13.320  -8.032  0.00  0.00     0.037 C 
ATOM     20  C   UNL d   1      33.938 -12.485  -7.554  0.00  0.00     0.003 C 
ATOM     21  C   UNL d   1      34.296 -12.518  -6.205  0.00  0.00     0.000 C 
ATOM     22  C   UNL d   1      33.740 -13.475  -5.363  0.00  0.00     0.003 C 
ATOM     23  C   UNL d   1      32.857 -14.424  -5.883  0.00  0.00     0.037 C 
ENDBRANCH  17  18
ENDBRANCH  12  17
ENDBRANCH   4   5
ENDBRANCH   2   4
ENDBRANCH   1   2
BRANCH   1  24
ATOM     24  C   UNL d   1      25.933 -15.321  -0.795  0.00  0.00     0.076 C 
BRANCH  24  25
ATOM     25  C   UNL d   1      27.192 -16.121  -0.784  0.00  0.00    -0.028 C 
ATOM     26  C   UNL d   1      27.453 -17.290  -0.100  0.00  0.00     0.096 C 
ATOM     27  N   UNL d   1      28.689 -17.744  -0.486  0.00  0.00    -0.365 N 
ATOM     28  C   UNL d   1      29.294 -16.818  -1.300  0.00  0.00     0.042 A 
ATOM     29  H   UNL d   1      29.142 -18.579  -0.143  0.00  0.00     0.165 HD
ATOM     30  C   UNL d   1      30.529 -16.832  -1.959  0.00  0.00     0.030 A 
ATOM     31  C   UNL d   1      28.431 -15.729  -1.351  0.00  0.00    -0.002 A 
ATOM     32  C   UNL d   1      30.917 -15.655  -2.600  0.00  0.00     0.002 A 
ATOM     33  C   UNL d   1      30.136 -14.503  -2.526  0.00  0.00     0.001 A 
ATOM     34  C   UNL d   1      28.875 -14.540  -1.940  0.00  0.00     0.014 A 
ENDBRANCH  24  25
ENDBRANCH   1  24
BRANCH   1  35
ATOM     35  N   UNL d   1      23.697 -16.262  -1.309  0.00  0.00    -0.323 N 
ATOM     36  C   UNL d   1      23.702 -17.435  -0.591  0.00  0.00     0.361 C 
ATOM     37  O   UNL d   1      24.680 -18.126  -0.430  0.00  0.00    -0.238 OA
ATOM     38  H   UNL d   1      22.838 -15.721  -1.351  0.00  0.00     0.165 HD
BRANCH  36  39
ATOM     39  O   UNL d   1      22.468 -17.714  -0.080  0.00  0.00    -0.299 OA
BRANCH  39  40
ATOM     40  C   UNL d   1      21.654 -18.565  -0.928  0.00  0.00     0.219 C 
BRANCH  40  41
ATOM     41  C   UNL d   1      20.536 -19.237  -0.146  0.00  0.00    -0.034 A 
ATOM     42  C   UNL d   1      20.644 -19.470   1.238  0.00  0.00     0.009 A 
ATOM     43  C   UNL d   1      19.675 -20.229   1.911  0.00  0.00     0.001 A 
ATOM     44  C   UNL d   1      18.551 -20.690   1.230  0.00  0.00     0.000 A 
ATOM     45  C   UNL d   1      18.419 -20.441  -0.131  0.00  0.00     0.001 A 
ATOM     46  C   UNL d   1      19.409 -19.735  -0.813  0.00  0.00     0.009 A 
ENDBRANCH  40  41
ENDBRANCH  39  40
ENDBRANCH  36  39
ENDBRANCH   1  35
TORSDOF 11
ENDMDL
MODEL 6
REMARK VINA RESULT:    -9.918      3.347      5.587
REMARK INTER + INTRA:         -18.341
REMARK INTER:                 -13.199
REMARK INTRA:                  -5.142
REMARK CONF_INDEPENDENT:        3.281
REMARK UNBOUND:                -5.142
REMARK  11 active torsions:
REMARK  status: ('A' for Active; 'I' for Inactive)
REMARK    1  A    between atoms: C_6  and  O_7 
REMARK    2  A    between atoms: O_7  and  C_8 
REMARK    3  A    between atoms: C_8  and  C_10 
REMARK    4  A    between atoms: C_10  and  C_11 
REMARK    5  A    between atoms: C_10  and  N_21 
REMARK    6  A    between atoms: C_11  and  C_12 
REMARK       I    between atoms: N_21  and  C_22 
REMARK    7  A    between atoms: C_22  and  O_24 
REMARK    8  A    between atoms: O_24  and  C_25 
REMARK    9  A    between atoms: C_25  and  C_26 
REMARK   10  A    between atoms: C_37  and  O_38 
REMARK   11  A    between atoms: O_38  and  C_39 
ROOT
ATOM      1  C   UNL d   1      25.004 -16.646  -0.895  0.00  0.00     0.191 C 
ENDROOT
BRANCH   1   2
ATOM      2  C   UNL d   1      26.040 -17.413  -0.033  0.00  0.00     0.287 C 
ATOM      3  O   UNL d   1      25.716 -18.501   0.450  0.00  0.00    -0.262 OA
BRANCH   2   4
ATOM      4  O   UNL d   1      27.326 -16.796   0.123  0.00  0.00    -0.277 OA
BRANCH   4   5
ATOM      5  C   UNL d   1      27.773 -15.651  -0.660  0.00  0.00     0.082 C 
ATOM      6  C   UNL d   1      27.738 -14.396  -0.095  0.00  0.00     0.075 C 
ATOM      7  C   UNL d   1      28.244 -13.305  -0.770  0.00  0.00     0.092 C 
ATOM      8  O   UNL d   1      28.011 -12.134  -0.141  0.00  0.00    -0.311 OA
ATOM      9  C   UNL d   1      28.911 -13.400  -1.970  0.00  0.00     0.051 C 
ATOM     10  C   UNL d   1      27.894 -11.024  -0.929  0.00  0.00     0.087 C 
ATOM     11  C   UNL d   1      27.030 -10.048  -0.198  0.00  0.00     0.080 C 
ATOM     12  C   UNL d   1      28.515 -10.903  -2.131  0.00  0.00     0.156 C 
ATOM     13  C   UNL d   1      29.239 -12.131  -2.651  0.00  0.00     0.221 C 
ATOM     14  O   UNL d   1      29.961 -12.117  -3.642  0.00  0.00    -0.284 OA
ATOM     15  C   UNL d   1      29.134 -14.669  -2.488  0.00  0.00     0.021 C 
ATOM     16  C   UNL d   1      28.474 -15.788  -1.885  0.00  0.00     0.038 C 
BRANCH  12  17
ATOM     17  O   UNL d   1      28.523  -9.801  -2.984  0.00  0.00    -0.304 OA
BRANCH  17  18
ATOM     18  C   UNL d   1      27.508  -9.625  -3.891  0.00  0.00     0.076 C 
ATOM     19  C   UNL d   1      27.836  -9.594  -5.245  0.00  0.00     0.037 C 
ATOM     20  C   UNL d   1      26.819  -9.476  -6.193  0.00  0.00     0.003 C 
ATOM     21  C   UNL d   1      25.481  -9.534  -5.799  0.00  0.00     0.000 C 
ATOM     22  C   UNL d   1      25.157  -9.575  -4.447  0.00  0.00     0.003 C 
ATOM     23  C   UNL d   1      26.174  -9.517  -3.491  0.00  0.00     0.037 C 
ENDBRANCH  17  18
ENDBRANCH  12  17
ENDBRANCH   4   5
ENDBRANCH   2   4
ENDBRANCH   1   2
BRANCH   1  24
ATOM     24  C   UNL d   1      25.314 -16.628  -2.412  0.00  0.00     0.076 C 
BRANCH  24  25
ATOM     25  C   UNL d   1      25.312 -15.278  -3.046  0.00  0.00    -0.028 C 
ATOM     26  C   UNL d   1      24.410 -14.251  -2.861  0.00  0.00     0.096 C 
ATOM     27  N   UNL d   1      24.869 -13.151  -3.540  0.00  0.00    -0.365 N 
ATOM     28  C   UNL d   1      25.978 -13.486  -4.278  0.00  0.00     0.042 A 
ATOM     29  H   UNL d   1      24.408 -12.254  -3.587  0.00  0.00     0.165 HD
ATOM     30  C   UNL d   1      26.808 -12.718  -5.102  0.00  0.00     0.030 A 
ATOM     31  C   UNL d   1      26.156 -14.855  -4.104  0.00  0.00    -0.002 A 
ATOM     32  C   UNL d   1      27.778 -13.401  -5.837  0.00  0.00     0.002 A 
ATOM     33  C   UNL d   1      27.867 -14.791  -5.795  0.00  0.00     0.001 A 
ATOM     34  C   UNL d   1      27.090 -15.523  -4.903  0.00  0.00     0.014 A 
ENDBRANCH  24  25
ENDBRANCH   1  24
BRANCH   1  35
ATOM     35  N   UNL d   1      23.696 -17.361  -0.683  0.00  0.00    -0.323 N 
ATOM     36  C   UNL d   1      22.473 -16.768  -0.894  0.00  0.00     0.361 C 
ATOM     37  O   UNL d   1      22.328 -15.613  -1.219  0.00  0.00    -0.238 OA
ATOM     38  H   UNL d   1      23.724 -18.352  -0.458  0.00  0.00     0.165 HD
BRANCH  36  39
ATOM     39  O   UNL d   1      21.449 -17.648  -0.698  0.00  0.00    -0.299 OA
BRANCH  39  40
ATOM     40  C   UNL d   1      21.777 -18.750   0.189  0.00  0.00     0.219 C 
BRANCH  40  41
ATOM     41  C   UNL d   1      20.544 -19.556   0.566  0.00  0.00    -0.034 A 
ATOM     42  C   UNL d   1      19.621 -19.987  -0.406  0.00  0.00     0.009 A 
ATOM     43  C   UNL d   1      18.414 -20.591  -0.025  0.00  0.00     0.001 A 
ATOM     44  C   UNL d   1      18.154 -20.846   1.320  0.00  0.00     0.000 A 
ATOM     45  C   UNL d   1      19.071 -20.451   2.287  0.00  0.00     0.001 A 
ATOM     46  C   UNL d   1      20.246 -19.800   1.913  0.00  0.00     0.009 A 
ENDBRANCH  40  41
ENDBRANCH  39  40
ENDBRANCH  36  39
ENDBRANCH   1  35
TORSDOF 11
ENDMDL
MODEL 7
REMARK VINA RESULT:    -9.602      5.719      9.961
REMARK INTER + INTRA:         -17.617
REMARK INTER:                 -12.884
REMARK INTRA:                  -4.733
REMARK CONF_INDEPENDENT:        3.281
REMARK UNBOUND:                -4.733
REMARK  11 active torsions:
REMARK  status: ('A' for Active; 'I' for Inactive)
REMARK    1  A    between atoms: C_6  and  O_7 
REMARK    2  A    between atoms: O_7  and  C_8 
REMARK    3  A    between atoms: C_8  and  C_10 
REMARK    4  A    between atoms: C_10  and  C_11 
REMARK    5  A    between atoms: C_10  and  N_21 
REMARK    6  A    between atoms: C_11  and  C_12 
REMARK       I    between atoms: N_21  and  C_22 
REMARK    7  A    between atoms: C_22  and  O_24 
REMARK    8  A    between atoms: O_24  and  C_25 
REMARK    9  A    between atoms: C_25  and  C_26 
REMARK   10  A    between atoms: C_37  and  O_38 
REMARK   11  A    between atoms: O_38  and  C_39 
ROOT
ATOM      1  C   UNL d   1      27.035 -12.196  -2.220  0.00  0.00     0.191 C 
ENDROOT
BRANCH   1   2
ATOM      2  C   UNL d   1      27.272 -12.019  -0.698  0.00  0.00     0.287 C 
ATOM      3  O   UNL d   1      27.794 -10.973  -0.300  0.00  0.00    -0.262 OA
BRANCH   2   4
ATOM      4  O   UNL d   1      26.843 -13.094   0.148  0.00  0.00    -0.277 OA
BRANCH   4   5
ATOM      5  C   UNL d   1      27.348 -13.311   1.498  0.00  0.00     0.082 C 
ATOM      6  C   UNL d   1      27.186 -12.324   2.443  0.00  0.00     0.075 C 
ATOM      7  C   UNL d   1      27.563 -12.533   3.753  0.00  0.00     0.092 C 
ATOM      8  O   UNL d   1      27.467 -11.426   4.518  0.00  0.00    -0.311 OA
ATOM      9  C   UNL d   1      28.003 -13.747   4.228  0.00  0.00     0.051 C 
ATOM     10  C   UNL d   1      28.333 -11.327   5.570  0.00  0.00     0.087 C 
ATOM     11  C   UNL d   1      28.532  -9.872   5.848  0.00  0.00     0.080 C 
ATOM     12  C   UNL d   1      28.845 -12.411   6.211  0.00  0.00     0.156 C 
ATOM     13  C   UNL d   1      28.533 -13.768   5.608  0.00  0.00     0.221 C 
ATOM     14  O   UNL d   1      28.803 -14.828   6.162  0.00  0.00    -0.284 OA
ATOM     15  C   UNL d   1      28.006 -14.824   3.352  0.00  0.00     0.021 C 
ATOM     16  C   UNL d   1      27.777 -14.582   1.960  0.00  0.00     0.038 C 
BRANCH  12  17
ATOM     17  O   UNL d   1      29.677 -12.432   7.328  0.00  0.00    -0.304 OA
BRANCH  17  18
ATOM     18  C   UNL d   1      29.229 -12.966   8.510  0.00  0.00     0.076 C 
ATOM     19  C   UNL d   1      28.376 -12.196   9.296  0.00  0.00     0.037 C 
ATOM     20  C   UNL d   1      27.856 -12.734  10.474  0.00  0.00     0.003 C 
ATOM     21  C   UNL d   1      28.072 -14.078  10.787  0.00  0.00     0.000 C 
ATOM     22  C   UNL d   1      28.917 -14.848   9.994  0.00  0.00     0.003 C 
ATOM     23  C   UNL d   1      29.575 -14.259   8.912  0.00  0.00     0.037 C 
ENDBRANCH  17  18
ENDBRANCH  12  17
ENDBRANCH   4   5
ENDBRANCH   2   4
ENDBRANCH   1   2
BRANCH   1  24
ATOM     24  C   UNL d   1      28.319 -12.449  -3.047  0.00  0.00     0.076 C 
BRANCH  24  25
ATOM     25  C   UNL d   1      28.571 -13.874  -3.409  0.00  0.00    -0.028 C 
ATOM     26  C   UNL d   1      28.336 -14.503  -4.614  0.00  0.00     0.096 C 
ATOM     27  N   UNL d   1      28.839 -15.777  -4.537  0.00  0.00    -0.365 N 
ATOM     28  C   UNL d   1      29.270 -16.034  -3.259  0.00  0.00     0.042 A 
ATOM     29  H   UNL d   1      28.803 -16.468  -5.272  0.00  0.00     0.165 HD
ATOM     30  C   UNL d   1      29.875 -17.163  -2.696  0.00  0.00     0.030 A 
ATOM     31  C   UNL d   1      28.949 -14.906  -2.511  0.00  0.00    -0.002 A 
ATOM     32  C   UNL d   1      30.059 -17.159  -1.313  0.00  0.00     0.002 A 
ATOM     33  C   UNL d   1      29.598 -16.103  -0.528  0.00  0.00     0.001 A 
ATOM     34  C   UNL d   1      29.079 -14.956  -1.119  0.00  0.00     0.014 A 
ENDBRANCH  24  25
ENDBRANCH   1  24
BRANCH   1  35
ATOM     35  N   UNL d   1      26.137 -13.399  -2.350  0.00  0.00    -0.323 N 
ATOM     36  C   UNL d   1      25.302 -13.598  -3.424  0.00  0.00     0.361 C 
ATOM     37  O   UNL d   1      25.170 -12.814  -4.334  0.00  0.00    -0.238 OA
ATOM     38  H   UNL d   1      26.221 -14.135  -1.655  0.00  0.00     0.165 HD
BRANCH  36  39
ATOM     39  O   UNL d   1      24.650 -14.793  -3.335  0.00  0.00    -0.299 OA
BRANCH  39  40
ATOM     40  C   UNL d   1      25.530 -15.938  -3.179  0.00  0.00     0.219 C 
BRANCH  40  41
ATOM     41  C   UNL d   1      25.290 -16.659  -1.862  0.00  0.00    -0.034 A 
ATOM     42  C   UNL d   1      26.327 -16.856  -0.930  0.00  0.00     0.009 A 
ATOM     43  C   UNL d   1      26.126 -17.657   0.203  0.00  0.00     0.001 A 
ATOM     44  C   UNL d   1      24.869 -18.199   0.461  0.00  0.00     0.000 A 
ATOM     45  C   UNL d   1      23.829 -17.987  -0.436  0.00  0.00     0.001 A 
ATOM     46  C   UNL d   1      24.043 -17.237  -1.592  0.00  0.00     0.009 A 
ENDBRANCH  40  41
ENDBRANCH  39  40
ENDBRANCH  36  39
ENDBRANCH   1  35
TORSDOF 11
ENDMDL
MODEL 8
REMARK VINA RESULT:    -8.970      4.489      9.808
REMARK INTER + INTRA:         -17.764
REMARK INTER:                 -12.251
REMARK INTRA:                  -5.512
REMARK CONF_INDEPENDENT:        3.281
REMARK UNBOUND:                -5.512
REMARK  11 active torsions:
REMARK  status: ('A' for Active; 'I' for Inactive)
REMARK    1  A    between atoms: C_6  and  O_7 
REMARK    2  A    between atoms: O_7  and  C_8 
REMARK    3  A    between atoms: C_8  and  C_10 
REMARK    4  A    between atoms: C_10  and  C_11 
REMARK    5  A    between atoms: C_10  and  N_21 
REMARK    6  A    between atoms: C_11  and  C_12 
REMARK       I    between atoms: N_21  and  C_22 
REMARK    7  A    between atoms: C_22  and  O_24 
REMARK    8  A    between atoms: O_24  and  C_25 
REMARK    9  A    between atoms: C_25  and  C_26 
REMARK   10  A    between atoms: C_37  and  O_38 
REMARK   11  A    between atoms: O_38  and  C_39 
ROOT
ATOM      1  C   UNL d   1      28.918 -14.886  -4.255  0.00  0.00     0.191 C 
ENDROOT
BRANCH   1   2
ATOM      2  C   UNL d   1      29.586 -13.793  -3.382  0.00  0.00     0.287 C 
ATOM      3  O   UNL d   1      30.816 -13.699  -3.394  0.00  0.00    -0.262 OA
BRANCH   2   4
ATOM      4  O   UNL d   1      28.706 -12.948  -2.628  0.00  0.00    -0.277 OA
BRANCH   4   5
ATOM      5  C   UNL d   1      28.395 -13.157  -1.219  0.00  0.00     0.082 C 
ATOM      6  C   UNL d   1      29.423 -13.224  -0.307  0.00  0.00     0.075 C 
ATOM      7  C   UNL d   1      29.163 -13.322   1.044  0.00  0.00     0.092 C 
ATOM      8  O   UNL d   1      30.271 -13.515   1.788  0.00  0.00    -0.311 OA
ATOM      9  C   UNL d   1      27.897 -13.242   1.577  0.00  0.00     0.051 C 
ATOM     10  C   UNL d   1      30.117 -14.210   2.954  0.00  0.00     0.087 C 
ATOM     11  C   UNL d   1      31.426 -14.864   3.259  0.00  0.00     0.080 C 
ATOM     12  C   UNL d   1      28.957 -14.219   3.661  0.00  0.00     0.156 C 
ATOM     13  C   UNL d   1      27.762 -13.538   3.019  0.00  0.00     0.221 C 
ATOM     14  O   UNL d   1      26.703 -13.344   3.605  0.00  0.00    -0.284 OA
ATOM     15  C   UNL d   1      26.843 -12.988   0.709  0.00  0.00     0.021 C 
ATOM     16  C   UNL d   1      27.079 -13.049  -0.701  0.00  0.00     0.038 C 
BRANCH  12  17
ATOM     17  O   UNL d   1      28.705 -14.832   4.886  0.00  0.00    -0.304 OA
BRANCH  17  18
ATOM     18  C   UNL d   1      28.912 -14.144   6.056  0.00  0.00     0.076 C 
ATOM     19  C   UNL d   1      28.005 -13.143   6.398  0.00  0.00     0.037 C 
ATOM     20  C   UNL d   1      28.156 -12.467   7.610  0.00  0.00     0.003 C 
ATOM     21  C   UNL d   1      29.116 -12.887   8.533  0.00  0.00     0.000 C 
ATOM     22  C   UNL d   1      30.013 -13.893   8.192  0.00  0.00     0.003 C 
ATOM     23  C   UNL d   1      29.973 -14.450   6.911  0.00  0.00     0.037 C 
ENDBRANCH  17  18
ENDBRANCH  12  17
ENDBRANCH   4   5
ENDBRANCH   2   4
ENDBRANCH   1   2
BRANCH   1  24
ATOM     24  C   UNL d   1      29.256 -16.340  -3.840  0.00  0.00     0.076 C 
BRANCH  24  25
ATOM     25  C   UNL d   1      29.090 -16.641  -2.389  0.00  0.00    -0.028 C 
ATOM     26  C   UNL d   1      30.041 -17.092  -1.497  0.00  0.00     0.096 C 
ATOM     27  N   UNL d   1      29.481 -17.105  -0.244  0.00  0.00    -0.365 N 
ATOM     28  C   UNL d   1      28.143 -16.806  -0.327  0.00  0.00     0.042 A 
ATOM     29  H   UNL d   1      29.944 -17.396   0.604  0.00  0.00     0.165 HD
ATOM     30  C   UNL d   1      27.162 -16.671   0.662  0.00  0.00     0.030 A 
ATOM     31  C   UNL d   1      27.860 -16.682  -1.683  0.00  0.00    -0.002 A 
ATOM     32  C   UNL d   1      25.846 -16.504   0.230  0.00  0.00     0.002 A 
ATOM     33  C   UNL d   1      25.523 -16.537  -1.126  0.00  0.00     0.001 A 
ATOM     34  C   UNL d   1      26.525 -16.584  -2.090  0.00  0.00     0.014 A 
ENDBRANCH  24  25
ENDBRANCH   1  24
BRANCH   1  35
ATOM     35  N   UNL d   1      27.434 -14.678  -4.097  0.00  0.00    -0.323 N 
ATOM     36  C   UNL d   1      26.516 -15.072  -5.042  0.00  0.00     0.361 C 
ATOM     37  O   UNL d   1      26.809 -15.574  -6.102  0.00  0.00    -0.238 OA
ATOM     38  H   UNL d   1      27.095 -14.308  -3.213  0.00  0.00     0.165 HD
BRANCH  36  39
ATOM     39  O   UNL d   1      25.238 -14.832  -4.629  0.00  0.00    -0.299 OA
BRANCH  39  40
ATOM     40  C   UNL d   1      25.135 -13.848  -3.566  0.00  0.00     0.219 C 
BRANCH  40  41
ATOM     41  C   UNL d   1      25.549 -12.463  -4.037  0.00  0.00    -0.034 A 
ATOM     42  C   UNL d   1      25.798 -12.192  -5.396  0.00  0.00     0.009 A 
ATOM     43  C   UNL d   1      26.328 -10.955  -5.791  0.00  0.00     0.001 A 
ATOM     44  C   UNL d   1      26.537  -9.951  -4.849  0.00  0.00     0.000 A 
ATOM     45  C   UNL d   1      26.267 -10.197  -3.508  0.00  0.00     0.001 A 
ATOM     46  C   UNL d   1      25.792 -11.445  -3.106  0.00  0.00     0.009 A 
ENDBRANCH  40  41
ENDBRANCH  39  40
ENDBRANCH  36  39
ENDBRANCH   1  35
TORSDOF 11
ENDMDL
MODEL 9
REMARK VINA RESULT:    -8.675      4.166      8.440
REMARK INTER + INTRA:         -17.929
REMARK INTER:                 -11.956
REMARK INTRA:                  -5.973
REMARK CONF_INDEPENDENT:        3.281
REMARK UNBOUND:                -5.973
REMARK  11 active torsions:
REMARK  status: ('A' for Active; 'I' for Inactive)
REMARK    1  A    between atoms: C_6  and  O_7 
REMARK    2  A    between atoms: O_7  and  C_8 
REMARK    3  A    between atoms: C_8  and  C_10 
REMARK    4  A    between atoms: C_10  and  C_11 
REMARK    5  A    between atoms: C_10  and  N_21 
REMARK    6  A    between atoms: C_11  and  C_12 
REMARK       I    between atoms: N_21  and  C_22 
REMARK    7  A    between atoms: C_22  and  O_24 
REMARK    8  A    between atoms: O_24  and  C_25 
REMARK    9  A    between atoms: C_25  and  C_26 
REMARK   10  A    between atoms: C_37  and  O_38 
REMARK   11  A    between atoms: O_38  and  C_39 
ROOT
ATOM      1  C   UNL d   1      27.372 -12.764  -5.824  0.00  0.00     0.191 C 
ENDROOT
BRANCH   1   2
ATOM      2  C   UNL d   1      27.391 -11.292  -5.337  0.00  0.00     0.287 C 
ATOM      3  O   UNL d   1      28.236 -10.526  -5.808  0.00  0.00    -0.262 OA
BRANCH   2   4
ATOM      4  O   UNL d   1      26.395 -10.922  -4.374  0.00  0.00    -0.277 OA
BRANCH   4   5
ATOM      5  C   UNL d   1      26.623 -10.921  -2.934  0.00  0.00     0.082 C 
ATOM      6  C   UNL d   1      27.033 -12.081  -2.319  0.00  0.00     0.075 C 
ATOM      7  C   UNL d   1      27.353 -12.092  -0.977  0.00  0.00     0.092 C 
ATOM      8  O   UNL d   1      27.603 -13.329  -0.499  0.00  0.00    -0.311 OA
ATOM      9  C   UNL d   1      27.403 -10.957  -0.202  0.00  0.00     0.051 C 
ATOM     10  C   UNL d   1      27.324 -13.547   0.821  0.00  0.00     0.087 C 
ATOM     11  C   UNL d   1      27.030 -15.004   0.980  0.00  0.00     0.080 C 
ATOM     12  C   UNL d   1      27.366 -12.563   1.757  0.00  0.00     0.156 C 
ATOM     13  C   UNL d   1      27.590 -11.150   1.251  0.00  0.00     0.221 C 
ATOM     14  O   UNL d   1      27.797 -10.195   1.991  0.00  0.00    -0.284 OA
ATOM     15  C   UNL d   1      27.178  -9.736  -0.826  0.00  0.00     0.021 C 
ATOM     16  C   UNL d   1      26.686  -9.728  -2.170  0.00  0.00     0.038 C 
BRANCH  12  17
ATOM     17  O   UNL d   1      27.169 -12.678   3.131  0.00  0.00    -0.304 OA
BRANCH  17  18
ATOM     18  C   UNL d   1      28.001 -13.470   3.882  0.00  0.00     0.076 C 
ATOM     19  C   UNL d   1      29.299 -13.679   3.423  0.00  0.00     0.037 C 
ATOM     20  C   UNL d   1      30.187 -14.429   4.195  0.00  0.00     0.003 C 
ATOM     21  C   UNL d   1      29.824 -14.844   5.478  0.00  0.00     0.000 C 
ATOM     22  C   UNL d   1      28.530 -14.625   5.938  0.00  0.00     0.003 C 
ATOM     23  C   UNL d   1      27.590 -14.027   5.096  0.00  0.00     0.037 C 
ENDBRANCH  17  18
ENDBRANCH  12  17
ENDBRANCH   4   5
ENDBRANCH   2   4
ENDBRANCH   1   2
BRANCH   1  24
ATOM     24  C   UNL d   1      28.727 -13.503  -5.695  0.00  0.00     0.076 C 
BRANCH  24  25
ATOM     25  C   UNL d   1      29.332 -13.489  -4.332  0.00  0.00    -0.028 C 
ATOM     26  C   UNL d   1      30.031 -12.469  -3.719  0.00  0.00     0.096 C 
ATOM     27  N   UNL d   1      30.285 -12.842  -2.424  0.00  0.00    -0.365 N 
ATOM     28  C   UNL d   1      29.889 -14.142  -2.226  0.00  0.00     0.042 A 
ATOM     29  H   UNL d   1      30.787 -12.293  -1.742  0.00  0.00     0.165 HD
ATOM     30  C   UNL d   1      29.914 -14.953  -1.085  0.00  0.00     0.030 A 
ATOM     31  C   UNL d   1      29.449 -14.603  -3.462  0.00  0.00    -0.002 A 
ATOM     32  C   UNL d   1      29.570 -16.295  -1.255  0.00  0.00     0.002 A 
ATOM     33  C   UNL d   1      29.279 -16.810  -2.518  0.00  0.00     0.001 A 
ATOM     34  C   UNL d   1      29.177 -15.966  -3.619  0.00  0.00     0.014 A 
ENDBRANCH  24  25
ENDBRANCH   1  24
BRANCH   1  35
ATOM     35  N   UNL d   1      26.362 -13.464  -4.952  0.00  0.00    -0.323 N 
ATOM     36  C   UNL d   1      26.155 -14.823  -4.986  0.00  0.00     0.361 C 
ATOM     37  O   UNL d   1      26.722 -15.575  -5.743  0.00  0.00    -0.238 OA
ATOM     38  H   UNL d   1      25.877 -12.914  -4.248  0.00  0.00     0.165 HD
BRANCH  36  39
ATOM     39  O   UNL d   1      25.240 -15.213  -4.053  0.00  0.00    -0.299 OA
BRANCH  39  40
ATOM     40  C   UNL d   1      25.676 -15.024  -2.681  0.00  0.00     0.219 C 
BRANCH  40  41
ATOM     41  C   UNL d   1      25.231 -16.169  -1.785  0.00  0.00    -0.034 A 
ATOM     42  C   UNL d   1      23.893 -16.299  -1.365  0.00  0.00     0.009 A 
ATOM     43  C   UNL d   1      23.534 -17.267  -0.416  0.00  0.00     0.001 A 
ATOM     44  C   UNL d   1      24.485 -18.166   0.059  0.00  0.00     0.000 A 
ATOM     45  C   UNL d   1      25.804 -18.067  -0.370  0.00  0.00     0.001 A 
ATOM     46  C   UNL d   1      26.173 -17.069  -1.271  0.00  0.00     0.009 A 
ENDBRANCH  40  41
ENDBRANCH  39  40
ENDBRANCH  36  39
ENDBRANCH   1  35
TORSDOF 11
ENDMDL
