MODEL 1
REMARK VINA RESULT:    -7.461      0.000      0.000
REMARK INTER + INTRA:         -10.586
REMARK INTER:                  -9.250
REMARK INTRA:                  -1.336
REMARK CONF_INDEPENDENT:        1.790
REMARK UNBOUND:                -1.336
REMARK  6 active torsions:
REMARK  status: ('A' for Active; 'I' for Inactive)
REMARK    1  A    between atoms: C_2  and  C_4 
REMARK    2  A    between atoms: C_4  and  C_5 
REMARK    3  A    between atoms: C_5  and  C_6 
REMARK       I    between atoms: C_6  and  N_8 
REMARK    4  A    between atoms: N_8  and  N_9 
REMARK       I    between atoms: N_9  and  C_10 
REMARK    5  A    between atoms: C_10  and  C_12 
REMARK    6  A    between atoms: C_15  and  N_16 
ROOT
ATOM      1  N   UNL d   1      23.835 -18.078  -0.972  0.00  0.00    -0.263 N 
ATOM      2  C   UNL d   1      25.002 -17.445  -0.572  0.00  0.00     0.271 C 
ATOM      3  O   UNL d   1      25.406 -17.449   0.592  0.00  0.00    -0.266 OA
ATOM      4  H   UNL d   1      23.481 -18.048  -1.929  0.00  0.00     0.190 HD
ENDROOT
BRANCH   2   5
ATOM      5  C   UNL d   1      25.816 -16.768  -1.639  0.00  0.00     0.055 A 
ATOM      6  C   UNL d   1      25.155 -16.236  -2.769  0.00  0.00     0.021 A 
ATOM      7  C   UNL d   1      25.870 -15.575  -3.788  0.00  0.00     0.037 A 
ATOM      8  C   UNL d   1      27.260 -15.455  -3.693  0.00  0.00     0.104 A 
ATOM      9  C   UNL d   1      27.935 -16.013  -2.600  0.00  0.00     0.060 A 
ATOM     10  C   UNL d   1      27.216 -16.673  -1.586  0.00  0.00     0.052 A 
ATOM     11 CL   UNL d   1      28.152 -17.398  -0.330  0.00  0.00    -0.083 Cl
BRANCH   8  12
ATOM     12  N   UNL d   1      28.025 -14.746  -4.734  0.00  0.00    -0.116 N 
ATOM     13  O   UNL d   1      27.725 -14.960  -5.916  0.00  0.00    -0.532 OA
ATOM     14  O   UNL d   1      28.918 -13.971  -4.363  0.00  0.00    -0.532 OA
ENDBRANCH   8  12
ENDBRANCH   2   5
BRANCH   1  15
ATOM     15  N   UNL d   1      22.962 -18.675  -0.027  0.00  0.00    -0.267 N 
ATOM     16  C   UNL d   1      21.721 -19.114  -0.472  0.00  0.00     0.236 C 
ATOM     17  O   UNL d   1      21.372 -18.984  -1.645  0.00  0.00    -0.272 OA
ATOM     18  H   UNL d   1      23.295 -18.757   0.932  0.00  0.00     0.190 HD
BRANCH  16  19
ATOM     19  C   UNL d   1      20.850 -19.786   0.586  0.00  0.00     0.105 C 
BRANCH  19  20
ATOM     20  C   UNL d   1      19.348 -19.703   0.245  0.00  0.00     0.013 C 
BRANCH  20  21
ATOM     21  C   UNL d   1      18.418 -20.245   1.350  0.00  0.00    -0.022 C 
ATOM     22  C   UNL d   1      17.791 -21.575   0.918  0.00  0.00     0.009 C 
ATOM     23  C   UNL d   1      19.169 -20.451   2.666  0.00  0.00     0.009 C 
ENDBRANCH  20  21
ENDBRANCH  19  20
ENDBRANCH  16  19
ENDBRANCH   1  15
TORSDOF 6
ENDMDL
MODEL 2
REMARK VINA RESULT:    -7.264      1.570      1.701
REMARK INTER + INTRA:         -10.359
REMARK INTER:                  -9.053
REMARK INTRA:                  -1.305
REMARK CONF_INDEPENDENT:        1.790
REMARK UNBOUND:                -1.305
REMARK  6 active torsions:
REMARK  status: ('A' for Active; 'I' for Inactive)
REMARK    1  A    between atoms: C_2  and  C_4 
REMARK    2  A    between atoms: C_4  and  C_5 
REMARK    3  A    between atoms: C_5  and  C_6 
REMARK       I    between atoms: C_6  and  N_8 
REMARK    4  A    between atoms: N_8  and  N_9 
REMARK       I    between atoms: N_9  and  C_10 
REMARK    5  A    between atoms: C_10  and  C_12 
REMARK    6  A    between atoms: C_15  and  N_16 
ROOT
ATOM      1  N   UNL d   1      23.325 -17.640  -0.851  0.00  0.00    -0.263 N 
ATOM      2  C   UNL d   1      24.703 -17.550  -0.722  0.00  0.00     0.271 C 
ATOM      3  O   UNL d   1      25.396 -18.458  -0.261  0.00  0.00    -0.266 OA
ATOM      4  H   UNL d   1      22.744 -16.876  -1.201  0.00  0.00     0.190 HD
ENDROOT
BRANCH   2   5
ATOM      5  C   UNL d   1      25.358 -16.291  -1.216  0.00  0.00     0.055 A 
ATOM      6  C   UNL d   1      24.791 -15.613  -2.320  0.00  0.00     0.021 A 
ATOM      7  C   UNL d   1      25.354 -14.417  -2.810  0.00  0.00     0.037 A 
ATOM      8  C   UNL d   1      26.505 -13.897  -2.207  0.00  0.00     0.104 A 
ATOM      9  C   UNL d   1      27.102 -14.578  -1.140  0.00  0.00     0.060 A 
ATOM     10  C   UNL d   1      26.536 -15.771  -0.656  0.00  0.00     0.052 A 
ATOM     11 CL   UNL d   1      27.399 -16.575   0.605  0.00  0.00    -0.083 Cl
BRANCH   8  12
ATOM     12  N   UNL d   1      27.096 -12.636  -2.687  0.00  0.00    -0.116 N 
ATOM     13  O   UNL d   1      28.157 -12.701  -3.323  0.00  0.00    -0.532 OA
ATOM     14  O   UNL d   1      26.493 -11.584  -2.431  0.00  0.00    -0.532 OA
ENDBRANCH   8  12
ENDBRANCH   2   5
BRANCH   1  15
ATOM     15  N   UNL d   1      22.610 -18.753  -0.342  0.00  0.00    -0.267 N 
ATOM     16  C   UNL d   1      21.250 -18.837  -0.616  0.00  0.00     0.236 C 
ATOM     17  O   UNL d   1      20.668 -17.971  -1.268  0.00  0.00    -0.272 OA
ATOM     18  H   UNL d   1      23.135 -19.442   0.195  0.00  0.00     0.190 HD
BRANCH  16  19
ATOM     19  C   UNL d   1      20.552 -20.082  -0.077  0.00  0.00     0.105 C 
BRANCH  19  20
ATOM     20  C   UNL d   1      19.024 -19.897   0.029  0.00  0.00     0.013 C 
BRANCH  20  21
ATOM     21  C   UNL d   1      18.402 -20.497   1.307  0.00  0.00    -0.022 C 
ATOM     22  C   UNL d   1      17.978 -21.950   1.064  0.00  0.00     0.009 C 
ATOM     23  C   UNL d   1      19.377 -20.449   2.483  0.00  0.00     0.009 C 
ENDBRANCH  20  21
ENDBRANCH  19  20
ENDBRANCH  16  19
ENDBRANCH   1  15
TORSDOF 6
ENDMDL
MODEL 3
REMARK VINA RESULT:    -7.253      2.281      2.687
REMARK INTER + INTRA:          -9.756
REMARK INTER:                  -9.043
REMARK INTRA:                  -0.713
REMARK CONF_INDEPENDENT:        1.790
REMARK UNBOUND:                -0.713
REMARK  6 active torsions:
REMARK  status: ('A' for Active; 'I' for Inactive)
REMARK    1  A    between atoms: C_2  and  C_4 
REMARK    2  A    between atoms: C_4  and  C_5 
REMARK    3  A    between atoms: C_5  and  C_6 
REMARK       I    between atoms: C_6  and  N_8 
REMARK    4  A    between atoms: N_8  and  N_9 
REMARK       I    between atoms: N_9  and  C_10 
REMARK    5  A    between atoms: C_10  and  C_12 
REMARK    6  A    between atoms: C_15  and  N_16 
ROOT
ATOM      1  N   UNL d   1      23.549 -18.061  -0.073  0.00  0.00    -0.263 N 
ATOM      2  C   UNL d   1      24.029 -16.898  -0.658  0.00  0.00     0.271 C 
ATOM      3  O   UNL d   1      23.305 -15.949  -0.964  0.00  0.00    -0.266 OA
ATOM      4  H   UNL d   1      24.141 -18.861   0.150  0.00  0.00     0.190 HD
ENDROOT
BRANCH   2   5
ATOM      5  C   UNL d   1      25.513 -16.802  -0.875  0.00  0.00     0.055 A 
ATOM      6  C   UNL d   1      26.377 -17.531  -0.026  0.00  0.00     0.021 A 
ATOM      7  C   UNL d   1      27.775 -17.491  -0.200  0.00  0.00     0.037 A 
ATOM      8  C   UNL d   1      28.324 -16.704  -1.218  0.00  0.00     0.104 A 
ATOM      9  C   UNL d   1      27.484 -15.943  -2.041  0.00  0.00     0.060 A 
ATOM     10  C   UNL d   1      26.089 -15.987  -1.862  0.00  0.00     0.052 A 
ATOM     11 CL   UNL d   1      25.153 -14.945  -2.873  0.00  0.00    -0.083 Cl
BRANCH   8  12
ATOM     12  N   UNL d   1      29.781 -16.667  -1.434  0.00  0.00    -0.116 N 
ATOM     13  O   UNL d   1      30.445 -15.877  -0.749  0.00  0.00    -0.532 OA
ATOM     14  O   UNL d   1      30.256 -17.433  -2.284  0.00  0.00    -0.532 OA
ENDBRANCH   8  12
ENDBRANCH   2   5
BRANCH   1  15
ATOM     15  N   UNL d   1      22.158 -18.276   0.098  0.00  0.00    -0.267 N 
ATOM     16  C   UNL d   1      21.471 -18.941  -0.910  0.00  0.00     0.236 C 
ATOM     17  O   UNL d   1      22.037 -19.325  -1.934  0.00  0.00    -0.272 OA
ATOM     18  H   UNL d   1      21.734 -17.938   0.961  0.00  0.00     0.190 HD
BRANCH  16  19
ATOM     19  C   UNL d   1      19.987 -19.180  -0.641  0.00  0.00     0.105 C 
BRANCH  19  20
ATOM     20  C   UNL d   1      19.731 -20.519   0.079  0.00  0.00     0.013 C 
BRANCH  20  21
ATOM     21  C   UNL d   1      18.749 -20.422   1.264  0.00  0.00    -0.022 C 
ATOM     22  C   UNL d   1      17.739 -21.575   1.218  0.00  0.00     0.009 C 
ATOM     23  C   UNL d   1      19.481 -20.451   2.605  0.00  0.00     0.009 C 
ENDBRANCH  20  21
ENDBRANCH  19  20
ENDBRANCH  16  19
ENDBRANCH   1  15
TORSDOF 6
ENDMDL
MODEL 4
REMARK VINA RESULT:    -6.815      1.706      2.179
REMARK INTER + INTRA:         -10.058
REMARK INTER:                  -8.605
REMARK INTRA:                  -1.453
REMARK CONF_INDEPENDENT:        1.790
REMARK UNBOUND:                -1.453
REMARK  6 active torsions:
REMARK  status: ('A' for Active; 'I' for Inactive)
REMARK    1  A    between atoms: C_2  and  C_4 
REMARK    2  A    between atoms: C_4  and  C_5 
REMARK    3  A    between atoms: C_5  and  C_6 
REMARK       I    between atoms: C_6  and  N_8 
REMARK    4  A    between atoms: N_8  and  N_9 
REMARK       I    between atoms: N_9  and  C_10 
REMARK    5  A    between atoms: C_10  and  C_12 
REMARK    6  A    between atoms: C_15  and  N_16 
ROOT
ATOM      1  N   UNL d   1      24.535 -17.195  -1.487  0.00  0.00    -0.263 N 
ATOM      2  C   UNL d   1      25.440 -16.174  -1.237  0.00  0.00     0.271 C 
ATOM      3  O   UNL d   1      25.558 -15.632  -0.138  0.00  0.00    -0.266 OA
ATOM      4  H   UNL d   1      24.410 -17.622  -2.405  0.00  0.00     0.190 HD
ENDROOT
BRANCH   2   5
ATOM      5  C   UNL d   1      26.337 -15.761  -2.371  0.00  0.00     0.055 A 
ATOM      6  C   UNL d   1      27.656 -16.266  -2.418  0.00  0.00     0.021 A 
ATOM      7  C   UNL d   1      28.531 -15.926  -3.470  0.00  0.00     0.037 A 
ATOM      8  C   UNL d   1      28.095 -15.061  -4.479  0.00  0.00     0.104 A 
ATOM      9  C   UNL d   1      26.805 -14.520  -4.425  0.00  0.00     0.060 A 
ATOM     10  C   UNL d   1      25.937 -14.862  -3.373  0.00  0.00     0.052 A 
ATOM     11 CL   UNL d   1      24.402 -14.072  -3.356  0.00  0.00    -0.083 Cl
BRANCH   8  12
ATOM     12  N   UNL d   1      28.984 -14.712  -5.602  0.00  0.00    -0.116 N 
ATOM     13  O   UNL d   1      29.909 -13.919  -5.380  0.00  0.00    -0.532 OA
ATOM     14  O   UNL d   1      28.756 -15.238  -6.700  0.00  0.00    -0.532 OA
ENDBRANCH   8  12
ENDBRANCH   2   5
BRANCH   1  15
ATOM     15  N   UNL d   1      23.594 -17.598  -0.505  0.00  0.00    -0.267 N 
ATOM     16  C   UNL d   1      22.620 -18.518  -0.873  0.00  0.00     0.236 C 
ATOM     17  O   UNL d   1      22.554 -18.967  -2.017  0.00  0.00    -0.272 OA
ATOM     18  H   UNL d   1      23.687 -17.197   0.427  0.00  0.00     0.190 HD
BRANCH  16  19
ATOM     19  C   UNL d   1      21.668 -18.942   0.242  0.00  0.00     0.105 C 
BRANCH  19  20
ATOM     20  C   UNL d   1      20.289 -19.372  -0.297  0.00  0.00     0.013 C 
BRANCH  20  21
ATOM     21  C   UNL d   1      19.252 -19.688   0.800  0.00  0.00    -0.022 C 
ATOM     22  C   UNL d   1      18.373 -20.873   0.380  0.00  0.00     0.009 C 
ATOM     23  C   UNL d   1      19.925 -20.013   2.134  0.00  0.00     0.009 C 
ENDBRANCH  20  21
ENDBRANCH  19  20
ENDBRANCH  16  19
ENDBRANCH   1  15
TORSDOF 6
ENDMDL
MODEL 5
REMARK VINA RESULT:    -6.554      4.231      8.101
REMARK INTER + INTRA:          -9.936
REMARK INTER:                  -8.343
REMARK INTRA:                  -1.593
REMARK CONF_INDEPENDENT:        1.790
REMARK UNBOUND:                -1.593
REMARK  6 active torsions:
REMARK  status: ('A' for Active; 'I' for Inactive)
REMARK    1  A    between atoms: C_2  and  C_4 
REMARK    2  A    between atoms: C_4  and  C_5 
REMARK    3  A    between atoms: C_5  and  C_6 
REMARK       I    between atoms: C_6  and  N_8 
REMARK    4  A    between atoms: N_8  and  N_9 
REMARK       I    between atoms: N_9  and  C_10 
REMARK    5  A    between atoms: C_10  and  C_12 
REMARK    6  A    between atoms: C_15  and  N_16 
ROOT
ATOM      1  N   UNL d   1      26.964 -15.935   0.944  0.00  0.00    -0.263 N 
ATOM      2  C   UNL d   1      26.753 -17.143   0.296  0.00  0.00     0.271 C 
ATOM      3  O   UNL d   1      27.645 -17.971   0.106  0.00  0.00    -0.266 OA
ATOM      4  H   UNL d   1      26.235 -15.233   1.072  0.00  0.00     0.190 HD
ENDROOT
BRANCH   2   5
ATOM      5  C   UNL d   1      25.348 -17.449  -0.144  0.00  0.00     0.055 A 
ATOM      6  C   UNL d   1      24.691 -18.575   0.401  0.00  0.00     0.021 A 
ATOM      7  C   UNL d   1      23.367 -18.893   0.037  0.00  0.00     0.037 A 
ATOM      8  C   UNL d   1      22.693 -18.094  -0.893  0.00  0.00     0.104 A 
ATOM      9  C   UNL d   1      23.345 -16.998  -1.473  0.00  0.00     0.060 A 
ATOM     10  C   UNL d   1      24.666 -16.686  -1.106  0.00  0.00     0.052 A 
ATOM     11 CL   UNL d   1      25.405 -15.369  -1.944  0.00  0.00    -0.083 Cl
BRANCH   8  12
ATOM     12  N   UNL d   1      21.300 -18.393  -1.269  0.00  0.00    -0.116 N 
ATOM     13  O   UNL d   1      20.489 -17.458  -1.270  0.00  0.00    -0.532 OA
ATOM     14  O   UNL d   1      21.025 -19.564  -1.570  0.00  0.00    -0.532 OA
ENDBRANCH   8  12
ENDBRANCH   2   5
BRANCH   1  15
ATOM     15  N   UNL d   1      28.267 -15.524   1.325  0.00  0.00    -0.267 N 
ATOM     16  C   UNL d   1      28.426 -14.235   1.817  0.00  0.00     0.236 C 
ATOM     17  O   UNL d   1      27.477 -13.457   1.912  0.00  0.00    -0.272 OA
ATOM     18  H   UNL d   1      29.021 -16.202   1.225  0.00  0.00     0.190 HD
BRANCH  16  19
ATOM     19  C   UNL d   1      29.844 -13.872   2.250  0.00  0.00     0.105 C 
BRANCH  19  20
ATOM     20  C   UNL d   1      30.044 -14.008   3.773  0.00  0.00     0.013 C 
BRANCH  20  21
ATOM     21  C   UNL d   1      28.730 -14.087   4.578  0.00  0.00    -0.022 C 
ATOM     22  C   UNL d   1      28.957 -14.824   5.903  0.00  0.00     0.009 C 
ATOM     23  C   UNL d   1      28.165 -12.697   4.870  0.00  0.00     0.009 C 
ENDBRANCH  20  21
ENDBRANCH  19  20
ENDBRANCH  16  19
ENDBRANCH   1  15
TORSDOF 6
ENDMDL
MODEL 6
REMARK VINA RESULT:    -6.395      2.284      2.562
REMARK INTER + INTRA:          -9.574
REMARK INTER:                  -8.185
REMARK INTRA:                  -1.389
REMARK CONF_INDEPENDENT:        1.790
REMARK UNBOUND:                -1.389
REMARK  6 active torsions:
REMARK  status: ('A' for Active; 'I' for Inactive)
REMARK    1  A    between atoms: C_2  and  C_4 
REMARK    2  A    between atoms: C_4  and  C_5 
REMARK    3  A    between atoms: C_5  and  C_6 
REMARK       I    between atoms: C_6  and  N_8 
REMARK    4  A    between atoms: N_8  and  N_9 
REMARK       I    between atoms: N_9  and  C_10 
REMARK    5  A    between atoms: C_10  and  C_12 
REMARK    6  A    between atoms: C_15  and  N_16 
ROOT
ATOM      1  N   UNL d   1      23.694 -16.883  -1.381  0.00  0.00    -0.263 N 
ATOM      2  C   UNL d   1      25.055 -16.620  -1.386  0.00  0.00     0.271 C 
ATOM      3  O   UNL d   1      25.907 -17.470  -1.121  0.00  0.00    -0.266 OA
ATOM      4  H   UNL d   1      22.985 -16.172  -1.566  0.00  0.00     0.190 HD
ENDROOT
BRANCH   2   5
ATOM      5  C   UNL d   1      25.485 -15.234  -1.780  0.00  0.00     0.055 A 
ATOM      6  C   UNL d   1      25.002 -14.687  -2.990  0.00  0.00     0.021 A 
ATOM      7  C   UNL d   1      25.358 -13.385  -3.396  0.00  0.00     0.037 A 
ATOM      8  C   UNL d   1      26.217 -12.622  -2.598  0.00  0.00     0.104 A 
ATOM      9  C   UNL d   1      26.737 -13.165  -1.416  0.00  0.00     0.060 A 
ATOM     10  C   UNL d   1      26.379 -14.465  -1.017  0.00  0.00     0.052 A 
ATOM     11 CL   UNL d   1      27.143 -15.069   0.409  0.00  0.00    -0.083 Cl
BRANCH   8  12
ATOM     12  N   UNL d   1      26.583 -11.250  -2.989  0.00  0.00    -0.116 N 
ATOM     13  O   UNL d   1      27.768 -10.910  -2.864  0.00  0.00    -0.532 OA
ATOM     14  O   UNL d   1      25.684 -10.518  -3.428  0.00  0.00    -0.532 OA
ENDBRANCH   8  12
ENDBRANCH   2   5
BRANCH   1  15
ATOM     15  N   UNL d   1      23.189 -18.135  -0.947  0.00  0.00    -0.267 N 
ATOM     16  C   UNL d   1      21.821 -18.248  -0.732  0.00  0.00     0.236 C 
ATOM     17  O   UNL d   1      21.060 -17.295  -0.897  0.00  0.00    -0.272 OA
ATOM     18  H   UNL d   1      23.858 -18.893  -0.822  0.00  0.00     0.190 HD
BRANCH  16  19
ATOM     19  C   UNL d   1      21.339 -19.634  -0.310  0.00  0.00     0.105 C 
BRANCH  19  20
ATOM     20  C   UNL d   1      19.829 -19.659   0.001  0.00  0.00     0.013 C 
BRANCH  20  21
ATOM     21  C   UNL d   1      19.418 -20.708   1.055  0.00  0.00    -0.022 C 
ATOM     22  C   UNL d   1      19.409 -20.084   2.455  0.00  0.00     0.009 C 
ATOM     23  C   UNL d   1      18.037 -21.291   0.759  0.00  0.00     0.009 C 
ENDBRANCH  20  21
ENDBRANCH  19  20
ENDBRANCH  16  19
ENDBRANCH   1  15
TORSDOF 6
ENDMDL
MODEL 7
REMARK VINA RESULT:    -6.349      2.405      2.901
REMARK INTER + INTRA:          -9.601
REMARK INTER:                  -8.139
REMARK INTRA:                  -1.462
REMARK CONF_INDEPENDENT:        1.790
REMARK UNBOUND:                -1.462
REMARK  6 active torsions:
REMARK  status: ('A' for Active; 'I' for Inactive)
REMARK    1  A    between atoms: C_2  and  C_4 
REMARK    2  A    between atoms: C_4  and  C_5 
REMARK    3  A    between atoms: C_5  and  C_6 
REMARK       I    between atoms: C_6  and  N_8 
REMARK    4  A    between atoms: N_8  and  N_9 
REMARK       I    between atoms: N_9  and  C_10 
REMARK    5  A    between atoms: C_10  and  C_12 
REMARK    6  A    between atoms: C_15  and  N_16 
ROOT
ATOM      1  N   UNL d   1      24.261 -17.496  -0.358  0.00  0.00    -0.263 N 
ATOM      2  C   UNL d   1      25.611 -17.571  -0.048  0.00  0.00     0.271 C 
ATOM      3  O   UNL d   1      26.166 -18.614   0.297  0.00  0.00    -0.266 OA
ATOM      4  H   UNL d   1      23.791 -16.626  -0.612  0.00  0.00     0.190 HD
ENDROOT
BRANCH   2   5
ATOM      5  C   UNL d   1      26.418 -16.311  -0.195  0.00  0.00     0.055 A 
ATOM      6  C   UNL d   1      27.230 -15.890   0.883  0.00  0.00     0.021 A 
ATOM      7  C   UNL d   1      28.022 -14.728   0.789  0.00  0.00     0.037 A 
ATOM      8  C   UNL d   1      27.994 -13.964  -0.383  0.00  0.00     0.104 A 
ATOM      9  C   UNL d   1      27.164 -14.345  -1.444  0.00  0.00     0.060 A 
ATOM     10  C   UNL d   1      26.376 -15.506  -1.344  0.00  0.00     0.052 A 
ATOM     11 CL   UNL d   1      25.324 -15.836  -2.674  0.00  0.00    -0.083 Cl
BRANCH   8  12
ATOM     12  N   UNL d   1      28.833 -12.759  -0.512  0.00  0.00    -0.116 N 
ATOM     13  O   UNL d   1      28.683 -11.860   0.326  0.00  0.00    -0.532 OA
ATOM     14  O   UNL d   1      29.644 -12.721  -1.448  0.00  0.00    -0.532 OA
ENDBRANCH   8  12
ENDBRANCH   2   5
BRANCH   1  15
ATOM     15  N   UNL d   1      23.403 -18.610  -0.175  0.00  0.00    -0.267 N 
ATOM     16  C   UNL d   1      22.055 -18.451  -0.471  0.00  0.00     0.236 C 
ATOM     17  O   UNL d   1      21.602 -17.378  -0.868  0.00  0.00    -0.272 OA
ATOM     18  H   UNL d   1      23.823 -19.476   0.158  0.00  0.00     0.190 HD
BRANCH  16  19
ATOM     19  C   UNL d   1      21.196 -19.701  -0.295  0.00  0.00     0.105 C 
BRANCH  19  20
ATOM     20  C   UNL d   1      19.688 -19.387  -0.349  0.00  0.00     0.013 C 
BRANCH  20  21
ATOM     21  C   UNL d   1      18.902 -19.844   0.897  0.00  0.00    -0.022 C 
ATOM     22  C   UNL d   1      18.160 -21.155   0.612  0.00  0.00     0.009 C 
ATOM     23  C   UNL d   1      19.823 -20.043   2.101  0.00  0.00     0.009 C 
ENDBRANCH  20  21
ENDBRANCH  19  20
ENDBRANCH  16  19
ENDBRANCH   1  15
TORSDOF 6
ENDMDL
MODEL 8
REMARK VINA RESULT:    -6.221      2.692      8.687
REMARK INTER + INTRA:          -9.514
REMARK INTER:                  -8.011
REMARK INTRA:                  -1.503
REMARK CONF_INDEPENDENT:        1.790
REMARK UNBOUND:                -1.503
REMARK  6 active torsions:
REMARK  status: ('A' for Active; 'I' for Inactive)
REMARK    1  A    between atoms: C_2  and  C_4 
REMARK    2  A    between atoms: C_4  and  C_5 
REMARK    3  A    between atoms: C_5  and  C_6 
REMARK       I    between atoms: C_6  and  N_8 
REMARK    4  A    between atoms: N_8  and  N_9 
REMARK       I    between atoms: N_9  and  C_10 
REMARK    5  A    between atoms: C_10  and  C_12 
REMARK    6  A    between atoms: C_15  and  N_16 
ROOT
ATOM      1  N   UNL d   1      25.706 -15.691  -2.849  0.00  0.00    -0.263 N 
ATOM      2  C   UNL d   1      25.496 -15.841  -1.486  0.00  0.00     0.271 C 
ATOM      3  O   UNL d   1      26.168 -15.260  -0.633  0.00  0.00    -0.266 OA
ATOM      4  H   UNL d   1      25.173 -16.197  -3.557  0.00  0.00     0.190 HD
ENDROOT
BRANCH   2   5
ATOM      5  C   UNL d   1      24.357 -16.725  -1.062  0.00  0.00     0.055 A 
ATOM      6  C   UNL d   1      23.031 -16.275  -1.257  0.00  0.00     0.021 A 
ATOM      7  C   UNL d   1      21.928 -17.074  -0.895  0.00  0.00     0.037 A 
ATOM      8  C   UNL d   1      22.144 -18.329  -0.316  0.00  0.00     0.104 A 
ATOM      9  C   UNL d   1      23.450 -18.773  -0.078  0.00  0.00     0.060 A 
ATOM     10  C   UNL d   1      24.547 -17.970  -0.441  0.00  0.00     0.052 A 
ATOM     11 CL   UNL d   1      26.111 -18.574  -0.024  0.00  0.00    -0.083 Cl
BRANCH   8  12
ATOM     12  N   UNL d   1      21.006 -19.192   0.048  0.00  0.00    -0.116 N 
ATOM     13  O   UNL d   1      20.744 -19.325   1.251  0.00  0.00    -0.532 OA
ATOM     14  O   UNL d   1      20.374 -19.728  -0.874  0.00  0.00    -0.532 OA
ENDBRANCH   8  12
ENDBRANCH   2   5
BRANCH   1  15
ATOM     15  N   UNL d   1      26.804 -14.942  -3.345  0.00  0.00    -0.267 N 
ATOM     16  C   UNL d   1      27.025 -14.939  -4.716  0.00  0.00     0.236 C 
ATOM     17  O   UNL d   1      26.308 -15.575  -5.488  0.00  0.00    -0.272 OA
ATOM     18  H   UNL d   1      27.370 -14.435  -2.667  0.00  0.00     0.190 HD
BRANCH  16  19
ATOM     19  C   UNL d   1      28.194 -14.077  -5.186  0.00  0.00     0.105 C 
BRANCH  19  20
ATOM     20  C   UNL d   1      28.970 -14.727  -6.350  0.00  0.00     0.013 C 
BRANCH  20  21
ATOM     21  C   UNL d   1      30.176 -15.581  -5.907  0.00  0.00    -0.022 C 
ATOM     22  C   UNL d   1      29.713 -16.744  -5.023  0.00  0.00     0.009 C 
ATOM     23  C   UNL d   1      30.941 -16.138  -7.108  0.00  0.00     0.009 C 
ENDBRANCH  20  21
ENDBRANCH  19  20
ENDBRANCH  16  19
ENDBRANCH   1  15
TORSDOF 6
ENDMDL
MODEL 9
REMARK VINA RESULT:    -6.165      2.674      8.375
REMARK INTER + INTRA:          -9.612
REMARK INTER:                  -7.955
REMARK INTRA:                  -1.657
REMARK CONF_INDEPENDENT:        1.790
REMARK UNBOUND:                -1.657
REMARK  6 active torsions:
REMARK  status: ('A' for Active; 'I' for Inactive)
REMARK    1  A    between atoms: C_2  and  C_4 
REMARK    2  A    between atoms: C_4  and  C_5 
REMARK    3  A    between atoms: C_5  and  C_6 
REMARK       I    between atoms: C_6  and  N_8 
REMARK    4  A    between atoms: N_8  and  N_9 
REMARK       I    between atoms: N_9  and  C_10 
REMARK    5  A    between atoms: C_10  and  C_12 
REMARK    6  A    between atoms: C_15  and  N_16 
ROOT
ATOM      1  N   UNL d   1      25.682 -15.738  -2.779  0.00  0.00    -0.263 N 
ATOM      2  C   UNL d   1      25.349 -15.797  -1.435  0.00  0.00     0.271 C 
ATOM      3  O   UNL d   1      25.898 -15.110  -0.573  0.00  0.00    -0.266 OA
ATOM      4  H   UNL d   1      25.252 -16.330  -3.490  0.00  0.00     0.190 HD
ENDROOT
BRANCH   2   5
ATOM      5  C   UNL d   1      24.228 -16.721  -1.047  0.00  0.00     0.055 A 
ATOM      6  C   UNL d   1      22.894 -16.290  -1.224  0.00  0.00     0.021 A 
ATOM      7  C   UNL d   1      21.807 -17.126  -0.895  0.00  0.00     0.037 A 
ATOM      8  C   UNL d   1      22.049 -18.399  -0.367  0.00  0.00     0.104 A 
ATOM      9  C   UNL d   1      23.364 -18.825  -0.147  0.00  0.00     0.060 A 
ATOM     10  C   UNL d   1      24.444 -17.986  -0.476  0.00  0.00     0.052 A 
ATOM     11 CL   UNL d   1      26.020 -18.574  -0.084  0.00  0.00    -0.083 Cl
BRANCH   8  12
ATOM     12  N   UNL d   1      20.929 -19.299  -0.039  0.00  0.00    -0.116 N 
ATOM     13  O   UNL d   1      20.678 -19.496   1.157  0.00  0.00    -0.532 OA
ATOM     14  O   UNL d   1      20.300 -19.800  -0.982  0.00  0.00    -0.532 OA
ENDBRANCH   8  12
ENDBRANCH   2   5
BRANCH   1  15
ATOM     15  N   UNL d   1      26.776 -14.956  -3.231  0.00  0.00    -0.267 N 
ATOM     16  C   UNL d   1      27.038 -14.927  -4.595  0.00  0.00     0.236 C 
ATOM     17  O   UNL d   1      26.358 -15.565  -5.398  0.00  0.00    -0.272 OA
ATOM     18  H   UNL d   1      27.311 -14.448  -2.528  0.00  0.00     0.190 HD
BRANCH  16  19
ATOM     19  C   UNL d   1      28.200 -14.031  -5.017  0.00  0.00     0.105 C 
BRANCH  19  20
ATOM     20  C   UNL d   1      27.897 -12.536  -4.796  0.00  0.00     0.013 C 
BRANCH  20  21
ATOM     21  C   UNL d   1      26.400 -12.174  -4.886  0.00  0.00    -0.022 C 
ATOM     22  C   UNL d   1      25.881 -11.699  -3.524  0.00  0.00     0.009 C 
ATOM     23  C   UNL d   1      26.147 -11.083  -5.926  0.00  0.00     0.009 C 
ENDBRANCH  20  21
ENDBRANCH  19  20
ENDBRANCH  16  19
ENDBRANCH   1  15
TORSDOF 6
ENDMDL
