MODEL 1
REMARK VINA RESULT:    -9.906      0.000      0.000
REMARK INTER + INTRA:         -12.416
REMARK INTER:                 -11.696
REMARK INTRA:                  -0.721
REMARK CONF_INDEPENDENT:        1.790
REMARK UNBOUND:                -0.721
REMARK  6 active torsions:
REMARK  status: ('A' for Active; 'I' for Inactive)
REMARK    1  A    between atoms: C_2  and  C_3 
REMARK       I    between atoms: C_2  and  N_17 
REMARK    2  A    between atoms: C_3  and  O_4 
REMARK    3  A    between atoms: O_4  and  C_5 
REMARK    4  A    between atoms: C_10  and  C_11 
REMARK    5  A    between atoms: N_17  and  N_18 
REMARK       I    between atoms: N_18  and  C_19 
REMARK    6  A    between atoms: C_19  and  C_21 
ROOT
ATOM      1  O   UNL d   1      28.126 -15.338  -0.962  0.00  0.00    -0.269 OA
ATOM      2  C   UNL d   1      27.093 -15.555  -0.302  0.00  0.00     0.260 C 
ATOM      3  N   UNL d   1      26.261 -16.677  -0.644  0.00  0.00    -0.265 N 
ATOM      4  H   UNL d   1      26.593 -17.183  -1.465  0.00  0.00     0.190 HD
ENDROOT
BRANCH   2   5
ATOM      5  C   UNL d   1      26.771 -14.604   0.874  0.00  0.00     0.280 C 
BRANCH   5   6
ATOM      6  O   UNL d   1      27.825 -13.675   1.249  0.00  0.00    -0.341 OA
BRANCH   6   7
ATOM      7  C   UNL d   1      27.479 -12.410   1.698  0.00  0.00     0.080 A 
ATOM      8  C   UNL d   1      27.223 -11.442   0.711  0.00  0.00     0.037 A 
ATOM      9  C   UNL d   1      27.010 -10.091   1.043  0.00  0.00     0.003 A 
ATOM     10  C   UNL d   1      26.970  -9.695   2.374  0.00  0.00     0.001 A 
ATOM     11  C   UNL d   1      27.230 -10.636   3.359  0.00  0.00     0.015 A 
ATOM     12  C   UNL d   1      27.497 -11.990   3.039  0.00  0.00     0.007 A 
BRANCH  12  13
ATOM     13  C   UNL d   1      27.867 -12.859   4.144  0.00  0.00    -0.023 C 
ATOM     14  C   UNL d   1      27.802 -14.251   4.004  0.00  0.00     0.012 C 
ATOM     15  C   UNL d   1      28.056 -15.062   5.101  0.00  0.00     0.001 C 
ATOM     16  C   UNL d   1      28.535 -14.501   6.286  0.00  0.00     0.000 C 
ATOM     17  C   UNL d   1      28.686 -13.121   6.407  0.00  0.00     0.001 C 
ATOM     18  C   UNL d   1      28.316 -12.302   5.352  0.00  0.00     0.012 C 
ENDBRANCH  12  13
ENDBRANCH   6   7
ENDBRANCH   5   6
ENDBRANCH   2   5
BRANCH   3  19
ATOM     19  N   UNL d   1      24.946 -17.409   0.070  0.00  0.00    -0.262 N 
ATOM     20  C   UNL d   1      23.766 -18.054  -0.877  0.00  0.00     0.291 C 
ATOM     21  O   UNL d   1      24.012 -17.890  -2.080  0.00  0.00    -0.264 OA
ATOM     22  H   UNL d   1      24.974 -17.258   1.082  0.00  0.00     0.190 HD
BRANCH  20  23
ATOM     23  C   UNL d   1      22.144 -18.604  -0.442  0.00  0.00     0.158 C 
ATOM     24  N   UNL d   1      21.585 -18.947  -1.604  0.00  0.00    -0.168 NA
ATOM     25  N   UNL d   1      20.358 -18.804  -1.238  0.00  0.00    -0.277 N 
ATOM     26  C   UNL d   1      20.025 -19.545  -0.163  0.00  0.00     0.062 C 
ATOM     27  H   UNL d   1      19.818 -18.062  -1.645  0.00  0.00     0.189 HD
ATOM     28  C   UNL d   1      18.743 -20.259  -0.182  0.00  0.00     0.032 C 
ATOM     29  C   UNL d   1      21.093 -19.280   0.841  0.00  0.00     0.028 C 
ATOM     30  C   UNL d   1      18.086 -20.832   0.867  0.00  0.00     0.002 C 
ATOM     31  C   UNL d   1      18.793 -20.670   2.004  0.00  0.00     0.001 C 
ATOM     32  C   UNL d   1      20.131 -19.908   1.957  0.00  0.00     0.016 C 
ENDBRANCH  20  23
ENDBRANCH   3  19
TORSDOF 6
ENDMDL
MODEL 2
REMARK VINA RESULT:    -9.746      0.607      3.158
REMARK INTER + INTRA:         -12.316
REMARK INTER:                 -11.536
REMARK INTRA:                  -0.780
REMARK CONF_INDEPENDENT:        1.790
REMARK UNBOUND:                -0.780
REMARK  6 active torsions:
REMARK  status: ('A' for Active; 'I' for Inactive)
REMARK    1  A    between atoms: C_2  and  C_3 
REMARK       I    between atoms: C_2  and  N_17 
REMARK    2  A    between atoms: C_3  and  O_4 
REMARK    3  A    between atoms: O_4  and  C_5 
REMARK    4  A    between atoms: C_10  and  C_11 
REMARK    5  A    between atoms: N_17  and  N_18 
REMARK       I    between atoms: N_18  and  C_19 
REMARK    6  A    between atoms: C_19  and  C_21 
ROOT
ATOM      1  O   UNL d   1      28.324 -15.736  -0.743  0.00  0.00    -0.269 OA
ATOM      2  C   UNL d   1      27.380 -16.099  -0.018  0.00  0.00     0.260 C 
ATOM      3  N   UNL d   1      26.326 -16.899  -0.582  0.00  0.00    -0.265 N 
ATOM      4  H   UNL d   1      26.440 -17.060  -1.583  0.00  0.00     0.190 HD
ENDROOT
BRANCH   2   5
ATOM      5  C   UNL d   1      27.405 -15.679   1.470  0.00  0.00     0.280 C 
BRANCH   5   6
ATOM      6  O   UNL d   1      27.672 -14.275   1.731  0.00  0.00    -0.341 OA
BRANCH   6   7
ATOM      7  C   UNL d   1      27.895 -13.863   3.036  0.00  0.00     0.080 A 
ATOM      8  C   UNL d   1      28.137 -14.875   3.981  0.00  0.00     0.037 A 
ATOM      9  C   UNL d   1      28.228 -14.591   5.356  0.00  0.00     0.003 A 
ATOM     10  C   UNL d   1      28.158 -13.279   5.807  0.00  0.00     0.001 A 
ATOM     11  C   UNL d   1      27.911 -12.270   4.889  0.00  0.00     0.015 A 
ATOM     12  C   UNL d   1      27.765 -12.544   3.507  0.00  0.00     0.007 A 
BRANCH  12  13
ATOM     13  C   UNL d   1      27.395 -11.426   2.656  0.00  0.00    -0.023 C 
ATOM     14  C   UNL d   1      26.726 -10.318   3.191  0.00  0.00     0.012 C 
ATOM     15  C   UNL d   1      26.287  -9.308   2.346  0.00  0.00     0.001 C 
ATOM     16  C   UNL d   1      26.656  -9.318   0.999  0.00  0.00     0.000 C 
ATOM     17  C   UNL d   1      27.397 -10.375   0.475  0.00  0.00     0.001 C 
ATOM     18  C   UNL d   1      27.731 -11.443   1.293  0.00  0.00     0.012 C 
ENDBRANCH  12  13
ENDBRANCH   6   7
ENDBRANCH   5   6
ENDBRANCH   2   5
BRANCH   3  19
ATOM     19  N   UNL d   1      25.027 -17.725   0.054  0.00  0.00    -0.262 N 
ATOM     20  C   UNL d   1      23.716 -18.025  -0.894  0.00  0.00     0.291 C 
ATOM     21  O   UNL d   1      23.863 -17.554  -2.029  0.00  0.00    -0.264 OA
ATOM     22  H   UNL d   1      25.159 -17.856   1.060  0.00  0.00     0.190 HD
BRANCH  20  23
ATOM     23  C   UNL d   1      22.101 -18.584  -0.443  0.00  0.00     0.158 C 
ATOM     24  N   UNL d   1      21.542 -18.950  -1.597  0.00  0.00    -0.168 NA
ATOM     25  N   UNL d   1      20.314 -18.813  -1.229  0.00  0.00    -0.277 N 
ATOM     26  C   UNL d   1      19.993 -19.540  -0.141  0.00  0.00     0.062 C 
ATOM     27  H   UNL d   1      19.765 -18.083  -1.645  0.00  0.00     0.189 HD
ATOM     28  C   UNL d   1      18.718 -20.267  -0.143  0.00  0.00     0.032 C 
ATOM     29  C   UNL d   1      21.062 -19.249   0.854  0.00  0.00     0.028 C 
ATOM     30  C   UNL d   1      18.071 -20.830   0.918  0.00  0.00     0.002 C 
ATOM     31  C   UNL d   1      18.781 -20.642   2.049  0.00  0.00     0.001 C 
ATOM     32  C   UNL d   1      20.111 -19.868   1.985  0.00  0.00     0.016 C 
ENDBRANCH  20  23
ENDBRANCH   3  19
TORSDOF 6
ENDMDL
MODEL 3
REMARK VINA RESULT:    -9.646      4.032      6.237
REMARK INTER + INTRA:         -12.197
REMARK INTER:                 -11.436
REMARK INTRA:                  -0.761
REMARK CONF_INDEPENDENT:        1.790
REMARK UNBOUND:                -0.761
REMARK  6 active torsions:
REMARK  status: ('A' for Active; 'I' for Inactive)
REMARK    1  A    between atoms: C_2  and  C_3 
REMARK       I    between atoms: C_2  and  N_17 
REMARK    2  A    between atoms: C_3  and  O_4 
REMARK    3  A    between atoms: O_4  and  C_5 
REMARK    4  A    between atoms: C_10  and  C_11 
REMARK    5  A    between atoms: N_17  and  N_18 
REMARK       I    between atoms: N_18  and  C_19 
REMARK    6  A    between atoms: C_19  and  C_21 
ROOT
ATOM      1  O   UNL d   1      28.142 -15.979   0.178  0.00  0.00    -0.269 OA
ATOM      2  C   UNL d   1      27.132 -16.523  -0.307  0.00  0.00     0.260 C 
ATOM      3  N   UNL d   1      26.592 -17.696   0.326  0.00  0.00    -0.265 N 
ATOM      4  H   UNL d   1      27.145 -18.009   1.123  0.00  0.00     0.190 HD
ENDROOT
BRANCH   2   5
ATOM      5  C   UNL d   1      26.499 -15.885  -1.565  0.00  0.00     0.280 C 
BRANCH   5   6
ATOM      6  O   UNL d   1      27.430 -15.380  -2.561  0.00  0.00    -0.341 OA
BRANCH   6   7
ATOM      7  C   UNL d   1      27.029 -14.349  -3.396  0.00  0.00     0.080 A 
ATOM      8  C   UNL d   1      25.925 -13.590  -2.970  0.00  0.00     0.037 A 
ATOM      9  C   UNL d   1      25.337 -12.618  -3.801  0.00  0.00     0.003 A 
ATOM     10  C   UNL d   1      25.890 -12.329  -5.042  0.00  0.00     0.001 A 
ATOM     11  C   UNL d   1      26.973 -13.075  -5.480  0.00  0.00     0.015 A 
ATOM     12  C   UNL d   1      27.546 -14.093  -4.678  0.00  0.00     0.007 A 
BRANCH  12  13
ATOM     13  C   UNL d   1      28.602 -14.884  -5.286  0.00  0.00    -0.023 C 
ATOM     14  C   UNL d   1      29.191 -15.943  -4.582  0.00  0.00     0.012 C 
ATOM     15  C   UNL d   1      30.269 -16.618  -5.137  0.00  0.00     0.001 C 
ATOM     16  C   UNL d   1      30.656 -16.353  -6.452  0.00  0.00     0.000 C 
ATOM     17  C   UNL d   1      30.018 -15.359  -7.192  0.00  0.00     0.001 C 
ATOM     18  C   UNL d   1      29.021 -14.602  -6.596  0.00  0.00     0.012 C 
ENDBRANCH  12  13
ENDBRANCH   6   7
ENDBRANCH   5   6
ENDBRANCH   2   5
BRANCH   3  19
ATOM     19  N   UNL d   1      25.200 -18.587   0.124  0.00  0.00    -0.262 N 
ATOM     20  C   UNL d   1      23.760 -17.811  -0.057  0.00  0.00     0.291 C 
ATOM     21  O   UNL d   1      23.901 -16.582  -0.001  0.00  0.00    -0.264 OA
ATOM     22  H   UNL d   1      25.402 -19.581   0.261  0.00  0.00     0.190 HD
BRANCH  20  23
ATOM     23  C   UNL d   1      22.115 -18.451   0.019  0.00  0.00     0.158 C 
ATOM     24  N   UNL d   1      21.777 -18.653  -1.255  0.00  0.00    -0.168 NA
ATOM     25  N   UNL d   1      20.500 -18.587  -1.092  0.00  0.00    -0.277 N 
ATOM     26  C   UNL d   1      20.025 -19.469  -0.191  0.00  0.00     0.062 C 
ATOM     27  H   UNL d   1      20.003 -17.812  -1.492  0.00  0.00     0.189 HD
ATOM     28  C   UNL d   1      18.798 -20.205  -0.520  0.00  0.00     0.032 C 
ATOM     29  C   UNL d   1      20.895 -19.311   1.007  0.00  0.00     0.028 C 
ATOM     30  C   UNL d   1      18.000 -20.924   0.321  0.00  0.00     0.002 C 
ATOM     31  C   UNL d   1      18.497 -20.894   1.574  0.00  0.00     0.001 C 
ATOM     32  C   UNL d   1      19.787 -20.101   1.854  0.00  0.00     0.016 C 
ENDBRANCH  20  23
ENDBRANCH   3  19
TORSDOF 6
ENDMDL
MODEL 4
REMARK VINA RESULT:    -9.559      1.872      2.731
REMARK INTER + INTRA:         -12.209
REMARK INTER:                 -11.349
REMARK INTRA:                  -0.860
REMARK CONF_INDEPENDENT:        1.790
REMARK UNBOUND:                -0.860
REMARK  6 active torsions:
REMARK  status: ('A' for Active; 'I' for Inactive)
REMARK    1  A    between atoms: C_2  and  C_3 
REMARK       I    between atoms: C_2  and  N_17 
REMARK    2  A    between atoms: C_3  and  O_4 
REMARK    3  A    between atoms: O_4  and  C_5 
REMARK    4  A    between atoms: C_10  and  C_11 
REMARK    5  A    between atoms: N_17  and  N_18 
REMARK       I    between atoms: N_18  and  C_19 
REMARK    6  A    between atoms: C_19  and  C_21 
ROOT
ATOM      1  O   UNL d   1      28.122 -15.618  -1.269  0.00  0.00    -0.269 OA
ATOM      2  C   UNL d   1      27.215 -15.889  -0.460  0.00  0.00     0.260 C 
ATOM      3  N   UNL d   1      26.100 -16.687  -0.894  0.00  0.00    -0.265 N 
ATOM      4  H   UNL d   1      26.142 -16.926  -1.885  0.00  0.00     0.190 HD
ENDROOT
BRANCH   2   5
ATOM      5  C   UNL d   1      27.353 -15.362   0.986  0.00  0.00     0.280 C 
BRANCH   5   6
ATOM      6  O   UNL d   1      28.262 -14.243   1.173  0.00  0.00    -0.341 OA
BRANCH   6   7
ATOM      7  C   UNL d   1      29.600 -14.498   1.433  0.00  0.00     0.080 A 
ATOM      8  C   UNL d   1      30.369 -14.974   0.357  0.00  0.00     0.037 A 
ATOM      9  C   UNL d   1      31.696 -15.408   0.537  0.00  0.00     0.003 A 
ATOM     10  C   UNL d   1      32.306 -15.300   1.779  0.00  0.00     0.001 A 
ATOM     11  C   UNL d   1      31.558 -14.841   2.853  0.00  0.00     0.015 A 
ATOM     12  C   UNL d   1      30.205 -14.449   2.701  0.00  0.00     0.007 A 
BRANCH  12  13
ATOM     13  C   UNL d   1      29.490 -14.094   3.915  0.00  0.00    -0.023 C 
ATOM     14  C   UNL d   1      28.384 -13.235   3.861  0.00  0.00     0.012 C 
ATOM     15  C   UNL d   1      27.780 -12.823   5.041  0.00  0.00     0.001 C 
ATOM     16  C   UNL d   1      28.166 -13.390   6.257  0.00  0.00     0.000 C 
ATOM     17  C   UNL d   1      29.209 -14.312   6.309  0.00  0.00     0.001 C 
ATOM     18  C   UNL d   1      29.893 -14.632   5.147  0.00  0.00     0.012 C 
ENDBRANCH  12  13
ENDBRANCH   6   7
ENDBRANCH   5   6
ENDBRANCH   2   5
BRANCH   3  19
ATOM     19  N   UNL d   1      24.818 -17.412  -0.115  0.00  0.00    -0.262 N 
ATOM     20  C   UNL d   1      23.624 -18.112  -1.004  0.00  0.00     0.291 C 
ATOM     21  O   UNL d   1      23.834 -17.991  -2.218  0.00  0.00    -0.264 OA
ATOM     22  H   UNL d   1      24.871 -17.223   0.889  0.00  0.00     0.190 HD
BRANCH  20  23
ATOM     23  C   UNL d   1      22.024 -18.671  -0.503  0.00  0.00     0.158 C 
ATOM     24  N   UNL d   1      21.434 -19.053  -1.637  0.00  0.00    -0.168 NA
ATOM     25  N   UNL d   1      20.216 -18.916  -1.236  0.00  0.00    -0.277 N 
ATOM     26  C   UNL d   1      19.928 -19.631  -0.131  0.00  0.00     0.062 C 
ATOM     27  H   UNL d   1      19.654 -18.192  -1.645  0.00  0.00     0.189 HD
ATOM     28  C   UNL d   1      18.656 -20.362  -0.090  0.00  0.00     0.032 C 
ATOM     29  C   UNL d   1      21.023 -19.325   0.830  0.00  0.00     0.028 C 
ATOM     30  C   UNL d   1      18.041 -20.915   0.995  0.00  0.00     0.002 C 
ATOM     31  C   UNL d   1      18.781 -20.712   2.103  0.00  0.00     0.001 C 
ATOM     32  C   UNL d   1      20.105 -19.935   1.993  0.00  0.00     0.016 C 
ENDBRANCH  20  23
ENDBRANCH   3  19
TORSDOF 6
ENDMDL
MODEL 5
REMARK VINA RESULT:    -9.505      3.210      8.608
REMARK INTER + INTRA:         -12.915
REMARK INTER:                 -11.294
REMARK INTRA:                  -1.621
REMARK CONF_INDEPENDENT:        1.790
REMARK UNBOUND:                -1.621
REMARK  6 active torsions:
REMARK  status: ('A' for Active; 'I' for Inactive)
REMARK    1  A    between atoms: C_2  and  C_3 
REMARK       I    between atoms: C_2  and  N_17 
REMARK    2  A    between atoms: C_3  and  O_4 
REMARK    3  A    between atoms: O_4  and  C_5 
REMARK    4  A    between atoms: C_10  and  C_11 
REMARK    5  A    between atoms: N_17  and  N_18 
REMARK       I    between atoms: N_18  and  C_19 
REMARK    6  A    between atoms: C_19  and  C_21 
ROOT
ATOM      1  O   UNL d   1      25.621 -12.280  -3.684  0.00  0.00    -0.269 OA
ATOM      2  C   UNL d   1      25.665 -13.139  -2.784  0.00  0.00     0.260 C 
ATOM      3  N   UNL d   1      26.500 -12.915  -1.635  0.00  0.00    -0.265 N 
ATOM      4  H   UNL d   1      27.038 -12.050  -1.696  0.00  0.00     0.190 HD
ENDROOT
BRANCH   2   5
ATOM      5  C   UNL d   1      24.791 -14.405  -2.948  0.00  0.00     0.280 C 
BRANCH   5   6
ATOM      6  O   UNL d   1      25.509 -15.660  -3.088  0.00  0.00    -0.341 OA
BRANCH   6   7
ATOM      7  C   UNL d   1      26.315 -16.096  -2.047  0.00  0.00     0.080 A 
ATOM      8  C   UNL d   1      27.691 -15.836  -2.169  0.00  0.00     0.037 A 
ATOM      9  C   UNL d   1      28.622 -16.359  -1.251  0.00  0.00     0.003 A 
ATOM     10  C   UNL d   1      28.188 -17.087  -0.151  0.00  0.00     0.001 A 
ATOM     11  C   UNL d   1      26.834 -17.359  -0.022  0.00  0.00     0.015 A 
ATOM     12  C   UNL d   1      25.889 -16.884  -0.964  0.00  0.00     0.007 A 
BRANCH  12  13
ATOM     13  C   UNL d   1      24.516 -17.327  -0.789  0.00  0.00    -0.023 C 
ATOM     14  C   UNL d   1      24.233 -18.674  -0.528  0.00  0.00     0.012 C 
ATOM     15  C   UNL d   1      22.913 -19.097  -0.470  0.00  0.00     0.001 C 
ATOM     16  C   UNL d   1      21.878 -18.160  -0.507  0.00  0.00     0.000 C 
ATOM     17  C   UNL d   1      22.155 -16.806  -0.680  0.00  0.00     0.001 C 
ATOM     18  C   UNL d   1      23.467 -16.397  -0.860  0.00  0.00     0.012 C 
ENDBRANCH  12  13
ENDBRANCH   6   7
ENDBRANCH   5   6
ENDBRANCH   2   5
BRANCH   3  19
ATOM     19  N   UNL d   1      26.698 -13.688  -0.173  0.00  0.00    -0.262 N 
ATOM     20  C   UNL d   1      26.992 -12.798   1.179  0.00  0.00     0.291 C 
ATOM     21  O   UNL d   1      27.050 -11.588   0.920  0.00  0.00    -0.264 OA
ATOM     22  H   UNL d   1      26.729 -14.700  -0.318  0.00  0.00     0.190 HD
BRANCH  20  23
ATOM     23  C   UNL d   1      27.541 -13.319   2.776  0.00  0.00     0.158 C 
ATOM     24  N   UNL d   1      28.538 -14.168   2.524  0.00  0.00    -0.168 NA
ATOM     25  N   UNL d   1      28.470 -14.826   3.631  0.00  0.00    -0.277 N 
ATOM     26  C   UNL d   1      28.593 -14.053   4.727  0.00  0.00     0.062 C 
ATOM     27  H   UNL d   1      28.169 -15.783   3.603  0.00  0.00     0.189 HD
ATOM     28  C   UNL d   1      29.448 -14.530   5.820  0.00  0.00     0.032 C 
ATOM     29  C   UNL d   1      27.643 -12.925   4.519  0.00  0.00     0.028 C 
ATOM     30  C   UNL d   1      29.509 -14.066   7.102  0.00  0.00     0.002 C 
ATOM     31  C   UNL d   1      28.646 -13.044   7.268  0.00  0.00     0.001 C 
ATOM     32  C   UNL d   1      27.775 -12.592   6.081  0.00  0.00     0.016 C 
ENDBRANCH  20  23
ENDBRANCH   3  19
TORSDOF 6
ENDMDL
MODEL 6
REMARK VINA RESULT:    -9.276      4.068      9.592
REMARK INTER + INTRA:         -12.460
REMARK INTER:                 -11.066
REMARK INTRA:                  -1.394
REMARK CONF_INDEPENDENT:        1.790
REMARK UNBOUND:                -1.394
REMARK  6 active torsions:
REMARK  status: ('A' for Active; 'I' for Inactive)
REMARK    1  A    between atoms: C_2  and  C_3 
REMARK       I    between atoms: C_2  and  N_17 
REMARK    2  A    between atoms: C_3  and  O_4 
REMARK    3  A    between atoms: O_4  and  C_5 
REMARK    4  A    between atoms: C_10  and  C_11 
REMARK    5  A    between atoms: N_17  and  N_18 
REMARK       I    between atoms: N_18  and  C_19 
REMARK    6  A    between atoms: C_19  and  C_21 
ROOT
ATOM      1  O   UNL d   1      28.395 -14.319  -1.641  0.00  0.00    -0.269 OA
ATOM      2  C   UNL d   1      28.537 -14.943  -0.573  0.00  0.00     0.260 C 
ATOM      3  N   UNL d   1      28.722 -14.211   0.651  0.00  0.00    -0.265 N 
ATOM      4  H   UNL d   1      28.768 -13.202   0.509  0.00  0.00     0.190 HD
ENDROOT
BRANCH   2   5
ATOM      5  C   UNL d   1      28.484 -16.487  -0.625  0.00  0.00     0.280 C 
BRANCH   5   6
ATOM      6  O   UNL d   1      27.495 -17.062  -1.521  0.00  0.00    -0.341 OA
BRANCH   6   7
ATOM      7  C   UNL d   1      26.158 -17.036  -1.155  0.00  0.00     0.080 A 
ATOM      8  C   UNL d   1      25.730 -18.044  -0.274  0.00  0.00     0.037 A 
ATOM      9  C   UNL d   1      24.370 -18.208   0.049  0.00  0.00     0.003 A 
ATOM     10  C   UNL d   1      23.421 -17.320  -0.440  0.00  0.00     0.001 A 
ATOM     11  C   UNL d   1      23.826 -16.326  -1.318  0.00  0.00     0.015 A 
ATOM     12  C   UNL d   1      25.184 -16.178  -1.695  0.00  0.00     0.007 A 
BRANCH  12  13
ATOM     13  C   UNL d   1      25.473 -15.177  -2.707  0.00  0.00    -0.023 C 
ATOM     14  C   UNL d   1      25.347 -13.813  -2.413  0.00  0.00     0.012 C 
ATOM     15  C   UNL d   1      25.525 -12.876  -3.421  0.00  0.00     0.001 C 
ATOM     16  C   UNL d   1      25.986 -13.280  -4.675  0.00  0.00     0.000 C 
ATOM     17  C   UNL d   1      26.198 -14.630  -4.951  0.00  0.00     0.001 C 
ATOM     18  C   UNL d   1      25.905 -15.576  -3.982  0.00  0.00     0.012 C 
ENDBRANCH  12  13
ENDBRANCH   6   7
ENDBRANCH   5   6
ENDBRANCH   2   5
BRANCH   3  19
ATOM     19  N   UNL d   1      28.757 -14.633   2.262  0.00  0.00    -0.262 N 
ATOM     20  C   UNL d   1      28.181 -13.579   3.387  0.00  0.00     0.291 C 
ATOM     21  O   UNL d   1      27.782 -12.531   2.861  0.00  0.00    -0.264 OA
ATOM     22  H   UNL d   1      29.273 -15.508   2.380  0.00  0.00     0.190 HD
BRANCH  20  23
ATOM     23  C   UNL d   1      28.358 -13.596   5.145  0.00  0.00     0.158 C 
ATOM     24  N   UNL d   1      29.223 -14.583   5.382  0.00  0.00    -0.168 NA
ATOM     25  N   UNL d   1      28.859 -14.825   6.595  0.00  0.00    -0.277 N 
ATOM     26  C   UNL d   1      28.928 -13.749   7.404  0.00  0.00     0.062 C 
ATOM     27  H   UNL d   1      28.408 -15.699   6.797  0.00  0.00     0.189 HD
ATOM     28  C   UNL d   1      29.493 -13.926   8.747  0.00  0.00     0.032 C 
ATOM     29  C   UNL d   1      28.232 -12.659   6.665  0.00  0.00     0.028 C 
ATOM     30  C   UNL d   1      29.417 -13.072   9.808  0.00  0.00     0.002 C 
ATOM     31  C   UNL d   1      28.726 -11.966   9.467  0.00  0.00     0.001 C 
ATOM     32  C   UNL d   1      28.155 -11.843   8.042  0.00  0.00     0.016 C 
ENDBRANCH  20  23
ENDBRANCH   3  19
TORSDOF 6
ENDMDL
MODEL 7
REMARK VINA RESULT:    -9.215      4.027     10.281
REMARK INTER + INTRA:         -12.231
REMARK INTER:                 -11.005
REMARK INTRA:                  -1.226
REMARK CONF_INDEPENDENT:        1.790
REMARK UNBOUND:                -1.226
REMARK  6 active torsions:
REMARK  status: ('A' for Active; 'I' for Inactive)
REMARK    1  A    between atoms: C_2  and  C_3 
REMARK       I    between atoms: C_2  and  N_17 
REMARK    2  A    between atoms: C_3  and  O_4 
REMARK    3  A    between atoms: O_4  and  C_5 
REMARK    4  A    between atoms: C_10  and  C_11 
REMARK    5  A    between atoms: N_17  and  N_18 
REMARK       I    between atoms: N_18  and  C_19 
REMARK    6  A    between atoms: C_19  and  C_21 
ROOT
ATOM      1  O   UNL d   1      26.481 -14.106   0.347  0.00  0.00    -0.269 OA
ATOM      2  C   UNL d   1      27.288 -14.665   1.112  0.00  0.00     0.260 C 
ATOM      3  N   UNL d   1      27.534 -14.101   2.412  0.00  0.00    -0.265 N 
ATOM      4  H   UNL d   1      27.031 -13.228   2.569  0.00  0.00     0.190 HD
ENDROOT
BRANCH   2   5
ATOM      5  C   UNL d   1      27.974 -15.961   0.620  0.00  0.00     0.280 C 
BRANCH   5   6
ATOM      6  O   UNL d   1      27.427 -16.550  -0.591  0.00  0.00    -0.341 OA
BRANCH   6   7
ATOM      7  C   UNL d   1      26.097 -16.940  -0.610  0.00  0.00     0.080 A 
ATOM      8  C   UNL d   1      25.735 -17.978   0.265  0.00  0.00     0.037 A 
ATOM      9  C   UNL d   1      24.452 -18.557   0.229  0.00  0.00     0.003 A 
ATOM     10  C   UNL d   1      23.482 -18.056  -0.630  0.00  0.00     0.001 A 
ATOM     11  C   UNL d   1      23.826 -17.038  -1.506  0.00  0.00     0.015 A 
ATOM     12  C   UNL d   1      25.127 -16.479  -1.519  0.00  0.00     0.007 A 
BRANCH  12  13
ATOM     13  C   UNL d   1      25.406 -15.499  -2.555  0.00  0.00    -0.023 C 
ATOM     14  C   UNL d   1      24.512 -14.449  -2.797  0.00  0.00     0.012 C 
ATOM     15  C   UNL d   1      24.741 -13.586  -3.860  0.00  0.00     0.001 C 
ATOM     16  C   UNL d   1      25.936 -13.665  -4.576  0.00  0.00     0.000 C 
ATOM     17  C   UNL d   1      26.872 -14.655  -4.286  0.00  0.00     0.001 C 
ATOM     18  C   UNL d   1      26.589 -15.592  -3.305  0.00  0.00     0.012 C 
ENDBRANCH  12  13
ENDBRANCH   6   7
ENDBRANCH   5   6
ENDBRANCH   2   5
BRANCH   3  19
ATOM     19  N   UNL d   1      28.361 -14.615   3.764  0.00  0.00    -0.262 N 
ATOM     20  C   UNL d   1      28.174 -13.804   5.183  0.00  0.00     0.291 C 
ATOM     21  O   UNL d   1      27.406 -12.841   5.055  0.00  0.00    -0.264 OA
ATOM     22  H   UNL d   1      29.019 -15.355   3.506  0.00  0.00     0.190 HD
BRANCH  20  23
ATOM     23  C   UNL d   1      29.120 -13.903   6.672  0.00  0.00     0.158 C 
ATOM     24  N   UNL d   1      30.000 -12.905   6.575  0.00  0.00    -0.168 NA
ATOM     25  N   UNL d   1      30.887 -13.398   7.370  0.00  0.00    -0.277 N 
ATOM     26  C   UNL d   1      30.414 -13.673   8.602  0.00  0.00     0.062 C 
ATOM     27  H   UNL d   1      31.767 -13.690   6.986  0.00  0.00     0.189 HD
ATOM     28  C   UNL d   1      31.236 -13.300   9.760  0.00  0.00     0.032 C 
ATOM     29  C   UNL d   1      29.164 -14.450   8.377  0.00  0.00     0.028 C 
ATOM     30  C   UNL d   1      31.098 -13.711  11.053  0.00  0.00     0.002 C 
ATOM     31  C   UNL d   1      30.048 -14.549  11.166  0.00  0.00     0.001 C 
ATOM     32  C   UNL d   1      29.227 -14.903   9.912  0.00  0.00     0.016 C 
ENDBRANCH  20  23
ENDBRANCH   3  19
TORSDOF 6
ENDMDL
MODEL 8
REMARK VINA RESULT:    -8.684      5.556      9.501
REMARK INTER + INTRA:         -12.248
REMARK INTER:                 -10.474
REMARK INTRA:                  -1.774
REMARK CONF_INDEPENDENT:        1.790
REMARK UNBOUND:                -1.774
REMARK  6 active torsions:
REMARK  status: ('A' for Active; 'I' for Inactive)
REMARK    1  A    between atoms: C_2  and  C_3 
REMARK       I    between atoms: C_2  and  N_17 
REMARK    2  A    between atoms: C_3  and  O_4 
REMARK    3  A    between atoms: O_4  and  C_5 
REMARK    4  A    between atoms: C_10  and  C_11 
REMARK    5  A    between atoms: N_17  and  N_18 
REMARK       I    between atoms: N_18  and  C_19 
REMARK    6  A    between atoms: C_19  and  C_21 
ROOT
ATOM      1  O   UNL d   1      25.518 -12.208  -4.658  0.00  0.00    -0.269 OA
ATOM      2  C   UNL d   1      25.897 -13.360  -4.378  0.00  0.00     0.260 C 
ATOM      3  N   UNL d   1      26.981 -13.945  -5.121  0.00  0.00    -0.265 N 
ATOM      4  H   UNL d   1      27.319 -13.344  -5.873  0.00  0.00     0.190 HD
ENDROOT
BRANCH   2   5
ATOM      5  C   UNL d   1      25.184 -14.096  -3.221  0.00  0.00     0.280 C 
BRANCH   5   6
ATOM      6  O   UNL d   1      25.532 -15.496  -3.045  0.00  0.00    -0.341 OA
BRANCH   6   7
ATOM      7  C   UNL d   1      26.319 -15.864  -1.964  0.00  0.00     0.080 A 
ATOM      8  C   UNL d   1      27.677 -15.509  -2.027  0.00  0.00     0.037 A 
ATOM      9  C   UNL d   1      28.599 -15.957  -1.063  0.00  0.00     0.003 A 
ATOM     10  C   UNL d   1      28.168 -16.702   0.027  0.00  0.00     0.001 A 
ATOM     11  C   UNL d   1      26.832 -17.068   0.099  0.00  0.00     0.015 A 
ATOM     12  C   UNL d   1      25.900 -16.670  -0.891  0.00  0.00     0.007 A 
BRANCH  12  13
ATOM     13  C   UNL d   1      24.555 -17.207  -0.772  0.00  0.00    -0.023 C 
ATOM     14  C   UNL d   1      24.355 -18.569  -0.516  0.00  0.00     0.012 C 
ATOM     15  C   UNL d   1      23.065 -19.083  -0.512  0.00  0.00     0.001 C 
ATOM     16  C   UNL d   1      21.971 -18.220  -0.596  0.00  0.00     0.000 C 
ATOM     17  C   UNL d   1      22.161 -16.849  -0.764  0.00  0.00     0.001 C 
ATOM     18  C   UNL d   1      23.448 -16.351  -0.890  0.00  0.00     0.012 C 
ENDBRANCH  12  13
ENDBRANCH   6   7
ENDBRANCH   5   6
ENDBRANCH   2   5
BRANCH   3  19
ATOM     19  N   UNL d   1      27.889 -15.331  -4.953  0.00  0.00    -0.262 N 
ATOM     20  C   UNL d   1      29.174 -15.582  -5.950  0.00  0.00     0.291 C 
ATOM     21  O   UNL d   1      29.302 -14.656  -6.762  0.00  0.00    -0.264 OA
ATOM     22  H   UNL d   1      27.441 -15.959  -4.281  0.00  0.00     0.190 HD
BRANCH  20  23
ATOM     23  C   UNL d   1      30.118 -17.050  -6.226  0.00  0.00     0.158 C 
ATOM     24  N   UNL d   1      30.012 -17.734  -5.086  0.00  0.00    -0.168 NA
ATOM     25  N   UNL d   1      31.091 -18.427  -5.215  0.00  0.00    -0.277 N 
ATOM     26  C   UNL d   1      31.137 -19.147  -6.353  0.00  0.00     0.062 C 
ATOM     27  H   UNL d   1      31.852 -18.253  -4.584  0.00  0.00     0.189 HD
ATOM     28  C   UNL d   1      31.614 -20.533  -6.278  0.00  0.00     0.032 C 
ATOM     29  C   UNL d   1      30.783 -18.190  -7.437  0.00  0.00     0.028 C 
ATOM     30  C   UNL d   1      31.996 -21.346  -7.305  0.00  0.00     0.002 C 
ATOM     31  C   UNL d   1      31.873 -20.698  -8.481  0.00  0.00     0.001 C 
ATOM     32  C   UNL d   1      31.370 -19.243  -8.491  0.00  0.00     0.016 C 
ENDBRANCH  20  23
ENDBRANCH   3  19
TORSDOF 6
ENDMDL
MODEL 9
REMARK VINA RESULT:    -8.554      3.905      8.334
REMARK INTER + INTRA:         -12.258
REMARK INTER:                 -10.344
REMARK INTRA:                  -1.914
REMARK CONF_INDEPENDENT:        1.790
REMARK UNBOUND:                -1.914
REMARK  6 active torsions:
REMARK  status: ('A' for Active; 'I' for Inactive)
REMARK    1  A    between atoms: C_2  and  C_3 
REMARK       I    between atoms: C_2  and  N_17 
REMARK    2  A    between atoms: C_3  and  O_4 
REMARK    3  A    between atoms: O_4  and  C_5 
REMARK    4  A    between atoms: C_10  and  C_11 
REMARK    5  A    between atoms: N_17  and  N_18 
REMARK       I    between atoms: N_18  and  C_19 
REMARK    6  A    between atoms: C_19  and  C_21 
ROOT
ATOM      1  O   UNL d   1      25.765 -11.792  -5.040  0.00  0.00    -0.269 OA
ATOM      2  C   UNL d   1      25.620 -12.571  -4.080  0.00  0.00     0.260 C 
ATOM      3  N   UNL d   1      26.381 -12.358  -2.879  0.00  0.00    -0.265 N 
ATOM      4  H   UNL d   1      27.031 -11.575  -2.952  0.00  0.00     0.190 HD
ENDROOT
BRANCH   2   5
ATOM      5  C   UNL d   1      24.604 -13.726  -4.232  0.00  0.00     0.280 C 
BRANCH   5   6
ATOM      6  O   UNL d   1      25.155 -15.070  -4.188  0.00  0.00    -0.341 OA
BRANCH   6   7
ATOM      7  C   UNL d   1      26.469 -15.246  -3.782  0.00  0.00     0.080 A 
ATOM      8  C   UNL d   1      27.465 -14.834  -4.685  0.00  0.00     0.037 A 
ATOM      9  C   UNL d   1      28.827 -15.099  -4.448  0.00  0.00     0.003 A 
ATOM     10  C   UNL d   1      29.227 -15.711  -3.267  0.00  0.00     0.001 A 
ATOM     11  C   UNL d   1      28.256 -16.131  -2.370  0.00  0.00     0.015 A 
ATOM     12  C   UNL d   1      26.877 -15.919  -2.617  0.00  0.00     0.007 A 
BRANCH  12  13
ATOM     13  C   UNL d   1      25.948 -16.504  -1.665  0.00  0.00    -0.023 C 
ATOM     14  C   UNL d   1      26.421 -17.250  -0.578  0.00  0.00     0.012 C 
ATOM     15  C   UNL d   1      25.517 -17.888   0.260  0.00  0.00     0.001 C 
ATOM     16  C   UNL d   1      24.149 -17.652   0.118  0.00  0.00     0.000 C 
ATOM     17  C   UNL d   1      23.672 -16.840  -0.910  0.00  0.00     0.001 C 
ATOM     18  C   UNL d   1      24.567 -16.300  -1.820  0.00  0.00     0.012 C 
ENDBRANCH  12  13
ENDBRANCH   6   7
ENDBRANCH   5   6
ENDBRANCH   2   5
BRANCH   3  19
ATOM     19  N   UNL d   1      26.353 -13.024  -1.352  0.00  0.00    -0.262 N 
ATOM     20  C   UNL d   1      27.563 -12.672  -0.294  0.00  0.00     0.291 C 
ATOM     21  O   UNL d   1      28.404 -11.920  -0.803  0.00  0.00    -0.264 OA
ATOM     22  H   UNL d   1      25.597 -13.711  -1.288  0.00  0.00     0.190 HD
BRANCH  20  23
ATOM     23  C   UNL d   1      27.976 -13.440   1.243  0.00  0.00     0.158 C 
ATOM     24  N   UNL d   1      29.249 -13.811   1.098  0.00  0.00    -0.168 NA
ATOM     25  N   UNL d   1      29.241 -14.753   1.978  0.00  0.00    -0.277 N 
ATOM     26  C   UNL d   1      28.864 -14.343   3.205  0.00  0.00     0.062 C 
ATOM     27  H   UNL d   1      29.337 -15.703   1.666  0.00  0.00     0.189 HD
ATOM     28  C   UNL d   1      29.628 -14.825   4.362  0.00  0.00     0.032 C 
ATOM     29  C   UNL d   1      27.609 -13.571   2.991  0.00  0.00     0.028 C 
ATOM     30  C   UNL d   1      29.279 -14.767   5.680  0.00  0.00     0.002 C 
ATOM     31  C   UNL d   1      28.077 -14.173   5.818  0.00  0.00     0.001 C 
ATOM     32  C   UNL d   1      27.325 -13.692   4.563  0.00  0.00     0.016 C 
ENDBRANCH  20  23
ENDBRANCH   3  19
TORSDOF 6
ENDMDL
