MODEL 1
REMARK VINA RESULT:   -10.474      0.000      0.000
REMARK INTER + INTRA:         -15.758
REMARK INTER:                 -13.457
REMARK INTRA:                  -2.301
REMARK CONF_INDEPENDENT:        2.983
REMARK UNBOUND:                -2.301
REMARK  10 active torsions:
REMARK  status: ('A' for Active; 'I' for Inactive)
REMARK    1  A    between atoms: O_1  and  C_2 
REMARK    2  A    between atoms: C_2  and  C_3 
REMARK    3  A    between atoms: C_3  and  N_4 
REMARK    4  A    between atoms: N_4  and  C_5 
REMARK    5  A    between atoms: C_5  and  C_6 
REMARK    6  A    between atoms: C_6  and  N_7 
REMARK    7  A    between atoms: N_7  and  C_8 
REMARK    8  A    between atoms: C_10  and  N_11 
REMARK    9  A    between atoms: N_11  and  C_12 
REMARK   10  A    between atoms: N_25  and  C_26 
ROOT
ATOM      1  C   UNL d   1      28.454 -15.026   0.111  0.00  0.00     0.726 C 
ATOM      2  N   UNL d   1      29.139 -14.407  -0.861  0.00  0.00    -0.044 NA
ATOM      3  C   UNL d   1      28.712 -14.464  -2.147  0.00  0.00     0.163 C 
ATOM      4  C   UNL d   1      27.433 -15.006  -2.373  0.00  0.00     0.078 A 
ATOM      5  C   UNL d   1      26.577 -15.220  -3.471  0.00  0.00     0.158 A 
ATOM      6  N   UNL d   1      25.490 -15.927  -3.161  0.00  0.00    -0.177 NA
ATOM      7  N   UNL d   1      25.582 -16.119  -1.812  0.00  0.00    -0.214 N 
ATOM      8  C   UNL d   1      26.765 -15.572  -1.290  0.00  0.00     0.185 A 
ATOM      9  N   UNL d   1      27.265 -15.645  -0.029  0.00  0.00    -0.042 NA
ENDROOT
BRANCH   3  10
ATOM     10  N   UNL d   1      29.561 -14.039  -3.191  0.00  0.00    -0.338 N 
ATOM     11  H   UNL d   1      30.452 -13.677  -2.870  0.00  0.00     0.167 HD
BRANCH  10  12
ATOM     12  C   UNL d   1      29.592 -14.556  -4.524  0.00  0.00     0.063 C 
ATOM     13  C   UNL d   1      29.321 -13.577  -5.546  0.00  0.00     0.032 C 
ATOM     14  C   UNL d   1      29.381 -13.914  -6.877  0.00  0.00     0.003 C 
ATOM     15  C   UNL d   1      29.814 -15.191  -7.204  0.00  0.00     0.013 C 
ATOM     16  C   UNL d   1      30.166 -16.134  -6.201  0.00  0.00    -0.008 C 
ATOM     17  C   UNL d   1      30.786 -17.310  -6.656  0.00  0.00    -0.002 C 
ATOM     18  C   UNL d   1      29.933 -15.978  -4.856  0.00  0.00     0.092 C 
ATOM     19  C   UNL d   1      31.257 -18.252  -5.760  0.00  0.00     0.062 C 
ATOM     20  C   UNL d   1      30.403 -18.369  -4.735  0.00  0.00     0.100 C 
ATOM     21  N   UNL d   1      29.981 -17.216  -4.116  0.00  0.00    -0.261 NA
ENDBRANCH  10  12
ENDBRANCH   3  10
BRANCH   1  22
ATOM     22  N   UNL d   1      29.091 -15.113   1.340  0.00  0.00    -0.221 N 
ATOM     23  H   UNL d   1      28.645 -15.774   1.960  0.00  0.00     0.177 HD
BRANCH  22  24
ATOM     24  C   UNL d   1      29.847 -13.967   1.816  0.00  0.00     0.165 C 
BRANCH  24  25
ATOM     25  C   UNL d   1      31.073 -14.415   2.642  0.00  0.00     0.252 C 
BRANCH  25  26
ATOM     26  N   UNL d   1      30.687 -14.849   4.035  0.00  0.00    -0.072 N 
ATOM     27  H   UNL d   1      30.134 -15.716   3.979  0.00  0.00     0.277 HD
ATOM     28  H   UNL d   1      31.534 -15.070   4.576  0.00  0.00     0.277 HD
BRANCH  26  29
ATOM     29  C   UNL d   1      29.893 -13.807   4.770  0.00  0.00     0.258 C 
BRANCH  29  30
ATOM     30  C   UNL d   1      28.454 -14.274   4.998  0.00  0.00     0.191 C 
BRANCH  30  31
ATOM     31  O   UNL d   1      28.109 -15.202   3.984  0.00  0.00    -0.399 OA
ATOM     32  H   UNL d   1      28.768 -15.922   3.983  0.00  0.00     0.209 HD
ENDBRANCH  30  31
ENDBRANCH  29  30
ENDBRANCH  26  29
ENDBRANCH  25  26
ENDBRANCH  24  25
ENDBRANCH  22  24
ENDBRANCH   1  22
BRANCH   7  33
ATOM     33  C   UNL d   1      24.536 -16.813  -1.142  0.00  0.00     0.060 A 
ATOM     34  C   UNL d   1      24.814 -18.019  -0.479  0.00  0.00     0.031 A 
ATOM     35  C   UNL d   1      23.799 -18.688   0.218  0.00  0.00     0.002 A 
ATOM     36  C   UNL d   1      22.495 -18.196   0.197  0.00  0.00     0.000 A 
ATOM     37  C   UNL d   1      22.204 -17.036  -0.522  0.00  0.00     0.002 A 
ATOM     38  C   UNL d   1      23.223 -16.332  -1.181  0.00  0.00     0.031 A 
ENDBRANCH   7  33
TORSDOF 10
ENDMDL
MODEL 2
REMARK VINA RESULT:   -10.113      3.082      6.952
REMARK INTER + INTRA:         -16.392
REMARK INTER:                 -13.096
REMARK INTRA:                  -3.296
REMARK CONF_INDEPENDENT:        2.983
REMARK UNBOUND:                -3.296
REMARK  10 active torsions:
REMARK  status: ('A' for Active; 'I' for Inactive)
REMARK    1  A    between atoms: O_1  and  C_2 
REMARK    2  A    between atoms: C_2  and  C_3 
REMARK    3  A    between atoms: C_3  and  N_4 
REMARK    4  A    between atoms: N_4  and  C_5 
REMARK    5  A    between atoms: C_5  and  C_6 
REMARK    6  A    between atoms: C_6  and  N_7 
REMARK    7  A    between atoms: N_7  and  C_8 
REMARK    8  A    between atoms: C_10  and  N_11 
REMARK    9  A    between atoms: N_11  and  C_12 
REMARK   10  A    between atoms: N_25  and  C_26 
ROOT
ATOM      1  C   UNL d   1      31.330 -15.178   2.588  0.00  0.00     0.726 C 
ATOM      2  N   UNL d   1      30.867 -15.392   1.348  0.00  0.00    -0.044 NA
ATOM      3  C   UNL d   1      29.566 -15.152   1.048  0.00  0.00     0.163 C 
ATOM      4  C   UNL d   1      28.799 -14.480   2.019  0.00  0.00     0.078 A 
ATOM      5  C   UNL d   1      27.486 -13.986   2.142  0.00  0.00     0.158 A 
ATOM      6  N   UNL d   1      27.205 -13.541   3.367  0.00  0.00    -0.177 NA
ATOM      7  N   UNL d   1      28.379 -13.664   4.052  0.00  0.00    -0.214 N 
ATOM      8  C   UNL d   1      29.384 -14.242   3.259  0.00  0.00     0.185 A 
ATOM      9  N   UNL d   1      30.642 -14.621   3.604  0.00  0.00    -0.042 NA
ENDROOT
BRANCH   3  10
ATOM     10  N   UNL d   1      29.027 -15.617  -0.169  0.00  0.00    -0.338 N 
ATOM     11  H   UNL d   1      29.726 -15.936  -0.831  0.00  0.00     0.167 HD
BRANCH  10  12
ATOM     12  C   UNL d   1      27.740 -16.215  -0.355  0.00  0.00     0.063 C 
ATOM     13  C   UNL d   1      27.408 -17.223   0.619  0.00  0.00     0.032 C 
ATOM     14  C   UNL d   1      26.179 -17.838   0.605  0.00  0.00     0.003 C 
ATOM     15  C   UNL d   1      25.236 -17.381  -0.304  0.00  0.00     0.013 C 
ATOM     16  C   UNL d   1      25.530 -16.327  -1.210  0.00  0.00    -0.008 C 
ATOM     17  C   UNL d   1      24.437 -15.815  -1.930  0.00  0.00    -0.002 C 
ATOM     18  C   UNL d   1      26.780 -15.801  -1.430  0.00  0.00     0.092 C 
ATOM     19  C   UNL d   1      24.591 -14.725  -2.768  0.00  0.00     0.062 C 
ATOM     20  C   UNL d   1      25.760 -14.812  -3.414  0.00  0.00     0.100 C 
ATOM     21  N   UNL d   1      26.887 -15.069  -2.669  0.00  0.00    -0.261 NA
ENDBRANCH  10  12
ENDBRANCH   3  10
BRANCH   1  22
ATOM     22  N   UNL d   1      32.597 -15.675   2.856  0.00  0.00    -0.221 N 
ATOM     23  H   UNL d   1      33.057 -15.177   3.604  0.00  0.00     0.177 HD
BRANCH  22  24
ATOM     24  C   UNL d   1      33.321 -16.348   1.791  0.00  0.00     0.165 C 
BRANCH  24  25
ATOM     25  C   UNL d   1      33.060 -17.871   1.818  0.00  0.00     0.252 C 
BRANCH  25  26
ATOM     26  N   UNL d   1      31.904 -18.262   0.931  0.00  0.00    -0.072 N 
ATOM     27  H   UNL d   1      31.483 -19.131   1.287  0.00  0.00     0.277 HD
ATOM     28  H   UNL d   1      31.174 -17.537   0.975  0.00  0.00     0.277 HD
BRANCH  26  29
ATOM     29  C   UNL d   1      32.311 -18.462  -0.501  0.00  0.00     0.258 C 
BRANCH  29  30
ATOM     30  C   UNL d   1      31.091 -18.455  -1.424  0.00  0.00     0.191 C 
BRANCH  30  31
ATOM     31  O   UNL d   1      29.948 -18.098  -0.666  0.00  0.00    -0.399 OA
ATOM     32  H   UNL d   1      29.776 -18.801  -0.011  0.00  0.00     0.209 HD
ENDBRANCH  30  31
ENDBRANCH  29  30
ENDBRANCH  26  29
ENDBRANCH  25  26
ENDBRANCH  24  25
ENDBRANCH  22  24
ENDBRANCH   1  22
BRANCH   7  33
ATOM     33  C   UNL d   1      28.438 -13.225   5.404  0.00  0.00     0.060 A 
ATOM     34  C   UNL d   1      28.138 -11.887   5.715  0.00  0.00     0.031 A 
ATOM     35  C   UNL d   1      28.153 -11.456   7.048  0.00  0.00     0.002 A 
ATOM     36  C   UNL d   1      28.533 -12.333   8.063  0.00  0.00     0.000 A 
ATOM     37  C   UNL d   1      28.900 -13.642   7.746  0.00  0.00     0.002 A 
ATOM     38  C   UNL d   1      28.840 -14.097   6.420  0.00  0.00     0.031 A 
ENDBRANCH   7  33
TORSDOF 10
ENDMDL
MODEL 3
REMARK VINA RESULT:   -10.014      4.234      9.815
REMARK INTER + INTRA:         -16.090
REMARK INTER:                 -12.997
REMARK INTRA:                  -3.094
REMARK CONF_INDEPENDENT:        2.983
REMARK UNBOUND:                -3.094
REMARK  10 active torsions:
REMARK  status: ('A' for Active; 'I' for Inactive)
REMARK    1  A    between atoms: O_1  and  C_2 
REMARK    2  A    between atoms: C_2  and  C_3 
REMARK    3  A    between atoms: C_3  and  N_4 
REMARK    4  A    between atoms: N_4  and  C_5 
REMARK    5  A    between atoms: C_5  and  C_6 
REMARK    6  A    between atoms: C_6  and  N_7 
REMARK    7  A    between atoms: N_7  and  C_8 
REMARK    8  A    between atoms: C_10  and  N_11 
REMARK    9  A    between atoms: N_11  and  C_12 
REMARK   10  A    between atoms: N_25  and  C_26 
ROOT
ATOM      1  C   UNL d   1      30.833 -14.826   3.455  0.00  0.00     0.726 C 
ATOM      2  N   UNL d   1      30.404 -15.056   4.704  0.00  0.00    -0.044 NA
ATOM      3  C   UNL d   1      29.166 -14.659   5.092  0.00  0.00     0.163 C 
ATOM      4  C   UNL d   1      28.297 -14.201   4.084  0.00  0.00     0.078 A 
ATOM      5  C   UNL d   1      26.965 -13.754   3.989  0.00  0.00     0.158 A 
ATOM      6  N   UNL d   1      26.654 -13.281   2.782  0.00  0.00    -0.177 NA
ATOM      7  N   UNL d   1      27.776 -13.493   2.033  0.00  0.00    -0.214 N 
ATOM      8  C   UNL d   1      28.811 -14.053   2.799  0.00  0.00     0.185 A 
ATOM      9  N   UNL d   1      30.098 -14.312   2.448  0.00  0.00    -0.042 NA
ENDROOT
BRANCH   3  10
ATOM     10  N   UNL d   1      28.820 -14.667   6.459  0.00  0.00    -0.338 N 
ATOM     11  H   UNL d   1      28.919 -15.575   6.900  0.00  0.00     0.167 HD
BRANCH  10  12
ATOM     12  C   UNL d   1      28.923 -13.568   7.369  0.00  0.00     0.063 C 
ATOM     13  C   UNL d   1      29.004 -12.277   6.733  0.00  0.00     0.032 C 
ATOM     14  C   UNL d   1      29.042 -11.125   7.481  0.00  0.00     0.003 C 
ATOM     15  C   UNL d   1      28.893 -11.239   8.855  0.00  0.00     0.013 C 
ATOM     16  C   UNL d   1      28.727 -12.505   9.480  0.00  0.00    -0.008 C 
ATOM     17  C   UNL d   1      28.376 -12.475  10.841  0.00  0.00    -0.002 C 
ATOM     18  C   UNL d   1      28.895 -13.718   8.860  0.00  0.00     0.092 C 
ATOM     19  C   UNL d   1      28.095 -13.644  11.524  0.00  0.00     0.062 C 
ATOM     20  C   UNL d   1      28.934 -14.611  11.131  0.00  0.00     0.100 C 
ATOM     21  N   UNL d   1      29.093 -14.813   9.780  0.00  0.00    -0.261 NA
ENDBRANCH  10  12
ENDBRANCH   3  10
BRANCH   1  22
ATOM     22  N   UNL d   1      32.183 -15.048   3.227  0.00  0.00    -0.221 N 
ATOM     23  H   UNL d   1      32.763 -14.708   3.980  0.00  0.00     0.177 HD
BRANCH  22  24
ATOM     24  C   UNL d   1      32.649 -15.154   1.855  0.00  0.00     0.165 C 
BRANCH  24  25
ATOM     25  C   UNL d   1      32.394 -16.570   1.290  0.00  0.00     0.252 C 
BRANCH  25  26
ATOM     26  N   UNL d   1      30.946 -16.780   0.924  0.00  0.00    -0.072 N 
ATOM     27  H   UNL d   1      30.723 -17.784   0.984  0.00  0.00     0.277 HD
ATOM     28  H   UNL d   1      30.343 -16.300   1.607  0.00  0.00     0.277 HD
BRANCH  26  29
ATOM     29  C   UNL d   1      30.617 -16.285  -0.455  0.00  0.00     0.258 C 
BRANCH  29  30
ATOM     30  C   UNL d   1      29.116 -16.026  -0.601  0.00  0.00     0.191 C 
BRANCH  30  31
ATOM     31  O   UNL d   1      28.488 -16.271   0.645  0.00  0.00    -0.399 OA
ATOM     32  H   UNL d   1      29.047 -15.901   1.355  0.00  0.00     0.209 HD
ENDBRANCH  30  31
ENDBRANCH  29  30
ENDBRANCH  26  29
ENDBRANCH  25  26
ENDBRANCH  24  25
ENDBRANCH  22  24
ENDBRANCH   1  22
BRANCH   7  33
ATOM     33  C   UNL d   1      27.762 -13.137   0.655  0.00  0.00     0.060 A 
ATOM     34  C   UNL d   1      26.717 -13.585  -0.169  0.00  0.00     0.031 A 
ATOM     35  C   UNL d   1      26.674 -13.206  -1.517  0.00  0.00     0.002 A 
ATOM     36  C   UNL d   1      27.704 -12.441  -2.062  0.00  0.00     0.000 A 
ATOM     37  C   UNL d   1      28.780 -12.056  -1.260  0.00  0.00     0.002 A 
ATOM     38  C   UNL d   1      28.806 -12.388   0.103  0.00  0.00     0.031 A 
ENDBRANCH   7  33
TORSDOF 10
ENDMDL
MODEL 4
REMARK VINA RESULT:    -9.851      3.209      6.798
REMARK INTER + INTRA:         -16.387
REMARK INTER:                 -12.834
REMARK INTRA:                  -3.553
REMARK CONF_INDEPENDENT:        2.983
REMARK UNBOUND:                -3.553
REMARK  10 active torsions:
REMARK  status: ('A' for Active; 'I' for Inactive)
REMARK    1  A    between atoms: O_1  and  C_2 
REMARK    2  A    between atoms: C_2  and  C_3 
REMARK    3  A    between atoms: C_3  and  N_4 
REMARK    4  A    between atoms: N_4  and  C_5 
REMARK    5  A    between atoms: C_5  and  C_6 
REMARK    6  A    between atoms: C_6  and  N_7 
REMARK    7  A    between atoms: N_7  and  C_8 
REMARK    8  A    between atoms: C_10  and  N_11 
REMARK    9  A    between atoms: N_11  and  C_12 
REMARK   10  A    between atoms: N_25  and  C_26 
ROOT
ATOM      1  C   UNL d   1      31.417 -15.076   2.608  0.00  0.00     0.726 C 
ATOM      2  N   UNL d   1      30.992 -15.115   1.337  0.00  0.00    -0.044 NA
ATOM      3  C   UNL d   1      29.714 -14.784   1.028  0.00  0.00     0.163 C 
ATOM      4  C   UNL d   1      28.938 -14.205   2.050  0.00  0.00     0.078 A 
ATOM      5  C   UNL d   1      27.642 -13.674   2.193  0.00  0.00     0.158 A 
ATOM      6  N   UNL d   1      27.333 -13.372   3.454  0.00  0.00    -0.177 NA
ATOM      7  N   UNL d   1      28.475 -13.629   4.156  0.00  0.00    -0.214 N 
ATOM      8  C   UNL d   1      29.485 -14.147   3.329  0.00  0.00     0.185 A 
ATOM      9  N   UNL d   1      30.714 -14.619   3.664  0.00  0.00    -0.042 NA
ENDROOT
BRANCH   3  10
ATOM     10  N   UNL d   1      29.202 -15.071  -0.254  0.00  0.00    -0.338 N 
ATOM     11  H   UNL d   1      29.815 -15.650  -0.818  0.00  0.00     0.167 HD
BRANCH  10  12
ATOM     12  C   UNL d   1      27.821 -15.167  -0.616  0.00  0.00     0.063 C 
ATOM     13  C   UNL d   1      27.367 -14.125  -1.502  0.00  0.00     0.032 C 
ATOM     14  C   UNL d   1      26.081 -14.124  -1.987  0.00  0.00     0.003 C 
ATOM     15  C   UNL d   1      25.273 -15.210  -1.683  0.00  0.00     0.013 C 
ATOM     16  C   UNL d   1      25.745 -16.284  -0.880  0.00  0.00    -0.008 C 
ATOM     17  C   UNL d   1      24.913 -17.415  -0.820  0.00  0.00    -0.002 C 
ATOM     18  C   UNL d   1      26.921 -16.280  -0.171  0.00  0.00     0.092 C 
ATOM     19  C   UNL d   1      25.318 -18.554  -0.146  0.00  0.00     0.062 C 
ATOM     20  C   UNL d   1      25.965 -18.212   0.974  0.00  0.00     0.100 C 
ATOM     21  N   UNL d   1      26.965 -17.272   0.877  0.00  0.00    -0.261 NA
ENDBRANCH  10  12
ENDBRANCH   3  10
BRANCH   1  22
ATOM     22  N   UNL d   1      32.653 -15.657   2.852  0.00  0.00    -0.221 N 
ATOM     23  H   UNL d   1      33.163 -15.186   3.586  0.00  0.00     0.177 HD
BRANCH  22  24
ATOM     24  C   UNL d   1      33.305 -16.384   1.777  0.00  0.00     0.165 C 
BRANCH  24  25
ATOM     25  C   UNL d   1      32.784 -17.836   1.693  0.00  0.00     0.252 C 
BRANCH  25  26
ATOM     26  N   UNL d   1      31.565 -17.948   0.810  0.00  0.00    -0.072 N 
ATOM     27  H   UNL d   1      31.155 -18.887   0.917  0.00  0.00     0.277 HD
ATOM     28  H   UNL d   1      30.851 -17.274   1.119  0.00  0.00     0.277 HD
BRANCH  26  29
ATOM     29  C   UNL d   1      31.873 -17.708  -0.640  0.00  0.00     0.258 C 
BRANCH  29  30
ATOM     30  C   UNL d   1      30.602 -17.771  -1.488  0.00  0.00     0.191 C 
BRANCH  30  31
ATOM     31  O   UNL d   1      29.478 -17.782  -0.626  0.00  0.00    -0.399 OA
ATOM     32  H   UNL d   1      29.463 -18.630  -0.142  0.00  0.00     0.209 HD
ENDBRANCH  30  31
ENDBRANCH  29  30
ENDBRANCH  26  29
ENDBRANCH  25  26
ENDBRANCH  24  25
ENDBRANCH  22  24
ENDBRANCH   1  22
BRANCH   7  33
ATOM     33  C   UNL d   1      28.500 -13.363   5.553  0.00  0.00     0.060 A 
ATOM     34  C   UNL d   1      28.179 -12.078   6.023  0.00  0.00     0.031 A 
ATOM     35  C   UNL d   1      28.161 -11.818   7.400  0.00  0.00     0.002 A 
ATOM     36  C   UNL d   1      28.530 -12.812   8.304  0.00  0.00     0.000 A 
ATOM     37  C   UNL d   1      28.919 -14.067   7.833  0.00  0.00     0.002 A 
ATOM     38  C   UNL d   1      28.892 -14.353   6.460  0.00  0.00     0.031 A 
ENDBRANCH   7  33
TORSDOF 10
ENDMDL
MODEL 5
REMARK VINA RESULT:    -9.677      2.776      5.001
REMARK INTER + INTRA:         -15.791
REMARK INTER:                 -12.660
REMARK INTRA:                  -3.131
REMARK CONF_INDEPENDENT:        2.983
REMARK UNBOUND:                -3.131
REMARK  10 active torsions:
REMARK  status: ('A' for Active; 'I' for Inactive)
REMARK    1  A    between atoms: O_1  and  C_2 
REMARK    2  A    between atoms: C_2  and  C_3 
REMARK    3  A    between atoms: C_3  and  N_4 
REMARK    4  A    between atoms: N_4  and  C_5 
REMARK    5  A    between atoms: C_5  and  C_6 
REMARK    6  A    between atoms: C_6  and  N_7 
REMARK    7  A    between atoms: N_7  and  C_8 
REMARK    8  A    between atoms: C_10  and  N_11 
REMARK    9  A    between atoms: N_11  and  C_12 
REMARK   10  A    between atoms: N_25  and  C_26 
ROOT
ATOM      1  C   UNL d   1      28.744 -16.602  -0.374  0.00  0.00     0.726 C 
ATOM      2  N   UNL d   1      28.034 -16.276  -1.463  0.00  0.00    -0.044 NA
ATOM      3  C   UNL d   1      27.115 -15.279  -1.414  0.00  0.00     0.163 C 
ATOM      4  C   UNL d   1      27.100 -14.481  -0.254  0.00  0.00     0.078 A 
ATOM      5  C   UNL d   1      26.401 -13.353   0.218  0.00  0.00     0.158 A 
ATOM      6  N   UNL d   1      26.670 -13.063   1.491  0.00  0.00    -0.177 NA
ATOM      7  N   UNL d   1      27.630 -13.965   1.851  0.00  0.00    -0.214 N 
ATOM      8  C   UNL d   1      27.919 -14.858   0.806  0.00  0.00     0.185 A 
ATOM      9  N   UNL d   1      28.729 -15.949   0.805  0.00  0.00    -0.042 NA
ENDROOT
BRANCH   3  10
ATOM     10  N   UNL d   1      26.198 -15.113  -2.472  0.00  0.00    -0.338 N 
ATOM     11  H   UNL d   1      25.250 -15.388  -2.238  0.00  0.00     0.167 HD
BRANCH  10  12
ATOM     12  C   UNL d   1      26.276 -14.141  -3.520  0.00  0.00     0.063 C 
ATOM     13  C   UNL d   1      25.500 -12.950  -3.282  0.00  0.00     0.032 C 
ATOM     14  C   UNL d   1      25.530 -11.903  -4.171  0.00  0.00     0.003 C 
ATOM     15  C   UNL d   1      26.408 -11.986  -5.242  0.00  0.00     0.013 C 
ATOM     16  C   UNL d   1      27.239 -13.122  -5.433  0.00  0.00    -0.008 C 
ATOM     17  C   UNL d   1      28.228 -12.998  -6.423  0.00  0.00    -0.002 C 
ATOM     18  C   UNL d   1      27.130 -14.303  -4.741  0.00  0.00     0.092 C 
ATOM     19  C   UNL d   1      29.153 -14.007  -6.627  0.00  0.00     0.062 C 
ATOM     20  C   UNL d   1      28.558 -15.200  -6.505  0.00  0.00     0.100 C 
ATOM     21  N   UNL d   1      27.777 -15.416  -5.395  0.00  0.00    -0.261 NA
ENDBRANCH  10  12
ENDBRANCH   3  10
BRANCH   1  22
ATOM     22  N   UNL d   1      29.475 -17.778  -0.456  0.00  0.00    -0.221 N 
ATOM     23  H   UNL d   1      29.182 -18.463   0.225  0.00  0.00     0.177 HD
BRANCH  22  24
ATOM     24  C   UNL d   1      30.823 -17.723  -0.995  0.00  0.00     0.165 C 
BRANCH  24  25
ATOM     25  C   UNL d   1      31.735 -16.834  -0.120  0.00  0.00     0.252 C 
BRANCH  25  26
ATOM     26  N   UNL d   1      31.520 -17.082   1.352  0.00  0.00    -0.072 N 
ATOM     27  H   UNL d   1      30.579 -16.756   1.617  0.00  0.00     0.277 HD
ATOM     28  H   UNL d   1      31.549 -18.094   1.541  0.00  0.00     0.277 HD
BRANCH  26  29
ATOM     29  C   UNL d   1      32.540 -16.393   2.213  0.00  0.00     0.258 C 
BRANCH  29  30
ATOM     30  C   UNL d   1      32.054 -15.006   2.635  0.00  0.00     0.191 C 
BRANCH  30  31
ATOM     31  O   UNL d   1      30.834 -14.728   1.970  0.00  0.00    -0.399 OA
ATOM     32  H   UNL d   1      30.134 -15.290   2.353  0.00  0.00     0.209 HD
ENDBRANCH  30  31
ENDBRANCH  29  30
ENDBRANCH  26  29
ENDBRANCH  25  26
ENDBRANCH  24  25
ENDBRANCH  22  24
ENDBRANCH   1  22
BRANCH   7  33
ATOM     33  C   UNL d   1      28.183 -13.898   3.161  0.00  0.00     0.060 A 
ATOM     34  C   UNL d   1      29.137 -12.913   3.464  0.00  0.00     0.031 A 
ATOM     35  C   UNL d   1      29.656 -12.814   4.762  0.00  0.00     0.002 A 
ATOM     36  C   UNL d   1      29.280 -13.736   5.738  0.00  0.00     0.000 A 
ATOM     37  C   UNL d   1      28.386 -14.759   5.416  0.00  0.00     0.002 A 
ATOM     38  C   UNL d   1      27.823 -14.836   4.134  0.00  0.00     0.031 A 
ENDBRANCH   7  33
TORSDOF 10
ENDMDL
MODEL 6
REMARK VINA RESULT:    -9.509      3.431      7.229
REMARK INTER + INTRA:         -15.778
REMARK INTER:                 -12.492
REMARK INTRA:                  -3.286
REMARK CONF_INDEPENDENT:        2.983
REMARK UNBOUND:                -3.286
REMARK  10 active torsions:
REMARK  status: ('A' for Active; 'I' for Inactive)
REMARK    1  A    between atoms: O_1  and  C_2 
REMARK    2  A    between atoms: C_2  and  C_3 
REMARK    3  A    between atoms: C_3  and  N_4 
REMARK    4  A    between atoms: N_4  and  C_5 
REMARK    5  A    between atoms: C_5  and  C_6 
REMARK    6  A    between atoms: C_6  and  N_7 
REMARK    7  A    between atoms: N_7  and  C_8 
REMARK    8  A    between atoms: C_10  and  N_11 
REMARK    9  A    between atoms: N_11  and  C_12 
REMARK   10  A    between atoms: N_25  and  C_26 
ROOT
ATOM      1  C   UNL d   1      30.932 -14.495   3.231  0.00  0.00     0.726 C 
ATOM      2  N   UNL d   1      30.174 -14.583   2.128  0.00  0.00    -0.044 NA
ATOM      3  C   UNL d   1      28.826 -14.455   2.207  0.00  0.00     0.163 C 
ATOM      4  C   UNL d   1      28.296 -14.019   3.436  0.00  0.00     0.078 A 
ATOM      5  C   UNL d   1      27.030 -13.701   3.964  0.00  0.00     0.158 A 
ATOM      6  N   UNL d   1      27.051 -13.468   5.277  0.00  0.00    -0.177 NA
ATOM      7  N   UNL d   1      28.371 -13.551   5.617  0.00  0.00    -0.214 N 
ATOM      8  C   UNL d   1      29.169 -13.892   4.513  0.00  0.00     0.185 A 
ATOM      9  N   UNL d   1      30.499 -14.168   4.465  0.00  0.00    -0.042 NA
ENDROOT
BRANCH   3  10
ATOM     10  N   UNL d   1      28.020 -14.803   1.104  0.00  0.00    -0.338 N 
ATOM     11  H   UNL d   1      27.436 -15.617   1.265  0.00  0.00     0.167 HD
BRANCH  10  12
ATOM     12  C   UNL d   1      27.505 -13.909   0.112  0.00  0.00     0.063 C 
ATOM     13  C   UNL d   1      27.997 -12.559   0.218  0.00  0.00     0.032 C 
ATOM     14  C   UNL d   1      27.640 -11.605  -0.705  0.00  0.00     0.003 C 
ATOM     15  C   UNL d   1      26.883 -12.009  -1.794  0.00  0.00     0.013 C 
ATOM     16  C   UNL d   1      26.466 -13.359  -1.948  0.00  0.00    -0.008 C 
ATOM     17  C   UNL d   1      25.891 -13.685  -3.188  0.00  0.00    -0.002 C 
ATOM     18  C   UNL d   1      26.577 -14.333  -0.986  0.00  0.00     0.092 C 
ATOM     19  C   UNL d   1      25.538 -14.990  -3.482  0.00  0.00     0.062 C 
ATOM     20  C   UNL d   1      25.019 -15.574  -2.395  0.00  0.00     0.100 C 
ATOM     21  N   UNL d   1      25.716 -15.468  -1.215  0.00  0.00    -0.261 NA
ENDBRANCH  10  12
ENDBRANCH   3  10
BRANCH   1  22
ATOM     22  N   UNL d   1      32.258 -14.875   3.087  0.00  0.00    -0.221 N 
ATOM     23  H   UNL d   1      32.857 -14.461   3.786  0.00  0.00     0.177 HD
BRANCH  22  24
ATOM     24  C   UNL d   1      32.732 -15.266   1.770  0.00  0.00     0.165 C 
BRANCH  24  25
ATOM     25  C   UNL d   1      32.521 -16.778   1.531  0.00  0.00     0.252 C 
BRANCH  25  26
ATOM     26  N   UNL d   1      31.155 -17.076   0.965  0.00  0.00    -0.072 N 
ATOM     27  H   UNL d   1      30.996 -18.093   0.978  0.00  0.00     0.277 HD
ATOM     28  H   UNL d   1      30.432 -16.654   1.565  0.00  0.00     0.277 HD
BRANCH  26  29
ATOM     29  C   UNL d   1      30.984 -16.570  -0.439  0.00  0.00     0.258 C 
BRANCH  29  30
ATOM     30  C   UNL d   1      29.520 -16.645  -0.875  0.00  0.00     0.191 C 
BRANCH  30  31
ATOM     31  O   UNL d   1      28.736 -17.061   0.230  0.00  0.00    -0.399 OA
ATOM     32  H   UNL d   1      29.061 -16.608   1.032  0.00  0.00     0.209 HD
ENDBRANCH  30  31
ENDBRANCH  29  30
ENDBRANCH  26  29
ENDBRANCH  25  26
ENDBRANCH  24  25
ENDBRANCH  22  24
ENDBRANCH   1  22
BRANCH   7  33
ATOM     33  C   UNL d   1      28.752 -13.302   6.965  0.00  0.00     0.060 A 
ATOM     34  C   UNL d   1      28.164 -12.238   7.670  0.00  0.00     0.031 A 
ATOM     35  C   UNL d   1      28.504 -12.012   9.010  0.00  0.00     0.002 A 
ATOM     36  C   UNL d   1      29.477 -12.796   9.628  0.00  0.00     0.000 A 
ATOM     37  C   UNL d   1      30.113 -13.807   8.905  0.00  0.00     0.002 A 
ATOM     38  C   UNL d   1      29.744 -14.074   7.578  0.00  0.00     0.031 A 
ENDBRANCH   7  33
TORSDOF 10
ENDMDL
MODEL 7
REMARK VINA RESULT:    -9.250      3.183      6.494
REMARK INTER + INTRA:         -15.897
REMARK INTER:                 -12.233
REMARK INTRA:                  -3.664
REMARK CONF_INDEPENDENT:        2.983
REMARK UNBOUND:                -3.664
REMARK  10 active torsions:
REMARK  status: ('A' for Active; 'I' for Inactive)
REMARK    1  A    between atoms: O_1  and  C_2 
REMARK    2  A    between atoms: C_2  and  C_3 
REMARK    3  A    between atoms: C_3  and  N_4 
REMARK    4  A    between atoms: N_4  and  C_5 
REMARK    5  A    between atoms: C_5  and  C_6 
REMARK    6  A    between atoms: C_6  and  N_7 
REMARK    7  A    between atoms: N_7  and  C_8 
REMARK    8  A    between atoms: C_10  and  N_11 
REMARK    9  A    between atoms: N_11  and  C_12 
REMARK   10  A    between atoms: N_25  and  C_26 
ROOT
ATOM      1  C   UNL d   1      30.517 -14.463   2.191  0.00  0.00     0.726 C 
ATOM      2  N   UNL d   1      30.153 -15.445   1.355  0.00  0.00    -0.044 NA
ATOM      3  C   UNL d   1      28.883 -15.511   0.881  0.00  0.00     0.163 C 
ATOM      4  C   UNL d   1      28.050 -14.404   1.131  0.00  0.00     0.078 A 
ATOM      5  C   UNL d   1      26.738 -14.004   0.814  0.00  0.00     0.158 A 
ATOM      6  N   UNL d   1      26.364 -12.886   1.437  0.00  0.00    -0.177 NA
ATOM      7  N   UNL d   1      27.478 -12.487   2.119  0.00  0.00    -0.214 N 
ATOM      8  C   UNL d   1      28.536 -13.398   1.960  0.00  0.00     0.185 A 
ATOM      9  N   UNL d   1      29.757 -13.410   2.554  0.00  0.00    -0.042 NA
ENDROOT
BRANCH   3  10
ATOM     10  N   UNL d   1      28.438 -16.674   0.220  0.00  0.00    -0.338 N 
ATOM     11  H   UNL d   1      28.923 -17.518   0.505  0.00  0.00     0.167 HD
BRANCH  10  12
ATOM     12  C   UNL d   1      27.123 -16.909  -0.294  0.00  0.00     0.063 C 
ATOM     13  C   UNL d   1      26.366 -17.892   0.441  0.00  0.00     0.032 C 
ATOM     14  C   UNL d   1      25.064 -18.174   0.103  0.00  0.00     0.003 C 
ATOM     15  C   UNL d   1      24.472 -17.409  -0.892  0.00  0.00     0.013 C 
ATOM     16  C   UNL d   1      25.188 -16.380  -1.560  0.00  0.00    -0.008 C 
ATOM     17  C   UNL d   1      24.424 -15.543  -2.391  0.00  0.00    -0.002 C 
ATOM     18  C   UNL d   1      26.541 -16.166  -1.458  0.00  0.00     0.092 C 
ATOM     19  C   UNL d   1      25.000 -14.450  -3.014  0.00  0.00     0.062 C 
ATOM     20  C   UNL d   1      26.232 -14.764  -3.432  0.00  0.00     0.100 C 
ATOM     21  N   UNL d   1      27.080 -15.367  -2.533  0.00  0.00    -0.261 NA
ENDBRANCH  10  12
ENDBRANCH   3  10
BRANCH   1  22
ATOM     22  N   UNL d   1      31.752 -14.616   2.804  0.00  0.00    -0.221 N 
ATOM     23  H   UNL d   1      31.842 -14.052   3.637  0.00  0.00     0.177 HD
BRANCH  22  24
ATOM     24  C   UNL d   1      32.889 -15.014   1.991  0.00  0.00     0.165 C 
BRANCH  24  25
ATOM     25  C   UNL d   1      33.083 -16.547   2.022  0.00  0.00     0.252 C 
BRANCH  25  26
ATOM     26  N   UNL d   1      31.991 -17.269   1.271  0.00  0.00    -0.072 N 
ATOM     27  H   UNL d   1      31.155 -17.335   1.868  0.00  0.00     0.277 HD
ATOM     28  H   UNL d   1      31.722 -16.722   0.441  0.00  0.00     0.277 HD
BRANCH  26  29
ATOM     29  C   UNL d   1      32.397 -18.649   0.839  0.00  0.00     0.258 C 
BRANCH  29  30
ATOM     30  C   UNL d   1      31.543 -19.129  -0.336  0.00  0.00     0.191 C 
BRANCH  30  31
ATOM     31  O   UNL d   1      30.479 -18.214  -0.530  0.00  0.00    -0.399 OA
ATOM     32  H   UNL d   1      29.666 -18.594  -0.143  0.00  0.00     0.209 HD
ENDBRANCH  30  31
ENDBRANCH  29  30
ENDBRANCH  26  29
ENDBRANCH  25  26
ENDBRANCH  24  25
ENDBRANCH  22  24
ENDBRANCH   1  22
BRANCH   7  33
ATOM     33  C   UNL d   1      27.433 -11.277   2.866  0.00  0.00     0.060 A 
ATOM     34  C   UNL d   1      28.094 -11.198   4.103  0.00  0.00     0.031 A 
ATOM     35  C   UNL d   1      28.089  -9.998   4.826  0.00  0.00     0.002 A 
ATOM     36  C   UNL d   1      27.371  -8.900   4.355  0.00  0.00     0.000 A 
ATOM     37  C   UNL d   1      26.655  -9.001   3.161  0.00  0.00     0.002 A 
ATOM     38  C   UNL d   1      26.694 -10.182   2.405  0.00  0.00     0.031 A 
ENDBRANCH   7  33
TORSDOF 10
ENDMDL
MODEL 8
REMARK VINA RESULT:    -8.684      2.813      6.914
REMARK INTER + INTRA:         -16.187
REMARK INTER:                 -11.667
REMARK INTRA:                  -4.520
REMARK CONF_INDEPENDENT:        2.983
REMARK UNBOUND:                -4.520
REMARK  10 active torsions:
REMARK  status: ('A' for Active; 'I' for Inactive)
REMARK    1  A    between atoms: O_1  and  C_2 
REMARK    2  A    between atoms: C_2  and  C_3 
REMARK    3  A    between atoms: C_3  and  N_4 
REMARK    4  A    between atoms: N_4  and  C_5 
REMARK    5  A    between atoms: C_5  and  C_6 
REMARK    6  A    between atoms: C_6  and  N_7 
REMARK    7  A    between atoms: N_7  and  C_8 
REMARK    8  A    between atoms: C_10  and  N_11 
REMARK    9  A    between atoms: N_11  and  C_12 
REMARK   10  A    between atoms: N_25  and  C_26 
ROOT
ATOM      1  C   UNL d   1      31.176 -14.830   2.915  0.00  0.00     0.726 C 
ATOM      2  N   UNL d   1      30.713 -14.740   1.660  0.00  0.00    -0.044 NA
ATOM      3  C   UNL d   1      29.448 -14.312   1.421  0.00  0.00     0.163 C 
ATOM      4  C   UNL d   1      28.738 -13.775   2.512  0.00  0.00     0.078 A 
ATOM      5  C   UNL d   1      27.480 -13.184   2.740  0.00  0.00     0.158 A 
ATOM      6  N   UNL d   1      27.226 -12.970   4.030  0.00  0.00    -0.177 NA
ATOM      7  N   UNL d   1      28.371 -13.348   4.671  0.00  0.00    -0.214 N 
ATOM      8  C   UNL d   1      29.324 -13.854   3.772  0.00  0.00     0.185 A 
ATOM      9  N   UNL d   1      30.532 -14.422   4.027  0.00  0.00    -0.042 NA
ENDROOT
BRANCH   3  10
ATOM     10  N   UNL d   1      28.884 -14.463   0.138  0.00  0.00    -0.338 N 
ATOM     11  H   UNL d   1      29.501 -14.182  -0.616  0.00  0.00     0.167 HD
BRANCH  10  12
ATOM     12  C   UNL d   1      27.901 -15.428  -0.250  0.00  0.00     0.063 C 
ATOM     13  C   UNL d   1      27.481 -16.306   0.813  0.00  0.00     0.032 C 
ATOM     14  C   UNL d   1      26.495 -17.241   0.605  0.00  0.00     0.003 C 
ATOM     15  C   UNL d   1      25.847 -17.238  -0.622  0.00  0.00     0.013 C 
ATOM     16  C   UNL d   1      26.200 -16.316  -1.644  0.00  0.00    -0.008 C 
ATOM     17  C   UNL d   1      25.337 -16.272  -2.753  0.00  0.00    -0.002 C 
ATOM     18  C   UNL d   1      27.304 -15.499  -1.623  0.00  0.00     0.092 C 
ATOM     19  C   UNL d   1      25.530 -15.344  -3.761  0.00  0.00     0.062 C 
ATOM     20  C   UNL d   1      26.840 -15.201  -4.000  0.00  0.00     0.100 C 
ATOM     21  N   UNL d   1      27.669 -14.991  -2.924  0.00  0.00    -0.261 NA
ENDBRANCH  10  12
ENDBRANCH   3  10
BRANCH   1  22
ATOM     22  N   UNL d   1      32.381 -15.498   3.071  0.00  0.00    -0.221 N 
ATOM     23  H   UNL d   1      32.891 -15.190   3.886  0.00  0.00     0.177 HD
BRANCH  22  24
ATOM     24  C   UNL d   1      33.029 -16.048   1.892  0.00  0.00     0.165 C 
BRANCH  24  25
ATOM     25  C   UNL d   1      32.286 -17.303   1.384  0.00  0.00     0.252 C 
BRANCH  25  26
ATOM     26  N   UNL d   1      31.097 -16.947   0.526  0.00  0.00    -0.072 N 
ATOM     27  H   UNL d   1      30.268 -16.830   1.126  0.00  0.00     0.277 HD
ATOM     28  H   UNL d   1      31.262 -16.041   0.066  0.00  0.00     0.277 HD
BRANCH  26  29
ATOM     29  C   UNL d   1      30.804 -17.983  -0.521  0.00  0.00     0.258 C 
BRANCH  29  30
ATOM     30  C   UNL d   1      30.250 -17.337  -1.792  0.00  0.00     0.191 C 
BRANCH  30  31
ATOM     31  O   UNL d   1      30.340 -15.929  -1.664  0.00  0.00    -0.399 OA
ATOM     32  H   UNL d   1      29.654 -15.520  -2.227  0.00  0.00     0.209 HD
ENDBRANCH  30  31
ENDBRANCH  29  30
ENDBRANCH  26  29
ENDBRANCH  25  26
ENDBRANCH  24  25
ENDBRANCH  22  24
ENDBRANCH   1  22
BRANCH   7  33
ATOM     33  C   UNL d   1      28.452 -13.200   6.084  0.00  0.00     0.060 A 
ATOM     34  C   UNL d   1      28.121 -11.968   6.674  0.00  0.00     0.031 A 
ATOM     35  C   UNL d   1      28.158 -11.825   8.067  0.00  0.00     0.002 A 
ATOM     36  C   UNL d   1      28.591 -12.881   8.868  0.00  0.00     0.000 A 
ATOM     37  C   UNL d   1      28.988 -14.081   8.276  0.00  0.00     0.002 A 
ATOM     38  C   UNL d   1      28.906 -14.251   6.886  0.00  0.00     0.031 A 
ENDBRANCH   7  33
TORSDOF 10
ENDMDL
MODEL 9
REMARK VINA RESULT:    -7.991      2.468      7.011
REMARK INTER + INTRA:         -15.789
REMARK INTER:                 -10.974
REMARK INTRA:                  -4.815
REMARK CONF_INDEPENDENT:        2.983
REMARK UNBOUND:                -4.815
REMARK  10 active torsions:
REMARK  status: ('A' for Active; 'I' for Inactive)
REMARK    1  A    between atoms: O_1  and  C_2 
REMARK    2  A    between atoms: C_2  and  C_3 
REMARK    3  A    between atoms: C_3  and  N_4 
REMARK    4  A    between atoms: N_4  and  C_5 
REMARK    5  A    between atoms: C_5  and  C_6 
REMARK    6  A    between atoms: C_6  and  N_7 
REMARK    7  A    between atoms: N_7  and  C_8 
REMARK    8  A    between atoms: C_10  and  N_11 
REMARK    9  A    between atoms: N_11  and  C_12 
REMARK   10  A    between atoms: N_25  and  C_26 
ROOT
ATOM      1  C   UNL d   1      30.005 -16.711  -0.174  0.00  0.00     0.726 C 
ATOM      2  N   UNL d   1      29.002 -16.284   0.605  0.00  0.00    -0.044 NA
ATOM      3  C   UNL d   1      27.934 -15.645   0.065  0.00  0.00     0.163 C 
ATOM      4  C   UNL d   1      27.832 -15.646  -1.339  0.00  0.00     0.078 A 
ATOM      5  C   UNL d   1      26.925 -15.183  -2.312  0.00  0.00     0.158 A 
ATOM      6  N   UNL d   1      27.379 -15.313  -3.559  0.00  0.00    -0.177 NA
ATOM      7  N   UNL d   1      28.579 -15.951  -3.420  0.00  0.00    -0.214 N 
ATOM      8  C   UNL d   1      28.895 -16.170  -2.069  0.00  0.00     0.185 A 
ATOM      9  N   UNL d   1      30.032 -16.674  -1.522  0.00  0.00    -0.042 NA
ENDROOT
BRANCH   3  10
ATOM     10  N   UNL d   1      27.017 -14.975   0.901  0.00  0.00    -0.338 N 
ATOM     11  H   UNL d   1      26.295 -15.578   1.280  0.00  0.00     0.167 HD
BRANCH  10  12
ATOM     12  C   UNL d   1      27.283 -13.818   1.699  0.00  0.00     0.063 C 
ATOM     13  C   UNL d   1      26.904 -12.572   1.081  0.00  0.00     0.032 C 
ATOM     14  C   UNL d   1      27.039 -11.383   1.756  0.00  0.00     0.003 C 
ATOM     15  C   UNL d   1      27.449 -11.431   3.080  0.00  0.00     0.013 C 
ATOM     16  C   UNL d   1      27.741 -12.665   3.721  0.00  0.00    -0.008 C 
ATOM     17  C   UNL d   1      27.939 -12.602   5.111  0.00  0.00    -0.002 C 
ATOM     18  C   UNL d   1      27.852 -13.877   3.084  0.00  0.00     0.092 C 
ATOM     19  C   UNL d   1      28.134 -13.756   5.850  0.00  0.00     0.062 C 
ATOM     20  C   UNL d   1      28.902 -14.610   5.162  0.00  0.00     0.100 C 
ATOM     21  N   UNL d   1      28.562 -14.870   3.856  0.00  0.00    -0.261 NA
ENDBRANCH  10  12
ENDBRANCH   3  10
BRANCH   1  22
ATOM     22  N   UNL d   1      31.150 -17.132   0.487  0.00  0.00    -0.221 N 
ATOM     23  H   UNL d   1      31.016 -18.008   0.972  0.00  0.00     0.177 HD
BRANCH  22  24
ATOM     24  C   UNL d   1      32.117 -16.133   0.909  0.00  0.00     0.165 C 
BRANCH  24  25
ATOM     25  C   UNL d   1      32.138 -15.997   2.448  0.00  0.00     0.252 C 
BRANCH  25  26
ATOM     26  N   UNL d   1      30.965 -15.200   2.961  0.00  0.00    -0.072 N 
ATOM     27  H   UNL d   1      30.168 -15.318   2.319  0.00  0.00     0.277 HD
ATOM     28  H   UNL d   1      30.668 -15.570   3.875  0.00  0.00     0.277 HD
BRANCH  26  29
ATOM     29  C   UNL d   1      31.272 -13.737   3.100  0.00  0.00     0.258 C 
BRANCH  29  30
ATOM     30  C   UNL d   1      30.793 -12.957   1.874  0.00  0.00     0.191 C 
BRANCH  30  31
ATOM     31  O   UNL d   1      30.217 -13.866   0.952  0.00  0.00    -0.399 OA
ATOM     32  H   UNL d   1      29.468 -14.318   1.385  0.00  0.00     0.209 HD
ENDBRANCH  30  31
ENDBRANCH  29  30
ENDBRANCH  26  29
ENDBRANCH  25  26
ENDBRANCH  24  25
ENDBRANCH  22  24
ENDBRANCH   1  22
BRANCH   7  33
ATOM     33  C   UNL d   1      29.319 -16.290  -4.587  0.00  0.00     0.060 A 
ATOM     34  C   UNL d   1      29.294 -15.432  -5.699  0.00  0.00     0.031 A 
ATOM     35  C   UNL d   1      30.052 -15.738  -6.837  0.00  0.00     0.002 A 
ATOM     36  C   UNL d   1      30.777 -16.927  -6.897  0.00  0.00     0.000 A 
ATOM     37  C   UNL d   1      30.744 -17.813  -5.819  0.00  0.00     0.002 A 
ATOM     38  C   UNL d   1      30.028 -17.493  -4.656  0.00  0.00     0.031 A 
ENDBRANCH   7  33
TORSDOF 10
ENDMDL
