MODEL 1
REMARK VINA RESULT:    -8.338      0.000      0.000
REMARK INTER + INTRA:         -10.372
REMARK INTER:                  -9.830
REMARK INTRA:                  -0.542
REMARK CONF_INDEPENDENT:        1.492
REMARK UNBOUND:                -0.542
REMARK  5 active torsions:
REMARK  status: ('A' for Active; 'I' for Inactive)
REMARK    1  A    between atoms: C_2  and  C_17 
REMARK    2  A    between atoms: N_3  and  N_4 
REMARK       I    between atoms: N_4  and  C_5 
REMARK    3  A    between atoms: C_5  and  C_7 
REMARK    4  A    between atoms: C_7  and  C_8 
REMARK    5  A    between atoms: C_20  and  O_21 
ROOT
ATOM      1  N   UNL d   1      23.206 -16.271  -0.961  0.00  0.00    -0.247 N 
ATOM      2  C   UNL d   1      23.398 -17.651  -0.866  0.00  0.00     0.241 C 
ATOM      3  O   UNL d   1      24.112 -18.284  -1.650  0.00  0.00    -0.271 OA
ATOM      4  H   UNL d   1      22.620 -15.797  -0.288  0.00  0.00     0.192 HD
ENDROOT
BRANCH   1   5
ATOM      5  N   UNL d   1      23.827 -15.574  -1.974  0.00  0.00    -0.176 NA
ATOM      6  C   UNL d   1      25.122 -15.432  -2.016  0.00  0.00     0.061 C 
ATOM      7  C   UNL d   1      26.090 -15.961  -0.981  0.00  0.00     0.073 C 
BRANCH   6   8
ATOM      8  C   UNL d   1      25.734 -14.632  -3.142  0.00  0.00    -0.010 A 
ATOM      9  C   UNL d   1      25.289 -13.338  -3.464  0.00  0.00     0.016 A 
ATOM     10  C   UNL d   1      25.844 -12.636  -4.549  0.00  0.00     0.037 A 
ATOM     11  C   UNL d   1      26.839 -13.233  -5.317  0.00  0.00     0.065 A 
ATOM     12  C   UNL d   1      27.285 -14.514  -5.012  0.00  0.00     0.037 A 
ATOM     13  C   UNL d   1      26.745 -15.209  -3.920  0.00  0.00     0.016 A 
BRANCH  11  14
ATOM     14  O   UNL d   1      27.411 -12.608  -6.385  0.00  0.00    -0.361 OA
ATOM     15  H   UNL d   1      28.373 -12.555  -6.264  0.00  0.00     0.217 HD
ENDBRANCH  11  14
ENDBRANCH   6   8
ENDBRANCH   1   5
BRANCH   2  16
ATOM     16  C   UNL d   1      22.639 -18.313   0.294  0.00  0.00     0.145 C 
BRANCH  16  17
ATOM     17  C   UNL d   1      21.339 -18.930  -0.148  0.00  0.00    -0.021 A 
ATOM     18  C   UNL d   1      20.848 -18.981  -1.440  0.00  0.00     0.097 A 
ATOM     19  N   UNL d   1      19.683 -19.700  -1.434  0.00  0.00    -0.365 N 
ATOM     20  C   UNL d   1      19.344 -20.046  -0.147  0.00  0.00     0.042 A 
ATOM     21  H   UNL d   1      19.142 -19.934  -2.255  0.00  0.00     0.165 HD
ATOM     22  C   UNL d   1      18.223 -20.727   0.347  0.00  0.00     0.030 A 
ATOM     23  C   UNL d   1      20.373 -19.586   0.679  0.00  0.00    -0.001 A 
ATOM     24  C   UNL d   1      18.139 -20.917   1.730  0.00  0.00     0.002 A 
ATOM     25  C   UNL d   1      19.153 -20.481   2.578  0.00  0.00     0.001 A 
ATOM     26  C   UNL d   1      20.280 -19.832   2.064  0.00  0.00     0.014 A 
ENDBRANCH  16  17
ENDBRANCH   2  16
TORSDOF 5
ENDMDL
MODEL 2
REMARK VINA RESULT:    -8.254      2.261      8.582
REMARK INTER + INTRA:         -10.417
REMARK INTER:                  -9.745
REMARK INTRA:                  -0.672
REMARK CONF_INDEPENDENT:        1.492
REMARK UNBOUND:                -0.672
REMARK  5 active torsions:
REMARK  status: ('A' for Active; 'I' for Inactive)
REMARK    1  A    between atoms: C_2  and  C_17 
REMARK    2  A    between atoms: N_3  and  N_4 
REMARK       I    between atoms: N_4  and  C_5 
REMARK    3  A    between atoms: C_5  and  C_7 
REMARK    4  A    between atoms: C_7  and  C_8 
REMARK    5  A    between atoms: C_20  and  O_21 
ROOT
ATOM      1  N   UNL d   1      24.816 -17.992   0.544  0.00  0.00    -0.247 N 
ATOM      2  C   UNL d   1      25.440 -17.611  -0.646  0.00  0.00     0.241 C 
ATOM      3  O   UNL d   1      24.939 -17.805  -1.757  0.00  0.00    -0.271 OA
ATOM      4  H   UNL d   1      25.262 -17.803   1.430  0.00  0.00     0.192 HD
ENDROOT
BRANCH   1   5
ATOM      5  N   UNL d   1      23.592 -18.623   0.489  0.00  0.00    -0.176 NA
ATOM      6  C   UNL d   1      22.540 -18.036  -0.010  0.00  0.00     0.061 C 
ATOM      7  C   UNL d   1      22.503 -16.622  -0.546  0.00  0.00     0.073 C 
BRANCH   6   8
ATOM      8  C   UNL d   1      21.223 -18.776  -0.015  0.00  0.00    -0.010 A 
ATOM      9  C   UNL d   1      20.673 -19.325   1.157  0.00  0.00     0.016 A 
ATOM     10  C   UNL d   1      19.469 -20.052   1.113  0.00  0.00     0.037 A 
ATOM     11  C   UNL d   1      18.821 -20.235  -0.104  0.00  0.00     0.065 A 
ATOM     12  C   UNL d   1      19.356 -19.700  -1.270  0.00  0.00     0.037 A 
ATOM     13  C   UNL d   1      20.548 -18.961  -1.227  0.00  0.00     0.016 A 
BRANCH  11  14
ATOM     14  O   UNL d   1      17.655 -20.935  -0.213  0.00  0.00    -0.361 OA
ATOM     15  H   UNL d   1      17.061 -20.496  -0.843  0.00  0.00     0.217 HD
ENDBRANCH  11  14
ENDBRANCH   6   8
ENDBRANCH   1   5
BRANCH   2  16
ATOM     16  C   UNL d   1      26.805 -16.935  -0.450  0.00  0.00     0.145 C 
BRANCH  16  17
ATOM     17  C   UNL d   1      27.305 -16.273  -1.706  0.00  0.00    -0.021 A 
ATOM     18  C   UNL d   1      28.578 -16.370  -2.238  0.00  0.00     0.097 A 
ATOM     19  N   UNL d   1      28.604 -15.695  -3.430  0.00  0.00    -0.365 N 
ATOM     20  C   UNL d   1      27.397 -15.074  -3.651  0.00  0.00     0.042 A 
ATOM     21  H   UNL d   1      29.399 -15.649  -4.052  0.00  0.00     0.165 HD
ATOM     22  C   UNL d   1      26.982 -14.238  -4.696  0.00  0.00     0.030 A 
ATOM     23  C   UNL d   1      26.559 -15.431  -2.591  0.00  0.00    -0.001 A 
ATOM     24  C   UNL d   1      25.681 -13.729  -4.640  0.00  0.00     0.002 A 
ATOM     25  C   UNL d   1      24.819 -14.075  -3.603  0.00  0.00     0.001 A 
ATOM     26  C   UNL d   1      25.239 -14.937  -2.586  0.00  0.00     0.014 A 
ENDBRANCH  16  17
ENDBRANCH   2  16
TORSDOF 5
ENDMDL
MODEL 3
REMARK VINA RESULT:    -8.167      2.314      8.823
REMARK INTER + INTRA:         -10.154
REMARK INTER:                  -9.659
REMARK INTRA:                  -0.495
REMARK CONF_INDEPENDENT:        1.492
REMARK UNBOUND:                -0.495
REMARK  5 active torsions:
REMARK  status: ('A' for Active; 'I' for Inactive)
REMARK    1  A    between atoms: C_2  and  C_17 
REMARK    2  A    between atoms: N_3  and  N_4 
REMARK       I    between atoms: N_4  and  C_5 
REMARK    3  A    between atoms: C_5  and  C_7 
REMARK    4  A    between atoms: C_7  and  C_8 
REMARK    5  A    between atoms: C_20  and  O_21 
ROOT
ATOM      1  N   UNL d   1      23.408 -16.183  -0.529  0.00  0.00    -0.247 N 
ATOM      2  C   UNL d   1      24.710 -16.597  -0.241  0.00  0.00     0.241 C 
ATOM      3  O   UNL d   1      24.963 -17.656   0.340  0.00  0.00    -0.271 OA
ATOM      4  H   UNL d   1      23.252 -15.311  -1.016  0.00  0.00     0.192 HD
ENDROOT
BRANCH   1   5
ATOM      5  N   UNL d   1      22.349 -16.976  -0.143  0.00  0.00    -0.176 NA
ATOM      6  C   UNL d   1      22.186 -18.179  -0.618  0.00  0.00     0.061 C 
ATOM      7  C   UNL d   1      23.078 -18.839  -1.645  0.00  0.00     0.073 C 
BRANCH   6   8
ATOM      8  C   UNL d   1      20.988 -18.985  -0.172  0.00  0.00    -0.010 A 
ATOM      9  C   UNL d   1      19.973 -19.367  -1.066  0.00  0.00     0.016 A 
ATOM     10  C   UNL d   1      18.844 -20.075  -0.613  0.00  0.00     0.037 A 
ATOM     11  C   UNL d   1      18.729 -20.392   0.737  0.00  0.00     0.065 A 
ATOM     12  C   UNL d   1      19.724 -20.016   1.632  0.00  0.00     0.037 A 
ATOM     13  C   UNL d   1      20.858 -19.325   1.180  0.00  0.00     0.016 A 
BRANCH  11  14
ATOM     14  O   UNL d   1      17.657 -21.069   1.239  0.00  0.00    -0.361 OA
ATOM     15  H   UNL d   1      17.280 -21.648   0.557  0.00  0.00     0.217 HD
ENDBRANCH  11  14
ENDBRANCH   6   8
ENDBRANCH   1   5
BRANCH   2  16
ATOM     16  C   UNL d   1      25.798 -15.617  -0.706  0.00  0.00     0.145 C 
BRANCH  16  17
ATOM     17  C   UNL d   1      25.647 -15.236  -2.155  0.00  0.00    -0.021 A 
ATOM     18  C   UNL d   1      24.501 -14.762  -2.767  0.00  0.00     0.097 A 
ATOM     19  N   UNL d   1      24.799 -14.450  -4.067  0.00  0.00    -0.365 N 
ATOM     20  C   UNL d   1      26.099 -14.797  -4.352  0.00  0.00     0.042 A 
ATOM     21  H   UNL d   1      24.155 -14.035  -4.726  0.00  0.00     0.165 HD
ATOM     22  C   UNL d   1      26.820 -14.717  -5.552  0.00  0.00     0.030 A 
ATOM     23  C   UNL d   1      26.658 -15.280  -3.167  0.00  0.00    -0.001 A 
ATOM     24  C   UNL d   1      28.142 -15.173  -5.545  0.00  0.00     0.002 A 
ATOM     25  C   UNL d   1      28.730 -15.650  -4.376  0.00  0.00     0.001 A 
ATOM     26  C   UNL d   1      28.006 -15.691  -3.181  0.00  0.00     0.014 A 
ENDBRANCH  16  17
ENDBRANCH   2  16
TORSDOF 5
ENDMDL
MODEL 4
REMARK VINA RESULT:    -8.144      4.650      8.835
REMARK INTER + INTRA:         -10.353
REMARK INTER:                  -9.635
REMARK INTRA:                  -0.718
REMARK CONF_INDEPENDENT:        1.492
REMARK UNBOUND:                -0.718
REMARK  5 active torsions:
REMARK  status: ('A' for Active; 'I' for Inactive)
REMARK    1  A    between atoms: C_2  and  C_17 
REMARK    2  A    between atoms: N_3  and  N_4 
REMARK       I    between atoms: N_4  and  C_5 
REMARK    3  A    between atoms: C_5  and  C_7 
REMARK    4  A    between atoms: C_7  and  C_8 
REMARK    5  A    between atoms: C_20  and  O_21 
ROOT
ATOM      1  N   UNL d   1      27.784 -15.759   0.430  0.00  0.00    -0.247 N 
ATOM      2  C   UNL d   1      28.344 -14.595  -0.100  0.00  0.00     0.241 C 
ATOM      3  O   UNL d   1      27.702 -13.794  -0.786  0.00  0.00    -0.271 OA
ATOM      4  H   UNL d   1      28.349 -16.378   0.994  0.00  0.00     0.192 HD
ENDROOT
BRANCH   1   5
ATOM      5  N   UNL d   1      26.460 -16.043   0.176  0.00  0.00    -0.176 NA
ATOM      6  C   UNL d   1      26.022 -17.270   0.119  0.00  0.00     0.061 C 
ATOM      7  C   UNL d   1      26.874 -18.509   0.280  0.00  0.00     0.073 C 
BRANCH   6   8
ATOM      8  C   UNL d   1      24.562 -17.511  -0.190  0.00  0.00    -0.010 A 
ATOM      9  C   UNL d   1      24.001 -18.800  -0.177  0.00  0.00     0.016 A 
ATOM     10  C   UNL d   1      22.650 -18.999  -0.516  0.00  0.00     0.037 A 
ATOM     11  C   UNL d   1      21.864 -17.909  -0.876  0.00  0.00     0.065 A 
ATOM     12  C   UNL d   1      22.408 -16.630  -0.895  0.00  0.00     0.037 A 
ATOM     13  C   UNL d   1      23.750 -16.426  -0.542  0.00  0.00     0.016 A 
BRANCH  11  14
ATOM     14  O   UNL d   1      20.551 -18.038  -1.221  0.00  0.00    -0.361 OA
ATOM     15  H   UNL d   1      20.237 -17.224  -1.647  0.00  0.00     0.217 HD
ENDBRANCH  11  14
ENDBRANCH   6   8
ENDBRANCH   1   5
BRANCH   2  16
ATOM     16  C   UNL d   1      29.830 -14.402   0.239  0.00  0.00     0.145 C 
BRANCH  16  17
ATOM     17  C   UNL d   1      30.097 -14.481   1.718  0.00  0.00    -0.021 A 
ATOM     18  C   UNL d   1      31.294 -14.821   2.322  0.00  0.00     0.097 A 
ATOM     19  N   UNL d   1      31.150 -14.691   3.678  0.00  0.00    -0.365 N 
ATOM     20  C   UNL d   1      29.850 -14.363   3.988  0.00  0.00     0.042 A 
ATOM     21  H   UNL d   1      31.887 -14.828   4.355  0.00  0.00     0.165 HD
ATOM     22  C   UNL d   1      29.230 -14.183   5.232  0.00  0.00     0.030 A 
ATOM     23  C   UNL d   1      29.172 -14.212   2.776  0.00  0.00    -0.001 A 
ATOM     24  C   UNL d   1      27.867 -13.869   5.235  0.00  0.00     0.002 A 
ATOM     25  C   UNL d   1      27.166 -13.701   4.044  0.00  0.00     0.001 A 
ATOM     26  C   UNL d   1      27.810 -13.851   2.812  0.00  0.00     0.014 A 
ENDBRANCH  16  17
ENDBRANCH   2  16
TORSDOF 5
ENDMDL
MODEL 5
REMARK VINA RESULT:    -8.037      2.791      9.334
REMARK INTER + INTRA:         -10.306
REMARK INTER:                  -9.529
REMARK INTRA:                  -0.777
REMARK CONF_INDEPENDENT:        1.492
REMARK UNBOUND:                -0.777
REMARK  5 active torsions:
REMARK  status: ('A' for Active; 'I' for Inactive)
REMARK    1  A    between atoms: C_2  and  C_17 
REMARK    2  A    between atoms: N_3  and  N_4 
REMARK       I    between atoms: N_4  and  C_5 
REMARK    3  A    between atoms: C_5  and  C_7 
REMARK    4  A    between atoms: C_7  and  C_8 
REMARK    5  A    between atoms: C_20  and  O_21 
ROOT
ATOM      1  N   UNL d   1      25.574 -14.245  -2.910  0.00  0.00    -0.247 N 
ATOM      2  C   UNL d   1      25.921 -14.332  -4.259  0.00  0.00     0.241 C 
ATOM      3  O   UNL d   1      25.473 -15.201  -5.012  0.00  0.00    -0.271 OA
ATOM      4  H   UNL d   1      25.960 -13.508  -2.336  0.00  0.00     0.192 HD
ENDROOT
BRANCH   1   5
ATOM      5  N   UNL d   1      24.700 -15.169  -2.379  0.00  0.00    -0.176 NA
ATOM      6  C   UNL d   1      25.099 -16.092  -1.550  0.00  0.00     0.061 C 
ATOM      7  C   UNL d   1      26.526 -16.297  -1.094  0.00  0.00     0.073 C 
BRANCH   6   8
ATOM      8  C   UNL d   1      24.091 -17.090  -1.027  0.00  0.00    -0.010 A 
ATOM      9  C   UNL d   1      24.459 -18.398  -0.665  0.00  0.00     0.016 A 
ATOM     10  C   UNL d   1      23.491 -19.321  -0.227  0.00  0.00     0.037 A 
ATOM     11  C   UNL d   1      22.155 -18.936  -0.161  0.00  0.00     0.065 A 
ATOM     12  C   UNL d   1      21.779 -17.647  -0.520  0.00  0.00     0.037 A 
ATOM     13  C   UNL d   1      22.744 -16.720  -0.940  0.00  0.00     0.016 A 
BRANCH  11  14
ATOM     14  O   UNL d   1      21.170 -19.786   0.247  0.00  0.00    -0.361 OA
ATOM     15  H   UNL d   1      21.397 -20.168   1.111  0.00  0.00     0.217 HD
ENDBRANCH  11  14
ENDBRANCH   6   8
ENDBRANCH   1   5
BRANCH   2  16
ATOM     16  C   UNL d   1      26.915 -13.256  -4.722  0.00  0.00     0.145 C 
BRANCH  16  17
ATOM     17  C   UNL d   1      27.911 -13.784  -5.720  0.00  0.00    -0.021 A 
ATOM     18  C   UNL d   1      28.202 -13.243  -6.959  0.00  0.00     0.097 A 
ATOM     19  N   UNL d   1      29.222 -13.965  -7.520  0.00  0.00    -0.365 N 
ATOM     20  C   UNL d   1      29.547 -15.032  -6.716  0.00  0.00     0.042 A 
ATOM     21  H   UNL d   1      29.664 -13.752  -8.404  0.00  0.00     0.165 HD
ATOM     22  C   UNL d   1      30.480 -16.061  -6.904  0.00  0.00     0.030 A 
ATOM     23  C   UNL d   1      28.750 -14.935  -5.574  0.00  0.00    -0.001 A 
ATOM     24  C   UNL d   1      30.577 -17.036  -5.906  0.00  0.00     0.002 A 
ATOM     25  C   UNL d   1      29.803 -16.961  -4.751  0.00  0.00     0.001 A 
ATOM     26  C   UNL d   1      28.902 -15.909  -4.566  0.00  0.00     0.014 A 
ENDBRANCH  16  17
ENDBRANCH   2  16
TORSDOF 5
ENDMDL
MODEL 6
REMARK VINA RESULT:    -7.829      3.045      8.928
REMARK INTER + INTRA:          -9.858
REMARK INTER:                  -9.321
REMARK INTRA:                  -0.537
REMARK CONF_INDEPENDENT:        1.492
REMARK UNBOUND:                -0.537
REMARK  5 active torsions:
REMARK  status: ('A' for Active; 'I' for Inactive)
REMARK    1  A    between atoms: C_2  and  C_17 
REMARK    2  A    between atoms: N_3  and  N_4 
REMARK       I    between atoms: N_4  and  C_5 
REMARK    3  A    between atoms: C_5  and  C_7 
REMARK    4  A    between atoms: C_7  and  C_8 
REMARK    5  A    between atoms: C_20  and  O_21 
ROOT
ATOM      1  N   UNL d   1      23.294 -16.345  -0.943  0.00  0.00    -0.247 N 
ATOM      2  C   UNL d   1      24.587 -16.694  -0.551  0.00  0.00     0.241 C 
ATOM      3  O   UNL d   1      24.825 -17.623   0.226  0.00  0.00    -0.271 OA
ATOM      4  H   UNL d   1      23.151 -15.582  -1.590  0.00  0.00     0.192 HD
ENDROOT
BRANCH   1   5
ATOM      5  N   UNL d   1      22.224 -17.055  -0.442  0.00  0.00    -0.176 NA
ATOM      6  C   UNL d   1      22.071 -18.326  -0.687  0.00  0.00     0.061 C 
ATOM      7  C   UNL d   1      22.986 -19.165  -1.551  0.00  0.00     0.073 C 
BRANCH   6   8
ATOM      8  C   UNL d   1      20.860 -19.038  -0.127  0.00  0.00    -0.010 A 
ATOM      9  C   UNL d   1      20.736 -19.328   1.243  0.00  0.00     0.016 A 
ATOM     10  C   UNL d   1      19.620 -20.035   1.728  0.00  0.00     0.037 A 
ATOM     11  C   UNL d   1      18.635 -20.458   0.841  0.00  0.00     0.065 A 
ATOM     12  C   UNL d   1      18.749 -20.180  -0.516  0.00  0.00     0.037 A 
ATOM     13  C   UNL d   1      19.852 -19.461  -1.000  0.00  0.00     0.016 A 
BRANCH  11  14
ATOM     14  O   UNL d   1      17.535 -21.152   1.249  0.00  0.00    -0.361 OA
ATOM     15  H   UNL d   1      17.794 -22.036   1.557  0.00  0.00     0.217 HD
ENDBRANCH  11  14
ENDBRANCH   6   8
ENDBRANCH   1   5
BRANCH   2  16
ATOM     16  C   UNL d   1      25.688 -15.815  -1.165  0.00  0.00     0.145 C 
BRANCH  16  17
ATOM     17  C   UNL d   1      26.865 -15.641  -0.243  0.00  0.00    -0.021 A 
ATOM     18  C   UNL d   1      27.951 -16.490  -0.123  0.00  0.00     0.097 A 
ATOM     19  N   UNL d   1      28.843 -15.935   0.755  0.00  0.00    -0.365 N 
ATOM     20  C   UNL d   1      28.324 -14.779   1.292  0.00  0.00     0.042 A 
ATOM     21  H   UNL d   1      29.747 -16.323   0.986  0.00  0.00     0.165 HD
ATOM     22  C   UNL d   1      28.846 -13.913   2.262  0.00  0.00     0.030 A 
ATOM     23  C   UNL d   1      27.090 -14.565   0.673  0.00  0.00    -0.001 A 
ATOM     24  C   UNL d   1      28.069 -12.810   2.630  0.00  0.00     0.002 A 
ATOM     25  C   UNL d   1      26.840 -12.563   2.024  0.00  0.00     0.001 A 
ATOM     26  C   UNL d   1      26.350 -13.421   1.034  0.00  0.00     0.014 A 
ENDBRANCH  16  17
ENDBRANCH   2  16
TORSDOF 5
ENDMDL
MODEL 7
REMARK VINA RESULT:    -7.779      6.390      8.681
REMARK INTER + INTRA:          -9.885
REMARK INTER:                  -9.270
REMARK INTRA:                  -0.614
REMARK CONF_INDEPENDENT:        1.492
REMARK UNBOUND:                -0.614
REMARK  5 active torsions:
REMARK  status: ('A' for Active; 'I' for Inactive)
REMARK    1  A    between atoms: C_2  and  C_17 
REMARK    2  A    between atoms: N_3  and  N_4 
REMARK       I    between atoms: N_4  and  C_5 
REMARK    3  A    between atoms: C_5  and  C_7 
REMARK    4  A    between atoms: C_7  and  C_8 
REMARK    5  A    between atoms: C_20  and  O_21 
ROOT
ATOM      1  N   UNL d   1      28.055 -14.852   2.373  0.00  0.00    -0.247 N 
ATOM      2  C   UNL d   1      27.246 -14.394   1.331  0.00  0.00     0.241 C 
ATOM      3  O   UNL d   1      26.430 -13.479   1.468  0.00  0.00    -0.271 OA
ATOM      4  H   UNL d   1      28.716 -15.598   2.207  0.00  0.00     0.192 HD
ENDROOT
BRANCH   1   5
ATOM      5  N   UNL d   1      27.942 -14.271   3.617  0.00  0.00    -0.176 NA
ATOM      6  C   UNL d   1      28.981 -14.075   4.379  0.00  0.00     0.061 C 
ATOM      7  C   UNL d   1      30.400 -14.471   4.038  0.00  0.00     0.073 C 
BRANCH   6   8
ATOM      8  C   UNL d   1      28.780 -13.457   5.744  0.00  0.00    -0.010 A 
ATOM      9  C   UNL d   1      28.287 -12.150   5.904  0.00  0.00     0.016 A 
ATOM     10  C   UNL d   1      28.157 -11.583   7.185  0.00  0.00     0.037 A 
ATOM     11  C   UNL d   1      28.529 -12.322   8.304  0.00  0.00     0.065 A 
ATOM     12  C   UNL d   1      29.021 -13.613   8.159  0.00  0.00     0.037 A 
ATOM     13  C   UNL d   1      29.136 -14.187   6.884  0.00  0.00     0.016 A 
BRANCH  11  14
ATOM     14  O   UNL d   1      28.433 -11.826   9.571  0.00  0.00    -0.361 OA
ATOM     15  H   UNL d   1      28.614 -10.872   9.570  0.00  0.00     0.217 HD
ENDBRANCH  11  14
ENDBRANCH   6   8
ENDBRANCH   1   5
BRANCH   2  16
ATOM     16  C   UNL d   1      27.456 -15.134   0.001  0.00  0.00     0.145 C 
BRANCH  16  17
ATOM     17  C   UNL d   1      26.810 -16.493  -0.009  0.00  0.00    -0.021 A 
ATOM     18  C   UNL d   1      27.427 -17.702   0.258  0.00  0.00     0.097 A 
ATOM     19  N   UNL d   1      26.479 -18.690   0.232  0.00  0.00    -0.365 N 
ATOM     20  C   UNL d   1      25.262 -18.171  -0.140  0.00  0.00     0.042 A 
ATOM     21  H   UNL d   1      26.651 -19.663   0.444  0.00  0.00     0.165 HD
ATOM     22  C   UNL d   1      24.029 -18.804  -0.352  0.00  0.00     0.030 A 
ATOM     23  C   UNL d   1      25.437 -16.793  -0.284  0.00  0.00    -0.001 A 
ATOM     24  C   UNL d   1      22.953 -18.006  -0.753  0.00  0.00     0.002 A 
ATOM     25  C   UNL d   1      23.094 -16.628  -0.895  0.00  0.00     0.001 A 
ATOM     26  C   UNL d   1      24.322 -16.010  -0.646  0.00  0.00     0.014 A 
ENDBRANCH  16  17
ENDBRANCH   2  16
TORSDOF 5
ENDMDL
MODEL 8
REMARK VINA RESULT:    -7.522      3.454      9.506
REMARK INTER + INTRA:          -9.669
REMARK INTER:                  -9.013
REMARK INTRA:                  -0.656
REMARK CONF_INDEPENDENT:        1.492
REMARK UNBOUND:                -0.656
REMARK  5 active torsions:
REMARK  status: ('A' for Active; 'I' for Inactive)
REMARK    1  A    between atoms: C_2  and  C_17 
REMARK    2  A    between atoms: N_3  and  N_4 
REMARK       I    between atoms: N_4  and  C_5 
REMARK    3  A    between atoms: C_5  and  C_7 
REMARK    4  A    between atoms: C_7  and  C_8 
REMARK    5  A    between atoms: C_20  and  O_21 
ROOT
ATOM      1  N   UNL d   1      26.866 -14.974  -3.286  0.00  0.00    -0.247 N 
ATOM      2  C   UNL d   1      27.121 -14.950  -4.658  0.00  0.00     0.241 C 
ATOM      3  O   UNL d   1      26.434 -15.566  -5.478  0.00  0.00    -0.271 OA
ATOM      4  H   UNL d   1      27.451 -14.444  -2.655  0.00  0.00     0.192 HD
ENDROOT
BRANCH   1   5
ATOM      5  N   UNL d   1      25.809 -15.720  -2.811  0.00  0.00    -0.176 NA
ATOM      6  C   UNL d   1      25.685 -16.003  -1.544  0.00  0.00     0.061 C 
ATOM      7  C   UNL d   1      26.661 -15.601  -0.461  0.00  0.00     0.073 C 
BRANCH   6   8
ATOM      8  C   UNL d   1      24.516 -16.849  -1.096  0.00  0.00    -0.010 A 
ATOM      9  C   UNL d   1      23.216 -16.325  -0.989  0.00  0.00     0.016 A 
ATOM     10  C   UNL d   1      22.155 -17.124  -0.522  0.00  0.00     0.037 A 
ATOM     11  C   UNL d   1      22.400 -18.443  -0.153  0.00  0.00     0.065 A 
ATOM     12  C   UNL d   1      23.681 -18.972  -0.251  0.00  0.00     0.037 A 
ATOM     13  C   UNL d   1      24.737 -18.183  -0.732  0.00  0.00     0.016 A 
BRANCH  11  14
ATOM     14  O   UNL d   1      21.416 -19.265   0.313  0.00  0.00    -0.361 OA
ATOM     15  H   UNL d   1      21.808 -20.042   0.744  0.00  0.00     0.217 HD
ENDBRANCH  11  14
ENDBRANCH   6   8
ENDBRANCH   1   5
BRANCH   2  16
ATOM     16  C   UNL d   1      28.335 -14.097  -5.057  0.00  0.00     0.145 C 
BRANCH  16  17
ATOM     17  C   UNL d   1      29.300 -14.846  -5.937  0.00  0.00    -0.021 A 
ATOM     18  C   UNL d   1      29.817 -14.416  -7.145  0.00  0.00     0.097 A 
ATOM     19  N   UNL d   1      30.723 -15.344  -7.586  0.00  0.00    -0.365 N 
ATOM     20  C   UNL d   1      30.744 -16.426  -6.738  0.00  0.00     0.042 A 
ATOM     21  H   UNL d   1      31.286 -15.253  -8.420  0.00  0.00     0.165 HD
ATOM     22  C   UNL d   1      31.465 -17.627  -6.813  0.00  0.00     0.030 A 
ATOM     23  C   UNL d   1      29.871 -16.135  -5.688  0.00  0.00    -0.001 A 
ATOM     24  C   UNL d   1      31.262 -18.567  -5.798  0.00  0.00     0.002 A 
ATOM     25  C   UNL d   1      30.406 -18.301  -4.733  0.00  0.00     0.001 A 
ATOM     26  C   UNL d   1      29.722 -17.085  -4.658  0.00  0.00     0.014 A 
ENDBRANCH  16  17
ENDBRANCH   2  16
TORSDOF 5
ENDMDL
MODEL 9
REMARK VINA RESULT:    -7.424      3.210      9.833
REMARK INTER + INTRA:          -9.509
REMARK INTER:                  -8.916
REMARK INTRA:                  -0.593
REMARK CONF_INDEPENDENT:        1.492
REMARK UNBOUND:                -0.593
REMARK  5 active torsions:
REMARK  status: ('A' for Active; 'I' for Inactive)
REMARK    1  A    between atoms: C_2  and  C_17 
REMARK    2  A    between atoms: N_3  and  N_4 
REMARK       I    between atoms: N_4  and  C_5 
REMARK    3  A    between atoms: C_5  and  C_7 
REMARK    4  A    between atoms: C_7  and  C_8 
REMARK    5  A    between atoms: C_20  and  O_21 
ROOT
ATOM      1  N   UNL d   1      27.299 -15.213  -3.048  0.00  0.00    -0.247 N 
ATOM      2  C   UNL d   1      27.524 -15.136  -4.424  0.00  0.00     0.241 C 
ATOM      3  O   UNL d   1      26.728 -15.576  -5.258  0.00  0.00    -0.271 OA
ATOM      4  H   UNL d   1      27.977 -14.829  -2.404  0.00  0.00     0.192 HD
ENDROOT
BRANCH   1   5
ATOM      5  N   UNL d   1      26.146 -15.810  -2.587  0.00  0.00    -0.176 NA
ATOM      6  C   UNL d   1      26.082 -16.356  -1.405  0.00  0.00     0.061 C 
ATOM      7  C   UNL d   1      27.228 -16.440  -0.421  0.00  0.00     0.073 C 
BRANCH   6   8
ATOM      8  C   UNL d   1      24.794 -17.017  -0.973  0.00  0.00    -0.010 A 
ATOM      9  C   UNL d   1      23.568 -16.329  -0.972  0.00  0.00     0.016 A 
ATOM     10  C   UNL d   1      22.393 -16.956  -0.518  0.00  0.00     0.037 A 
ATOM     11  C   UNL d   1      22.447 -18.268  -0.059  0.00  0.00     0.065 A 
ATOM     12  C   UNL d   1      23.654 -18.958  -0.052  0.00  0.00     0.037 A 
ATOM     13  C   UNL d   1      24.824 -18.341  -0.519  0.00  0.00     0.016 A 
BRANCH  11  14
ATOM     14  O   UNL d   1      21.345 -18.927   0.400  0.00  0.00    -0.361 OA
ATOM     15  H   UNL d   1      21.599 -19.796   0.752  0.00  0.00     0.217 HD
ENDBRANCH  11  14
ENDBRANCH   6   8
ENDBRANCH   1   5
BRANCH   2  16
ATOM     16  C   UNL d   1      28.851 -14.465  -4.807  0.00  0.00     0.145 C 
BRANCH  16  17
ATOM     17  C   UNL d   1      28.781 -13.772  -6.141  0.00  0.00    -0.021 A 
ATOM     18  C   UNL d   1      29.529 -14.070  -7.266  0.00  0.00     0.097 A 
ATOM     19  N   UNL d   1      29.106 -13.271  -8.295  0.00  0.00    -0.365 N 
ATOM     20  C   UNL d   1      28.155 -12.384  -7.847  0.00  0.00     0.042 A 
ATOM     21  H   UNL d   1      29.450 -13.318  -9.244  0.00  0.00     0.165 HD
ATOM     22  C   UNL d   1      27.485 -11.353  -8.520  0.00  0.00     0.030 A 
ATOM     23  C   UNL d   1      27.923 -12.684  -6.503  0.00  0.00    -0.001 A 
ATOM     24  C   UNL d   1      26.572 -10.589  -7.787  0.00  0.00     0.002 A 
ATOM     25  C   UNL d   1      26.310 -10.871  -6.449  0.00  0.00     0.001 A 
ATOM     26  C   UNL d   1      26.964 -11.925  -5.803  0.00  0.00     0.014 A 
ENDBRANCH  16  17
ENDBRANCH   2  16
TORSDOF 5
ENDMDL
