MODEL 1
REMARK VINA RESULT:    -8.247      0.000      0.000
REMARK INTER + INTRA:         -12.276
REMARK INTER:                 -10.932
REMARK INTRA:                  -1.344
REMARK CONF_INDEPENDENT:        2.685
REMARK UNBOUND:                -1.344
REMARK  9 active torsions:
REMARK  status: ('A' for Active; 'I' for Inactive)
REMARK    1  A    between atoms: C_2  and  C_11 
REMARK    2  A    between atoms: C_2  and  S_3 
REMARK    3  A    between atoms: S_3  and  C_4 
REMARK    4  A    between atoms: C_4  and  C_5 
REMARK       I    between atoms: C_11  and  N_13 
REMARK    5  A    between atoms: N_13  and  N_14 
REMARK    6  A    between atoms: C_15  and  C_16 
REMARK    7  A    between atoms: C_17  and  O_18 
REMARK    8  A    between atoms: C_20  and  O_21 
REMARK    9  A    between atoms: C_23  and  O_24 
ROOT
ATOM      1  C   UNL d   1      24.945 -16.590  -1.544  0.00  0.00     0.251 C 
ATOM      2  O   UNL d   1      26.049 -17.076  -1.822  0.00  0.00    -0.270 OA
ATOM      3  N   UNL d   1      24.335 -15.598  -2.325  0.00  0.00    -0.246 N 
ATOM      4  H   UNL d   1      23.397 -15.261  -2.140  0.00  0.00     0.192 HD
ENDROOT
BRANCH   3   5
ATOM      5  N   UNL d   1      25.008 -15.141  -3.432  0.00  0.00    -0.184 NA
ATOM      6  C   UNL d   1      25.592 -13.988  -3.386  0.00  0.00     0.155 C 
BRANCH   6   7
ATOM      7  C   UNL d   1      26.287 -13.403  -4.568  0.00  0.00     0.049 A 
ATOM      8  C   UNL d   1      27.084 -14.207  -5.399  0.00  0.00     0.082 A 
ATOM      9  C   UNL d   1      27.896 -13.638  -6.388  0.00  0.00     0.074 A 
ATOM     10  C   UNL d   1      27.850 -12.265  -6.603  0.00  0.00     0.071 A 
ATOM     11  C   UNL d   1      27.036 -11.452  -5.821  0.00  0.00     0.074 A 
ATOM     12  C   UNL d   1      26.265 -12.020  -4.801  0.00  0.00     0.082 A 
BRANCH   8  13
ATOM     13  O   UNL d   1      27.109 -15.575  -5.322  0.00  0.00    -0.360 OA
ATOM     14  H   UNL d   1      26.594 -15.860  -4.547  0.00  0.00     0.217 HD
ENDBRANCH   8  13
BRANCH  10  15
ATOM     15  O   UNL d   1      28.588 -11.663  -7.581  0.00  0.00    -0.361 OA
ATOM     16  H   UNL d   1      29.533 -11.788  -7.392  0.00  0.00     0.217 HD
ENDBRANCH  10  15
BRANCH  12  17
ATOM     17  O   UNL d   1      25.537 -11.197  -3.990  0.00  0.00    -0.360 OA
ATOM     18  H   UNL d   1      24.633 -11.535  -3.891  0.00  0.00     0.217 HD
ENDBRANCH  12  17
ENDBRANCH   6   7
ENDBRANCH   3   5
BRANCH   1  19
ATOM     19  C   UNL d   1      24.122 -17.059  -0.327  0.00  0.00     0.137 C 
ATOM     20  C   UNL d   1      24.302 -18.561  -0.089  0.00  0.00     0.031 C 
BRANCH  19  21
ATOM     21  S   UNL d   1      22.307 -16.906  -0.549  0.00  0.00    -0.150 SA
BRANCH  21  22
ATOM     22  C   UNL d   1      21.791 -18.569  -1.106  0.00  0.00     0.113 C 
BRANCH  22  23
ATOM     23  C   UNL d   1      20.670 -19.163  -0.255  0.00  0.00    -0.049 A 
ATOM     24  C   UNL d   1      20.782 -19.325   1.138  0.00  0.00     0.008 A 
ATOM     25  C   UNL d   1      19.850 -20.064   1.865  0.00  0.00     0.001 A 
ATOM     26  C   UNL d   1      18.742 -20.602   1.224  0.00  0.00     0.000 A 
ATOM     27  C   UNL d   1      18.575 -20.408  -0.145  0.00  0.00     0.001 A 
ATOM     28  C   UNL d   1      19.534 -19.700  -0.883  0.00  0.00     0.008 A 
ENDBRANCH  22  23
ENDBRANCH  21  22
ENDBRANCH  19  21
ENDBRANCH   1  19
TORSDOF 9
ENDMDL
MODEL 2
REMARK VINA RESULT:    -7.990      3.479      9.775
REMARK INTER + INTRA:         -11.704
REMARK INTER:                 -10.675
REMARK INTRA:                  -1.029
REMARK CONF_INDEPENDENT:        2.685
REMARK UNBOUND:                -1.029
REMARK  9 active torsions:
REMARK  status: ('A' for Active; 'I' for Inactive)
REMARK    1  A    between atoms: C_2  and  C_11 
REMARK    2  A    between atoms: C_2  and  S_3 
REMARK    3  A    between atoms: S_3  and  C_4 
REMARK    4  A    between atoms: C_4  and  C_5 
REMARK       I    between atoms: C_11  and  N_13 
REMARK    5  A    between atoms: N_13  and  N_14 
REMARK    6  A    between atoms: C_15  and  C_16 
REMARK    7  A    between atoms: C_17  and  O_18 
REMARK    8  A    between atoms: C_20  and  O_21 
REMARK    9  A    between atoms: C_23  and  O_24 
ROOT
ATOM      1  C   UNL d   1      23.823 -17.130  -0.931  0.00  0.00     0.251 C 
ATOM      2  O   UNL d   1      22.908 -16.389  -0.548  0.00  0.00    -0.270 OA
ATOM      3  N   UNL d   1      23.632 -18.493  -1.197  0.00  0.00    -0.246 N 
ATOM      4  H   UNL d   1      24.363 -19.078  -1.588  0.00  0.00     0.192 HD
ENDROOT
BRANCH   3   5
ATOM      5  N   UNL d   1      22.378 -19.021  -1.005  0.00  0.00    -0.184 NA
ATOM      6  C   UNL d   1      21.802 -18.879   0.145  0.00  0.00     0.155 C 
BRANCH   6   7
ATOM      7  C   UNL d   1      20.470 -19.478   0.444  0.00  0.00     0.049 A 
ATOM      8  C   UNL d   1      20.089 -19.747   1.768  0.00  0.00     0.082 A 
ATOM      9  C   UNL d   1      18.933 -20.487   2.049  0.00  0.00     0.074 A 
ATOM     10  C   UNL d   1      18.110 -20.890   1.003  0.00  0.00     0.071 A 
ATOM     11  C   UNL d   1      18.444 -20.600  -0.315  0.00  0.00     0.074 A 
ATOM     12  C   UNL d   1      19.626 -19.904  -0.593  0.00  0.00     0.082 A 
BRANCH   8  13
ATOM     13  O   UNL d   1      20.787 -19.297   2.858  0.00  0.00    -0.360 OA
ATOM     14  H   UNL d   1      21.676 -19.693   2.853  0.00  0.00     0.217 HD
ENDBRANCH   8  13
BRANCH  10  15
ATOM     15  O   UNL d   1      16.951 -21.577   1.223  0.00  0.00    -0.361 OA
ATOM     16  H   UNL d   1      16.896 -22.322   0.601  0.00  0.00     0.217 HD
ENDBRANCH  10  15
BRANCH  12  17
ATOM     17  O   UNL d   1      19.980 -19.701  -1.896  0.00  0.00    -0.360 OA
ATOM     18  H   UNL d   1      20.439 -18.851  -1.992  0.00  0.00     0.217 HD
ENDBRANCH  12  17
ENDBRANCH   6   7
ENDBRANCH   3   5
BRANCH   1  19
ATOM     19  C   UNL d   1      25.252 -16.611  -1.183  0.00  0.00     0.137 C 
ATOM     20  C   UNL d   1      26.294 -17.673  -0.818  0.00  0.00     0.031 C 
BRANCH  19  21
ATOM     21  S   UNL d   1      25.734 -15.199  -0.114  0.00  0.00    -0.150 SA
BRANCH  21  22
ATOM     22  C   UNL d   1      27.097 -14.398  -1.031  0.00  0.00     0.113 C 
BRANCH  22  23
ATOM     23  C   UNL d   1      26.677 -13.902  -2.413  0.00  0.00    -0.049 A 
ATOM     24  C   UNL d   1      26.508 -12.537  -2.708  0.00  0.00     0.008 A 
ATOM     25  C   UNL d   1      25.916 -12.115  -3.898  0.00  0.00     0.001 A 
ATOM     26  C   UNL d   1      25.543 -13.049  -4.855  0.00  0.00     0.000 A 
ATOM     27  C   UNL d   1      25.753 -14.405  -4.614  0.00  0.00     0.001 A 
ATOM     28  C   UNL d   1      26.309 -14.832  -3.400  0.00  0.00     0.008 A 
ENDBRANCH  22  23
ENDBRANCH  21  22
ENDBRANCH  19  21
ENDBRANCH   1  19
TORSDOF 9
ENDMDL
MODEL 3
REMARK VINA RESULT:    -7.955      0.528      1.788
REMARK INTER + INTRA:         -11.856
REMARK INTER:                 -10.639
REMARK INTRA:                  -1.216
REMARK CONF_INDEPENDENT:        2.685
REMARK UNBOUND:                -1.216
REMARK  9 active torsions:
REMARK  status: ('A' for Active; 'I' for Inactive)
REMARK    1  A    between atoms: C_2  and  C_11 
REMARK    2  A    between atoms: C_2  and  S_3 
REMARK    3  A    between atoms: S_3  and  C_4 
REMARK    4  A    between atoms: C_4  and  C_5 
REMARK       I    between atoms: C_11  and  N_13 
REMARK    5  A    between atoms: N_13  and  N_14 
REMARK    6  A    between atoms: C_15  and  C_16 
REMARK    7  A    between atoms: C_17  and  O_18 
REMARK    8  A    between atoms: C_20  and  O_21 
REMARK    9  A    between atoms: C_23  and  O_24 
ROOT
ATOM      1  C   UNL d   1      24.757 -16.861  -1.129  0.00  0.00     0.251 C 
ATOM      2  O   UNL d   1      25.847 -17.427  -1.282  0.00  0.00    -0.270 OA
ATOM      3  N   UNL d   1      24.428 -15.663  -1.780  0.00  0.00    -0.246 N 
ATOM      4  H   UNL d   1      23.506 -15.245  -1.715  0.00  0.00     0.192 HD
ENDROOT
BRANCH   3   5
ATOM      5  N   UNL d   1      25.369 -15.094  -2.603  0.00  0.00    -0.184 NA
ATOM      6  C   UNL d   1      25.044 -14.069  -3.322  0.00  0.00     0.155 C 
BRANCH   6   7
ATOM      7  C   UNL d   1      25.995 -13.440  -4.283  0.00  0.00     0.049 A 
ATOM      8  C   UNL d   1      26.023 -12.046  -4.451  0.00  0.00     0.082 A 
ATOM      9  C   UNL d   1      26.764 -11.460  -5.484  0.00  0.00     0.074 A 
ATOM     10  C   UNL d   1      27.547 -12.266  -6.305  0.00  0.00     0.071 A 
ATOM     11  C   UNL d   1      27.568 -13.645  -6.132  0.00  0.00     0.074 A 
ATOM     12  C   UNL d   1      26.787 -14.230  -5.129  0.00  0.00     0.082 A 
BRANCH   8  13
ATOM     13  O   UNL d   1      25.365 -11.176  -3.622  0.00  0.00    -0.360 OA
ATOM     14  H   UNL d   1      24.405 -11.312  -3.714  0.00  0.00     0.217 HD
ENDBRANCH   8  13
BRANCH  10  15
ATOM     15  O   UNL d   1      28.321 -11.743  -7.300  0.00  0.00    -0.361 OA
ATOM     16  H   UNL d   1      28.262 -12.312  -8.086  0.00  0.00     0.217 HD
ENDBRANCH  10  15
BRANCH  12  17
ATOM     17  O   UNL d   1      26.755 -15.591  -5.028  0.00  0.00    -0.360 OA
ATOM     18  H   UNL d   1      26.026 -15.870  -4.452  0.00  0.00     0.217 HD
ENDBRANCH  12  17
ENDBRANCH   6   7
ENDBRANCH   3   5
BRANCH   1  19
ATOM     19  C   UNL d   1      23.645 -17.442  -0.233  0.00  0.00     0.137 C 
ATOM     20  C   UNL d   1      23.753 -18.968  -0.145  0.00  0.00     0.031 C 
BRANCH  19  21
ATOM     21  S   UNL d   1      21.950 -17.202  -0.895  0.00  0.00    -0.150 SA
BRANCH  21  22
ATOM     22  C   UNL d   1      21.353 -18.902  -1.203  0.00  0.00     0.113 C 
BRANCH  22  23
ATOM     23  C   UNL d   1      20.380 -19.396  -0.133  0.00  0.00    -0.049 A 
ATOM     24  C   UNL d   1      20.667 -19.325   1.242  0.00  0.00     0.008 A 
ATOM     25  C   UNL d   1      19.875 -19.974   2.188  0.00  0.00     0.001 A 
ATOM     26  C   UNL d   1      18.734 -20.655   1.785  0.00  0.00     0.000 A 
ATOM     27  C   UNL d   1      18.393 -20.692   0.435  0.00  0.00     0.001 A 
ATOM     28  C   UNL d   1      19.212 -20.075  -0.520  0.00  0.00     0.008 A 
ENDBRANCH  22  23
ENDBRANCH  21  22
ENDBRANCH  19  21
ENDBRANCH   1  19
TORSDOF 9
ENDMDL
MODEL 4
REMARK VINA RESULT:    -7.331      3.535      9.862
REMARK INTER + INTRA:         -11.153
REMARK INTER:                 -10.016
REMARK INTRA:                  -1.137
REMARK CONF_INDEPENDENT:        2.685
REMARK UNBOUND:                -1.137
REMARK  9 active torsions:
REMARK  status: ('A' for Active; 'I' for Inactive)
REMARK    1  A    between atoms: C_2  and  C_11 
REMARK    2  A    between atoms: C_2  and  S_3 
REMARK    3  A    between atoms: S_3  and  C_4 
REMARK    4  A    between atoms: C_4  and  C_5 
REMARK       I    between atoms: C_11  and  N_13 
REMARK    5  A    between atoms: N_13  and  N_14 
REMARK    6  A    between atoms: C_15  and  C_16 
REMARK    7  A    between atoms: C_17  and  O_18 
REMARK    8  A    between atoms: C_20  and  O_21 
REMARK    9  A    between atoms: C_23  and  O_24 
ROOT
ATOM      1  C   UNL d   1      24.641 -17.726  -0.586  0.00  0.00     0.251 C 
ATOM      2  O   UNL d   1      24.666 -18.499   0.380  0.00  0.00    -0.270 OA
ATOM      3  N   UNL d   1      23.550 -17.645  -1.463  0.00  0.00    -0.246 N 
ATOM      4  H   UNL d   1      23.499 -16.955  -2.204  0.00  0.00     0.192 HD
ENDROOT
BRANCH   3   5
ATOM      5  N   UNL d   1      22.479 -18.477  -1.242  0.00  0.00    -0.184 NA
ATOM      6  C   UNL d   1      21.820 -18.379  -0.134  0.00  0.00     0.155 C 
BRANCH   6   7
ATOM      7  C   UNL d   1      20.687 -19.288   0.199  0.00  0.00     0.049 A 
ATOM      8  C   UNL d   1      19.892 -19.842  -0.818  0.00  0.00     0.082 A 
ATOM      9  C   UNL d   1      18.712 -20.532  -0.515  0.00  0.00     0.074 A 
ATOM     10  C   UNL d   1      18.366 -20.742   0.815  0.00  0.00     0.071 A 
ATOM     11  C   UNL d   1      19.159 -20.240   1.841  0.00  0.00     0.074 A 
ATOM     12  C   UNL d   1      20.310 -19.508   1.533  0.00  0.00     0.082 A 
BRANCH   8  13
ATOM     13  O   UNL d   1      20.216 -19.770  -2.148  0.00  0.00    -0.360 OA
ATOM     14  H   UNL d   1      20.535 -18.873  -2.351  0.00  0.00     0.217 HD
ENDBRANCH   8  13
BRANCH  10  15
ATOM     15  O   UNL d   1      17.250 -21.444   1.167  0.00  0.00    -0.361 OA
ATOM     16  H   UNL d   1      16.690 -21.573   0.383  0.00  0.00     0.217 HD
ENDBRANCH  10  15
BRANCH  12  17
ATOM     17  O   UNL d   1      21.031 -18.951   2.551  0.00  0.00    -0.360 OA
ATOM     18  H   UNL d   1      20.681 -18.073   2.771  0.00  0.00     0.217 HD
ENDBRANCH  12  17
ENDBRANCH   6   7
ENDBRANCH   3   5
BRANCH   1  19
ATOM     19  C   UNL d   1      25.797 -16.753  -0.892  0.00  0.00     0.137 C 
ATOM     20  C   UNL d   1      25.607 -15.425  -0.152  0.00  0.00     0.031 C 
BRANCH  19  21
ATOM     21  S   UNL d   1      25.881 -16.221  -2.647  0.00  0.00    -0.150 SA
BRANCH  21  22
ATOM     22  C   UNL d   1      25.450 -14.446  -2.589  0.00  0.00     0.113 C 
BRANCH  22  23
ATOM     23  C   UNL d   1      25.944 -13.671  -3.810  0.00  0.00    -0.049 A 
ATOM     24  C   UNL d   1      26.778 -14.248  -4.786  0.00  0.00     0.008 A 
ATOM     25  C   UNL d   1      27.394 -13.475  -5.768  0.00  0.00     0.001 A 
ATOM     26  C   UNL d   1      27.137 -12.113  -5.841  0.00  0.00     0.000 A 
ATOM     27  C   UNL d   1      26.269 -11.525  -4.923  0.00  0.00     0.001 A 
ATOM     28  C   UNL d   1      25.682 -12.295  -3.910  0.00  0.00     0.008 A 
ENDBRANCH  22  23
ENDBRANCH  21  22
ENDBRANCH  19  21
ENDBRANCH   1  19
TORSDOF 9
ENDMDL
MODEL 5
REMARK VINA RESULT:    -7.111      8.206     10.553
REMARK INTER + INTRA:         -10.831
REMARK INTER:                  -9.795
REMARK INTRA:                  -1.036
REMARK CONF_INDEPENDENT:        2.685
REMARK UNBOUND:                -1.036
REMARK  9 active torsions:
REMARK  status: ('A' for Active; 'I' for Inactive)
REMARK    1  A    between atoms: C_2  and  C_11 
REMARK    2  A    between atoms: C_2  and  S_3 
REMARK    3  A    between atoms: S_3  and  C_4 
REMARK    4  A    between atoms: C_4  and  C_5 
REMARK       I    between atoms: C_11  and  N_13 
REMARK    5  A    between atoms: N_13  and  N_14 
REMARK    6  A    between atoms: C_15  and  C_16 
REMARK    7  A    between atoms: C_17  and  O_18 
REMARK    8  A    between atoms: C_20  and  O_21 
REMARK    9  A    between atoms: C_23  and  O_24 
ROOT
ATOM      1  C   UNL d   1      28.195 -14.111   2.977  0.00  0.00     0.251 C 
ATOM      2  O   UNL d   1      27.375 -13.187   3.057  0.00  0.00    -0.270 OA
ATOM      3  N   UNL d   1      28.925 -14.573   4.081  0.00  0.00    -0.246 N 
ATOM      4  H   UNL d   1      29.535 -15.382   4.029  0.00  0.00     0.192 HD
ENDROOT
BRANCH   3   5
ATOM      5  N   UNL d   1      28.726 -13.957   5.293  0.00  0.00    -0.184 NA
ATOM      6  C   UNL d   1      29.582 -14.143   6.245  0.00  0.00     0.155 C 
BRANCH   6   7
ATOM      7  C   UNL d   1      29.398 -13.556   7.603  0.00  0.00     0.049 A 
ATOM      8  C   UNL d   1      30.064 -14.099   8.713  0.00  0.00     0.082 A 
ATOM      9  C   UNL d   1      29.750 -13.688  10.014  0.00  0.00     0.074 A 
ATOM     10  C   UNL d   1      28.822 -12.669  10.203  0.00  0.00     0.071 A 
ATOM     11  C   UNL d   1      28.180 -12.085   9.117  0.00  0.00     0.074 A 
ATOM     12  C   UNL d   1      28.461 -12.535   7.822  0.00  0.00     0.082 A 
BRANCH   8  13
ATOM     13  O   UNL d   1      31.063 -15.031   8.608  0.00  0.00    -0.360 OA
ATOM     14  H   UNL d   1      30.713 -15.904   8.857  0.00  0.00     0.217 HD
ENDBRANCH   8  13
BRANCH  10  15
ATOM     15  O   UNL d   1      28.510 -12.201  11.446  0.00  0.00    -0.361 OA
ATOM     16  H   UNL d   1      28.744 -11.259  11.504  0.00  0.00     0.217 HD
ENDBRANCH  10  15
BRANCH  12  17
ATOM     17  O   UNL d   1      27.759 -12.009   6.775  0.00  0.00    -0.360 OA
ATOM     18  H   UNL d   1      27.597 -12.689   6.102  0.00  0.00     0.217 HD
ENDBRANCH  12  17
ENDBRANCH   6   7
ENDBRANCH   3   5
BRANCH   1  19
ATOM     19  C   UNL d   1      28.464 -14.862   1.657  0.00  0.00     0.137 C 
ATOM     20  C   UNL d   1      29.652 -14.247   0.909  0.00  0.00     0.031 C 
BRANCH  19  21
ATOM     21  S   UNL d   1      27.107 -14.725   0.430  0.00  0.00    -0.150 SA
BRANCH  21  22
ATOM     22  C   UNL d   1      27.051 -16.377  -0.349  0.00  0.00     0.113 C 
BRANCH  22  23
ATOM     23  C   UNL d   1      25.629 -16.913  -0.512  0.00  0.00    -0.049 A 
ATOM     24  C   UNL d   1      24.601 -16.160  -1.108  0.00  0.00     0.008 A 
ATOM     25  C   UNL d   1      23.270 -16.570  -1.052  0.00  0.00     0.001 A 
ATOM     26  C   UNL d   1      22.943 -17.781  -0.457  0.00  0.00     0.000 A 
ATOM     27  C   UNL d   1      23.948 -18.575   0.089  0.00  0.00     0.001 A 
ATOM     28  C   UNL d   1      25.282 -18.143   0.070  0.00  0.00     0.008 A 
ENDBRANCH  22  23
ENDBRANCH  21  22
ENDBRANCH  19  21
ENDBRANCH   1  19
TORSDOF 9
ENDMDL
MODEL 6
REMARK VINA RESULT:    -7.041      2.136      2.675
REMARK INTER + INTRA:         -10.816
REMARK INTER:                  -9.725
REMARK INTRA:                  -1.091
REMARK CONF_INDEPENDENT:        2.685
REMARK UNBOUND:                -1.091
REMARK  9 active torsions:
REMARK  status: ('A' for Active; 'I' for Inactive)
REMARK    1  A    between atoms: C_2  and  C_11 
REMARK    2  A    between atoms: C_2  and  S_3 
REMARK    3  A    between atoms: S_3  and  C_4 
REMARK    4  A    between atoms: C_4  and  C_5 
REMARK       I    between atoms: C_11  and  N_13 
REMARK    5  A    between atoms: N_13  and  N_14 
REMARK    6  A    between atoms: C_15  and  C_16 
REMARK    7  A    between atoms: C_17  and  O_18 
REMARK    8  A    between atoms: C_20  and  O_21 
REMARK    9  A    between atoms: C_23  and  O_24 
ROOT
ATOM      1  C   UNL d   1      25.112 -16.055  -1.792  0.00  0.00     0.251 C 
ATOM      2  O   UNL d   1      24.422 -15.366  -2.554  0.00  0.00    -0.270 OA
ATOM      3  N   UNL d   1      26.482 -16.269  -1.996  0.00  0.00    -0.246 N 
ATOM      4  H   UNL d   1      27.061 -16.766  -1.327  0.00  0.00     0.192 HD
ENDROOT
BRANCH   3   5
ATOM      5  N   UNL d   1      27.069 -15.701  -3.101  0.00  0.00    -0.184 NA
ATOM      6  C   UNL d   1      28.318 -15.934  -3.345  0.00  0.00     0.155 C 
BRANCH   6   7
ATOM      7  C   UNL d   1      29.034 -15.303  -4.490  0.00  0.00     0.049 A 
ATOM      8  C   UNL d   1      28.372 -15.072  -5.707  0.00  0.00     0.082 A 
ATOM      9  C   UNL d   1      29.079 -14.666  -6.846  0.00  0.00     0.074 A 
ATOM     10  C   UNL d   1      30.443 -14.412  -6.748  0.00  0.00     0.071 A 
ATOM     11  C   UNL d   1      31.113 -14.593  -5.544  0.00  0.00     0.074 A 
ATOM     12  C   UNL d   1      30.411 -15.047  -4.421  0.00  0.00     0.082 A 
BRANCH   8  13
ATOM     13  O   UNL d   1      27.016 -15.198  -5.861  0.00  0.00    -0.360 OA
ATOM     14  H   UNL d   1      26.574 -14.915  -5.041  0.00  0.00     0.217 HD
ENDBRANCH   8  13
BRANCH  10  15
ATOM     15  O   UNL d   1      31.172 -13.975  -7.815  0.00  0.00    -0.361 OA
ATOM     16  H   UNL d   1      31.098 -14.618  -8.540  0.00  0.00     0.217 HD
ENDBRANCH  10  15
BRANCH  12  17
ATOM     17  O   UNL d   1      31.101 -15.299  -3.270  0.00  0.00    -0.360 OA
ATOM     18  H   UNL d   1      31.511 -16.178  -3.308  0.00  0.00     0.217 HD
ENDBRANCH  12  17
ENDBRANCH   6   7
ENDBRANCH   3   5
BRANCH   1  19
ATOM     19  C   UNL d   1      24.531 -16.714  -0.524  0.00  0.00     0.137 C 
ATOM     20  C   UNL d   1      24.890 -18.202  -0.468  0.00  0.00     0.031 C 
BRANCH  19  21
ATOM     21  S   UNL d   1      22.697 -16.744  -0.471  0.00  0.00    -0.150 SA
BRANCH  21  22
ATOM     22  C   UNL d   1      22.268 -18.423  -1.052  0.00  0.00     0.113 C 
BRANCH  22  23
ATOM     23  C   UNL d   1      21.038 -19.001  -0.353  0.00  0.00    -0.049 A 
ATOM     24  C   UNL d   1      21.021 -19.303   1.021  0.00  0.00     0.008 A 
ATOM     25  C   UNL d   1      19.978 -20.028   1.595  0.00  0.00     0.001 A 
ATOM     26  C   UNL d   1      18.891 -20.410   0.821  0.00  0.00     0.000 A 
ATOM     27  C   UNL d   1      18.855 -20.073  -0.530  0.00  0.00     0.001 A 
ATOM     28  C   UNL d   1      19.922 -19.380  -1.118  0.00  0.00     0.008 A 
ENDBRANCH  22  23
ENDBRANCH  21  22
ENDBRANCH  19  21
ENDBRANCH   1  19
TORSDOF 9
ENDMDL
MODEL 7
REMARK VINA RESULT:    -6.992      4.641      5.773
REMARK INTER + INTRA:         -10.699
REMARK INTER:                  -9.676
REMARK INTRA:                  -1.022
REMARK CONF_INDEPENDENT:        2.685
REMARK UNBOUND:                -1.022
REMARK  9 active torsions:
REMARK  status: ('A' for Active; 'I' for Inactive)
REMARK    1  A    between atoms: C_2  and  C_11 
REMARK    2  A    between atoms: C_2  and  S_3 
REMARK    3  A    between atoms: S_3  and  C_4 
REMARK    4  A    between atoms: C_4  and  C_5 
REMARK       I    between atoms: C_11  and  N_13 
REMARK    5  A    between atoms: N_13  and  N_14 
REMARK    6  A    between atoms: C_15  and  C_16 
REMARK    7  A    between atoms: C_17  and  O_18 
REMARK    8  A    between atoms: C_20  and  O_21 
REMARK    9  A    between atoms: C_23  and  O_24 
ROOT
ATOM      1  C   UNL d   1      25.135 -17.506  -0.181  0.00  0.00     0.251 C 
ATOM      2  O   UNL d   1      25.493 -18.291   0.706  0.00  0.00    -0.270 OA
ATOM      3  N   UNL d   1      25.868 -16.360  -0.519  0.00  0.00    -0.246 N 
ATOM      4  H   UNL d   1      25.615 -15.763  -1.299  0.00  0.00     0.192 HD
ENDROOT
BRANCH   3   5
ATOM      5  N   UNL d   1      27.020 -16.098   0.182  0.00  0.00    -0.184 NA
ATOM      6  C   UNL d   1      27.052 -15.092   0.994  0.00  0.00     0.155 C 
BRANCH   6   7
ATOM      7  C   UNL d   1      28.286 -14.713   1.740  0.00  0.00     0.049 A 
ATOM      8  C   UNL d   1      28.200 -14.111   3.006  0.00  0.00     0.082 A 
ATOM      9  C   UNL d   1      29.333 -13.573   3.627  0.00  0.00     0.074 A 
ATOM     10  C   UNL d   1      30.575 -13.708   3.015  0.00  0.00     0.071 A 
ATOM     11  C   UNL d   1      30.693 -14.336   1.781  0.00  0.00     0.074 A 
ATOM     12  C   UNL d   1      29.550 -14.828   1.142  0.00  0.00     0.082 A 
BRANCH   8  13
ATOM     13  O   UNL d   1      27.034 -14.031   3.722  0.00  0.00    -0.360 OA
ATOM     14  H   UNL d   1      26.642 -13.149   3.595  0.00  0.00     0.217 HD
ENDBRANCH   8  13
BRANCH  10  15
ATOM     15  O   UNL d   1      31.718 -13.239   3.595  0.00  0.00    -0.361 OA
ATOM     16  H   UNL d   1      31.968 -13.821   4.332  0.00  0.00     0.217 HD
ENDBRANCH  10  15
BRANCH  12  17
ATOM     17  O   UNL d   1      29.673 -15.367  -0.107  0.00  0.00    -0.360 OA
ATOM     18  H   UNL d   1      28.853 -15.241  -0.611  0.00  0.00     0.217 HD
ENDBRANCH  12  17
ENDBRANCH   6   7
ENDBRANCH   3   5
BRANCH   1  19
ATOM     19  C   UNL d   1      23.862 -17.737  -1.021  0.00  0.00     0.137 C 
ATOM     20  C   UNL d   1      22.863 -16.592  -0.827  0.00  0.00     0.031 C 
BRANCH  19  21
ATOM     21  S   UNL d   1      22.887 -19.206  -0.512  0.00  0.00    -0.150 SA
BRANCH  21  22
ATOM     22  C   UNL d   1      21.162 -18.745  -0.901  0.00  0.00     0.113 C 
BRANCH  22  23
ATOM     23  C   UNL d   1      20.144 -19.400   0.032  0.00  0.00    -0.049 A 
ATOM     24  C   UNL d   1      20.335 -19.480   1.424  0.00  0.00     0.008 A 
ATOM     25  C   UNL d   1      19.513 -20.267   2.229  0.00  0.00     0.001 A 
ATOM     26  C   UNL d   1      18.435 -20.940   1.669  0.00  0.00     0.000 A 
ATOM     27  C   UNL d   1      18.187 -20.831   0.303  0.00  0.00     0.001 A 
ATOM     28  C   UNL d   1      19.038 -20.073  -0.513  0.00  0.00     0.008 A 
ENDBRANCH  22  23
ENDBRANCH  21  22
ENDBRANCH  19  21
ENDBRANCH   1  19
TORSDOF 9
ENDMDL
MODEL 8
REMARK VINA RESULT:    -6.982      8.202     10.586
REMARK INTER + INTRA:         -10.744
REMARK INTER:                  -9.667
REMARK INTRA:                  -1.077
REMARK CONF_INDEPENDENT:        2.685
REMARK UNBOUND:                -1.077
REMARK  9 active torsions:
REMARK  status: ('A' for Active; 'I' for Inactive)
REMARK    1  A    between atoms: C_2  and  C_11 
REMARK    2  A    between atoms: C_2  and  S_3 
REMARK    3  A    between atoms: S_3  and  C_4 
REMARK    4  A    between atoms: C_4  and  C_5 
REMARK       I    between atoms: C_11  and  N_13 
REMARK    5  A    between atoms: N_13  and  N_14 
REMARK    6  A    between atoms: C_15  and  C_16 
REMARK    7  A    between atoms: C_17  and  O_18 
REMARK    8  A    between atoms: C_20  and  O_21 
REMARK    9  A    between atoms: C_23  and  O_24 
ROOT
ATOM      1  C   UNL d   1      28.253 -14.191   2.990  0.00  0.00     0.251 C 
ATOM      2  O   UNL d   1      27.515 -13.203   3.100  0.00  0.00    -0.270 OA
ATOM      3  N   UNL d   1      28.831 -14.832   4.096  0.00  0.00    -0.246 N 
ATOM      4  H   UNL d   1      29.368 -15.687   4.009  0.00  0.00     0.192 HD
ENDROOT
BRANCH   3   5
ATOM      5  N   UNL d   1      28.575 -14.322   5.346  0.00  0.00    -0.184 NA
ATOM      6  C   UNL d   1      29.556 -14.149   6.171  0.00  0.00     0.155 C 
BRANCH   6   7
ATOM      7  C   UNL d   1      29.344 -13.659   7.563  0.00  0.00     0.049 A 
ATOM      8  C   UNL d   1      28.391 -12.663   7.833  0.00  0.00     0.082 A 
ATOM      9  C   UNL d   1      28.320 -12.056   9.093  0.00  0.00     0.074 A 
ATOM     10  C   UNL d   1      29.153 -12.502  10.114  0.00  0.00     0.071 A 
ATOM     11  C   UNL d   1      30.078 -13.515   9.883  0.00  0.00     0.074 A 
ATOM     12  C   UNL d   1      30.178 -14.084   8.608  0.00  0.00     0.082 A 
BRANCH   8  13
ATOM     13  O   UNL d   1      27.465 -12.241   6.916  0.00  0.00    -0.360 OA
ATOM     14  H   UNL d   1      27.803 -12.413   6.019  0.00  0.00     0.217 HD
ENDBRANCH   8  13
BRANCH  10  15
ATOM     15  O   UNL d   1      29.098 -11.975  11.371  0.00  0.00    -0.361 OA
ATOM     16  H   UNL d   1      28.906 -11.024  11.313  0.00  0.00     0.217 HD
ENDBRANCH  10  15
BRANCH  12  17
ATOM     17  O   UNL d   1      31.147 -15.018   8.377  0.00  0.00    -0.360 OA
ATOM     18  H   UNL d   1      30.836 -15.899   8.640  0.00  0.00     0.217 HD
ENDBRANCH  12  17
ENDBRANCH   6   7
ENDBRANCH   3   5
BRANCH   1  19
ATOM     19  C   UNL d   1      28.577 -14.830   1.625  0.00  0.00     0.137 C 
ATOM     20  C   UNL d   1      29.497 -13.923   0.800  0.00  0.00     0.031 C 
BRANCH  19  21
ATOM     21  S   UNL d   1      27.120 -15.023   0.526  0.00  0.00    -0.150 SA
BRANCH  21  22
ATOM     22  C   UNL d   1      26.862 -16.831   0.453  0.00  0.00     0.113 C 
BRANCH  22  23
ATOM     23  C   UNL d   1      25.505 -17.217  -0.135  0.00  0.00    -0.049 A 
ATOM     24  C   UNL d   1      24.560 -16.261  -0.550  0.00  0.00     0.008 A 
ATOM     25  C   UNL d   1      23.253 -16.620  -0.876  0.00  0.00     0.001 A 
ATOM     26  C   UNL d   1      22.878 -17.956  -0.861  0.00  0.00     0.000 A 
ATOM     27  C   UNL d   1      23.810 -18.931  -0.510  0.00  0.00     0.001 A 
ATOM     28  C   UNL d   1      25.112 -18.566  -0.143  0.00  0.00     0.008 A 
ENDBRANCH  22  23
ENDBRANCH  21  22
ENDBRANCH  19  21
ENDBRANCH   1  19
TORSDOF 9
ENDMDL
MODEL 9
REMARK VINA RESULT:    -6.736      6.324      8.627
REMARK INTER + INTRA:         -10.872
REMARK INTER:                  -9.421
REMARK INTRA:                  -1.451
REMARK CONF_INDEPENDENT:        2.685
REMARK UNBOUND:                -1.451
REMARK  9 active torsions:
REMARK  status: ('A' for Active; 'I' for Inactive)
REMARK    1  A    between atoms: C_2  and  C_11 
REMARK    2  A    between atoms: C_2  and  S_3 
REMARK    3  A    between atoms: S_3  and  C_4 
REMARK    4  A    between atoms: C_4  and  C_5 
REMARK       I    between atoms: C_11  and  N_13 
REMARK    5  A    between atoms: N_13  and  N_14 
REMARK    6  A    between atoms: C_15  and  C_16 
REMARK    7  A    between atoms: C_17  and  O_18 
REMARK    8  A    between atoms: C_20  and  O_21 
REMARK    9  A    between atoms: C_23  and  O_24 
ROOT
ATOM      1  C   UNL d   1      27.199 -14.505   0.711  0.00  0.00     0.251 C 
ATOM      2  O   UNL d   1      26.326 -13.706   1.074  0.00  0.00    -0.270 OA
ATOM      3  N   UNL d   1      28.052 -15.156   1.613  0.00  0.00    -0.246 N 
ATOM      4  H   UNL d   1      28.711 -15.869   1.320  0.00  0.00     0.192 HD
ENDROOT
BRANCH   3   5
ATOM      5  N   UNL d   1      27.917 -14.873   2.951  0.00  0.00    -0.184 NA
ATOM      6  C   UNL d   1      28.410 -13.772   3.418  0.00  0.00     0.155 C 
BRANCH   6   7
ATOM      7  C   UNL d   1      28.355 -13.430   4.868  0.00  0.00     0.049 A 
ATOM      8  C   UNL d   1      27.960 -12.148   5.285  0.00  0.00     0.082 A 
ATOM      9  C   UNL d   1      28.093 -11.753   6.622  0.00  0.00     0.074 A 
ATOM     10  C   UNL d   1      28.547 -12.671   7.564  0.00  0.00     0.071 A 
ATOM     11  C   UNL d   1      28.905 -13.959   7.182  0.00  0.00     0.074 A 
ATOM     12  C   UNL d   1      28.817 -14.333   5.837  0.00  0.00     0.082 A 
BRANCH   8  13
ATOM     13  O   UNL d   1      27.406 -11.221   4.442  0.00  0.00    -0.360 OA
ATOM     14  H   UNL d   1      27.044 -10.487   4.969  0.00  0.00     0.217 HD
ENDBRANCH   8  13
BRANCH  10  15
ATOM     15  O   UNL d   1      28.656 -12.352   8.886  0.00  0.00    -0.361 OA
ATOM     16  H   UNL d   1      29.306 -12.941   9.306  0.00  0.00     0.217 HD
ENDBRANCH  10  15
BRANCH  12  17
ATOM     17  O   UNL d   1      29.252 -15.574   5.467  0.00  0.00    -0.360 OA
ATOM     18  H   UNL d   1      29.116 -15.710   4.516  0.00  0.00     0.217 HD
ENDBRANCH  12  17
ENDBRANCH   6   7
ENDBRANCH   3   5
BRANCH   1  19
ATOM     19  C   UNL d   1      27.404 -14.884  -0.769  0.00  0.00     0.137 C 
ATOM     20  C   UNL d   1      26.276 -14.323  -1.640  0.00  0.00     0.031 C 
BRANCH  19  21
ATOM     21  S   UNL d   1      27.303 -16.686  -1.100  0.00  0.00    -0.150 SA
BRANCH  21  22
ATOM     22  C   UNL d   1      26.215 -17.316   0.226  0.00  0.00     0.113 C 
BRANCH  22  23
ATOM     23  C   UNL d   1      24.768 -17.504  -0.227  0.00  0.00    -0.049 A 
ATOM     24  C   UNL d   1      23.919 -16.421  -0.520  0.00  0.00     0.008 A 
ATOM     25  C   UNL d   1      22.551 -16.597  -0.717  0.00  0.00     0.001 A 
ATOM     26  C   UNL d   1      22.007 -17.875  -0.694  0.00  0.00     0.000 A 
ATOM     27  C   UNL d   1      22.834 -18.972  -0.465  0.00  0.00     0.001 A 
ATOM     28  C   UNL d   1      24.203 -18.791  -0.225  0.00  0.00     0.008 A 
ENDBRANCH  22  23
ENDBRANCH  21  22
ENDBRANCH  19  21
ENDBRANCH   1  19
TORSDOF 9
ENDMDL
