MODEL 1
REMARK VINA RESULT:    -7.893      0.000      0.000
REMARK INTER + INTRA:         -11.294
REMARK INTER:                  -9.385
REMARK INTRA:                  -1.910
REMARK CONF_INDEPENDENT:        1.492
REMARK UNBOUND:                -1.910
REMARK  5 active torsions:
REMARK  status: ('A' for Active; 'I' for Inactive)
REMARK    1  A    between atoms: C_5  and  O_6 
REMARK    2  A    between atoms: O_6  and  C_7 
REMARK    3  A    between atoms: C_7  and  C_9 
REMARK       I    between atoms: C_9  and  N_11 
REMARK    4  A    between atoms: N_11  and  N_12 
REMARK       I    between atoms: N_12  and  C_13 
REMARK       I    between atoms: C_13  and  N_15 
REMARK    5  A    between atoms: N_15  and  C_16 
ROOT
ATOM      1  C   UNL d   1      25.139 -17.709  -0.586  0.00  0.00     0.265 C 
ATOM      2  O   UNL d   1      25.656 -18.328   0.347  0.00  0.00    -0.269 OA
ATOM      3  N   UNL d   1      23.769 -17.825  -0.837  0.00  0.00    -0.264 N 
ATOM      4  H   UNL d   1      23.274 -17.344  -1.588  0.00  0.00     0.190 HD
ENDROOT
BRANCH   1   5
ATOM      5  C   UNL d   1      25.956 -16.754  -1.544  0.00  0.00     0.218 C 
ATOM      6  C   UNL d   1      26.453 -15.559  -0.717  0.00  0.00     0.050 C 
BRANCH   5   7
ATOM      7  O   UNL d   1      25.136 -16.319  -2.656  0.00  0.00    -0.337 OA
BRANCH   7   8
ATOM      8  C   UNL d   1      25.540 -15.266  -3.443  0.00  0.00     0.070 A 
ATOM      9  C   UNL d   1      24.801 -14.078  -3.343  0.00  0.00     0.037 A 
ATOM     10  C   UNL d   1      25.191 -12.924  -4.047  0.00  0.00     0.009 A 
ATOM     11  C   UNL d   1      26.344 -12.933  -4.840  0.00  0.00    -0.062 A 
ATOM     12  C   UNL d   1      26.815 -11.720  -5.583  0.00  0.00     0.048 C 
ATOM     13  C   UNL d   1      27.068 -14.119  -4.950  0.00  0.00     0.009 A 
ATOM     14  C   UNL d   1      26.638 -15.278  -4.302  0.00  0.00     0.037 A 
ENDBRANCH   7   8
ENDBRANCH   5   7
ENDBRANCH   1   5
BRANCH   3  15
ATOM     15  N   UNL d   1      22.961 -18.717  -0.048  0.00  0.00    -0.249 N 
ATOM     16  C   UNL d   1      21.582 -18.668  -0.176  0.00  0.00     0.335 C 
ATOM     17  O   UNL d   1      21.041 -17.871  -0.947  0.00  0.00    -0.246 OA
ATOM     18  N   UNL d   1      20.880 -19.586   0.585  0.00  0.00    -0.338 N 
ATOM     19  H   UNL d   1      21.382 -20.166   1.244  0.00  0.00     0.164 HD
ATOM     20  H   UNL d   1      23.458 -19.325   0.596  0.00  0.00     0.192 HD
BRANCH  18  21
ATOM     21  C   UNL d   1      19.406 -19.684   0.550  0.00  0.00     0.078 C 
ATOM     22  C   UNL d   1      18.883 -19.699  -0.889  0.00  0.00     0.032 C 
ATOM     23  C   UNL d   1      18.866 -20.936   1.261  0.00  0.00     0.032 C 
ENDBRANCH  18  21
ENDBRANCH   3  15
TORSDOF 5
ENDMDL
MODEL 2
REMARK VINA RESULT:    -7.891      0.280      1.090
REMARK INTER + INTRA:         -11.239
REMARK INTER:                  -9.382
REMARK INTRA:                  -1.857
REMARK CONF_INDEPENDENT:        1.492
REMARK UNBOUND:                -1.857
REMARK  5 active torsions:
REMARK  status: ('A' for Active; 'I' for Inactive)
REMARK    1  A    between atoms: C_5  and  O_6 
REMARK    2  A    between atoms: O_6  and  C_7 
REMARK    3  A    between atoms: C_7  and  C_9 
REMARK       I    between atoms: C_9  and  N_11 
REMARK    4  A    between atoms: N_11  and  N_12 
REMARK       I    between atoms: N_12  and  C_13 
REMARK       I    between atoms: C_13  and  N_15 
REMARK    5  A    between atoms: N_15  and  C_16 
ROOT
ATOM      1  C   UNL d   1      25.200 -17.822  -0.508  0.00  0.00     0.265 C 
ATOM      2  O   UNL d   1      25.666 -18.370   0.494  0.00  0.00    -0.269 OA
ATOM      3  N   UNL d   1      23.849 -17.971  -0.832  0.00  0.00    -0.264 N 
ATOM      4  H   UNL d   1      23.396 -17.548  -1.642  0.00  0.00     0.190 HD
ENDROOT
BRANCH   1   5
ATOM      5  C   UNL d   1      26.066 -16.924  -1.479  0.00  0.00     0.218 C 
ATOM      6  C   UNL d   1      26.604 -15.731  -0.674  0.00  0.00     0.050 C 
BRANCH   5   7
ATOM      7  O   UNL d   1      25.275 -16.481  -2.609  0.00  0.00    -0.337 OA
BRANCH   7   8
ATOM      8  C   UNL d   1      25.531 -15.264  -3.198  0.00  0.00     0.070 A 
ATOM      9  C   UNL d   1      26.416 -15.259  -4.285  0.00  0.00     0.037 A 
ATOM     10  C   UNL d   1      26.671 -14.076  -5.002  0.00  0.00     0.009 A 
ATOM     11  C   UNL d   1      26.022 -12.884  -4.659  0.00  0.00    -0.062 A 
ATOM     12  C   UNL d   1      26.239 -11.608  -5.413  0.00  0.00     0.048 C 
ATOM     13  C   UNL d   1      25.154 -12.889  -3.569  0.00  0.00     0.009 A 
ATOM     14  C   UNL d   1      24.956 -14.052  -2.822  0.00  0.00     0.037 A 
ENDBRANCH   7   8
ENDBRANCH   5   7
ENDBRANCH   1   5
BRANCH   3  15
ATOM     15  N   UNL d   1      23.002 -18.818  -0.033  0.00  0.00    -0.249 N 
ATOM     16  C   UNL d   1      21.627 -18.723  -0.177  0.00  0.00     0.335 C 
ATOM     17  O   UNL d   1      21.122 -17.923  -0.969  0.00  0.00    -0.246 OA
ATOM     18  N   UNL d   1      20.886 -19.600   0.596  0.00  0.00    -0.338 N 
ATOM     19  H   UNL d   1      21.360 -20.183   1.272  0.00  0.00     0.164 HD
ATOM     20  H   UNL d   1      23.471 -19.430   0.628  0.00  0.00     0.192 HD
BRANCH  18  21
ATOM     21  C   UNL d   1      19.410 -19.646   0.547  0.00  0.00     0.078 C 
ATOM     22  C   UNL d   1      18.901 -19.705  -0.896  0.00  0.00     0.032 C 
ATOM     23  C   UNL d   1      18.817 -20.846   1.305  0.00  0.00     0.032 C 
ENDBRANCH  18  21
ENDBRANCH   3  15
TORSDOF 5
ENDMDL
MODEL 3
REMARK VINA RESULT:    -6.964      2.308      4.105
REMARK INTER + INTRA:          -9.619
REMARK INTER:                  -8.456
REMARK INTRA:                  -1.163
REMARK CONF_INDEPENDENT:        1.492
REMARK UNBOUND:                -1.163
REMARK  5 active torsions:
REMARK  status: ('A' for Active; 'I' for Inactive)
REMARK    1  A    between atoms: C_5  and  O_6 
REMARK    2  A    between atoms: O_6  and  C_7 
REMARK    3  A    between atoms: C_7  and  C_9 
REMARK       I    between atoms: C_9  and  N_11 
REMARK    4  A    between atoms: N_11  and  N_12 
REMARK       I    between atoms: N_12  and  C_13 
REMARK       I    between atoms: C_13  and  N_15 
REMARK    5  A    between atoms: N_15  and  C_16 
ROOT
ATOM      1  C   UNL d   1      24.757 -17.240  -0.214  0.00  0.00     0.265 C 
ATOM      2  O   UNL d   1      25.385 -17.928   0.595  0.00  0.00    -0.269 OA
ATOM      3  N   UNL d   1      23.432 -17.553  -0.528  0.00  0.00    -0.264 N 
ATOM      4  H   UNL d   1      22.852 -17.030  -1.185  0.00  0.00     0.190 HD
ENDROOT
BRANCH   1   5
ATOM      5  C   UNL d   1      25.378 -15.979  -0.936  0.00  0.00     0.218 C 
ATOM      6  C   UNL d   1      25.227 -16.174  -2.453  0.00  0.00     0.050 C 
BRANCH   5   7
ATOM      7  O   UNL d   1      26.767 -15.807  -0.564  0.00  0.00    -0.337 OA
BRANCH   7   8
ATOM      8  C   UNL d   1      27.107 -14.963   0.467  0.00  0.00     0.070 A 
ATOM      9  C   UNL d   1      26.555 -13.675   0.443  0.00  0.00     0.037 A 
ATOM     10  C   UNL d   1      26.779 -12.772   1.498  0.00  0.00     0.009 A 
ATOM     11  C   UNL d   1      27.539 -13.156   2.609  0.00  0.00    -0.062 A 
ATOM     12  C   UNL d   1      27.779 -12.240   3.771  0.00  0.00     0.048 C 
ATOM     13  C   UNL d   1      28.100 -14.431   2.624  0.00  0.00     0.009 A 
ATOM     14  C   UNL d   1      27.927 -15.298   1.544  0.00  0.00     0.037 A 
ENDBRANCH   7   8
ENDBRANCH   5   7
ENDBRANCH   1   5
BRANCH   3  15
ATOM     15  N   UNL d   1      22.808 -18.718   0.042  0.00  0.00    -0.249 N 
ATOM     16  C   UNL d   1      21.457 -18.934  -0.179  0.00  0.00     0.335 C 
ATOM     17  O   UNL d   1      20.785 -18.143  -0.846  0.00  0.00    -0.246 OA
ATOM     18  N   UNL d   1      20.943 -20.097   0.368  0.00  0.00    -0.338 N 
ATOM     19  H   UNL d   1      21.533 -20.667   0.958  0.00  0.00     0.164 HD
ATOM     20  H   UNL d   1      23.401 -19.313   0.612  0.00  0.00     0.192 HD
BRANCH  18  21
ATOM     21  C   UNL d   1      19.528 -20.491   0.207  0.00  0.00     0.078 C 
ATOM     22  C   UNL d   1      18.746 -20.305   1.510  0.00  0.00     0.032 C 
ATOM     23  C   UNL d   1      18.802 -19.703  -0.895  0.00  0.00     0.032 C 
ENDBRANCH  18  21
ENDBRANCH   3  15
TORSDOF 5
ENDMDL
MODEL 4
REMARK VINA RESULT:    -6.640      4.079      7.589
REMARK INTER + INTRA:         -10.005
REMARK INTER:                  -8.131
REMARK INTRA:                  -1.874
REMARK CONF_INDEPENDENT:        1.492
REMARK UNBOUND:                -1.874
REMARK  5 active torsions:
REMARK  status: ('A' for Active; 'I' for Inactive)
REMARK    1  A    between atoms: C_5  and  O_6 
REMARK    2  A    between atoms: O_6  and  C_7 
REMARK    3  A    between atoms: C_7  and  C_9 
REMARK       I    between atoms: C_9  and  N_11 
REMARK    4  A    between atoms: N_11  and  N_12 
REMARK       I    between atoms: N_12  and  C_13 
REMARK       I    between atoms: C_13  and  N_15 
REMARK    5  A    between atoms: N_15  and  C_16 
ROOT
ATOM      1  C   UNL d   1      27.528 -16.248  -0.521  0.00  0.00     0.265 C 
ATOM      2  O   UNL d   1      28.592 -16.867  -0.605  0.00  0.00    -0.269 OA
ATOM      3  N   UNL d   1      27.250 -15.471   0.607  0.00  0.00    -0.264 N 
ATOM      4  H   UNL d   1      26.394 -14.934   0.745  0.00  0.00     0.190 HD
ENDROOT
BRANCH   1   5
ATOM      5  C   UNL d   1      26.425 -16.275  -1.652  0.00  0.00     0.218 C 
ATOM      6  C   UNL d   1      26.874 -15.334  -2.780  0.00  0.00     0.050 C 
BRANCH   5   7
ATOM      7  O   UNL d   1      25.136 -15.880  -1.121  0.00  0.00    -0.337 OA
BRANCH   7   8
ATOM      8  C   UNL d   1      24.171 -16.827  -0.871  0.00  0.00     0.070 A 
ATOM      9  C   UNL d   1      22.836 -16.404  -0.934  0.00  0.00     0.037 A 
ATOM     10  C   UNL d   1      21.780 -17.321  -0.776  0.00  0.00     0.009 A 
ATOM     11  C   UNL d   1      22.045 -18.681  -0.580  0.00  0.00    -0.062 A 
ATOM     12  C   UNL d   1      20.954 -19.698  -0.437  0.00  0.00     0.048 C 
ATOM     13  C   UNL d   1      23.373 -19.096  -0.503  0.00  0.00     0.009 A 
ATOM     14  C   UNL d   1      24.414 -18.171  -0.595  0.00  0.00     0.037 A 
ENDBRANCH   7   8
ENDBRANCH   5   7
ENDBRANCH   1   5
BRANCH   3  15
ATOM     15  N   UNL d   1      28.176 -15.437   1.709  0.00  0.00    -0.249 N 
ATOM     16  C   UNL d   1      27.990 -14.502   2.715  0.00  0.00     0.335 C 
ATOM     17  O   UNL d   1      27.053 -13.700   2.676  0.00  0.00    -0.246 OA
ATOM     18  N   UNL d   1      28.898 -14.562   3.758  0.00  0.00    -0.338 N 
ATOM     19  H   UNL d   1      29.679 -15.200   3.695  0.00  0.00     0.164 HD
ATOM     20  H   UNL d   1      28.948 -16.095   1.670  0.00  0.00     0.192 HD
BRANCH  18  21
ATOM     21  C   UNL d   1      28.829 -13.654   4.922  0.00  0.00     0.078 C 
ATOM     22  C   UNL d   1      27.405 -13.564   5.476  0.00  0.00     0.032 C 
ATOM     23  C   UNL d   1      29.757 -14.075   6.073  0.00  0.00     0.032 C 
ENDBRANCH  18  21
ENDBRANCH   3  15
TORSDOF 5
ENDMDL
MODEL 5
REMARK VINA RESULT:    -6.505      3.799      8.600
REMARK INTER + INTRA:          -9.538
REMARK INTER:                  -7.997
REMARK INTRA:                  -1.542
REMARK CONF_INDEPENDENT:        1.492
REMARK UNBOUND:                -1.542
REMARK  5 active torsions:
REMARK  status: ('A' for Active; 'I' for Inactive)
REMARK    1  A    between atoms: C_5  and  O_6 
REMARK    2  A    between atoms: O_6  and  C_7 
REMARK    3  A    between atoms: C_7  and  C_9 
REMARK       I    between atoms: C_9  and  N_11 
REMARK    4  A    between atoms: N_11  and  N_12 
REMARK       I    between atoms: N_12  and  C_13 
REMARK       I    between atoms: C_13  and  N_15 
REMARK    5  A    between atoms: N_15  and  C_16 
ROOT
ATOM      1  C   UNL d   1      25.424 -14.062  -2.754  0.00  0.00     0.265 C 
ATOM      2  O   UNL d   1      24.779 -14.577  -3.671  0.00  0.00    -0.269 OA
ATOM      3  N   UNL d   1      25.727 -12.698  -2.781  0.00  0.00    -0.264 N 
ATOM      4  H   UNL d   1      26.254 -12.206  -2.060  0.00  0.00     0.190 HD
ENDROOT
BRANCH   1   5
ATOM      5  C   UNL d   1      25.941 -14.877  -1.502  0.00  0.00     0.218 C 
ATOM      6  C   UNL d   1      27.412 -14.504  -1.262  0.00  0.00     0.050 C 
BRANCH   5   7
ATOM      7  O   UNL d   1      25.790 -16.301  -1.719  0.00  0.00    -0.337 OA
BRANCH   7   8
ATOM      8  C   UNL d   1      24.730 -16.978  -1.162  0.00  0.00     0.070 A 
ATOM      9  C   UNL d   1      23.470 -16.370  -1.255  0.00  0.00     0.037 A 
ATOM     10  C   UNL d   1      22.315 -17.026  -0.790  0.00  0.00     0.009 A 
ATOM     11  C   UNL d   1      22.401 -18.314  -0.248  0.00  0.00    -0.062 A 
ATOM     12  C   UNL d   1      21.196 -19.063   0.232  0.00  0.00     0.048 C 
ATOM     13  C   UNL d   1      23.657 -18.909  -0.143  0.00  0.00     0.009 A 
ATOM     14  C   UNL d   1      24.805 -18.226  -0.546  0.00  0.00     0.037 A 
ENDBRANCH   7   8
ENDBRANCH   5   7
ENDBRANCH   1   5
BRANCH   3  15
ATOM     15  N   UNL d   1      25.343 -11.894  -3.911  0.00  0.00    -0.249 N 
ATOM     16  C   UNL d   1      25.718 -10.561  -3.946  0.00  0.00     0.335 C 
ATOM     17  O   UNL d   1      26.365 -10.055  -3.026  0.00  0.00    -0.246 OA
ATOM     18  N   UNL d   1      25.346  -9.868  -5.086  0.00  0.00    -0.338 N 
ATOM     19  H   UNL d   1      24.761 -10.324  -5.771  0.00  0.00     0.164 HD
ATOM     20  H   UNL d   1      24.780 -12.353  -4.621  0.00  0.00     0.192 HD
BRANCH  18  21
ATOM     21  C   UNL d   1      25.686  -8.445  -5.295  0.00  0.00     0.078 C 
ATOM     22  C   UNL d   1      25.182  -7.944  -6.651  0.00  0.00     0.032 C 
ATOM     23  C   UNL d   1      25.112  -7.520  -4.209  0.00  0.00     0.032 C 
ENDBRANCH  18  21
ENDBRANCH   3  15
TORSDOF 5
ENDMDL
MODEL 6
REMARK VINA RESULT:    -6.483      2.409      4.039
REMARK INTER + INTRA:          -9.420
REMARK INTER:                  -7.975
REMARK INTRA:                  -1.445
REMARK CONF_INDEPENDENT:        1.492
REMARK UNBOUND:                -1.445
REMARK  5 active torsions:
REMARK  status: ('A' for Active; 'I' for Inactive)
REMARK    1  A    between atoms: C_5  and  O_6 
REMARK    2  A    between atoms: O_6  and  C_7 
REMARK    3  A    between atoms: C_7  and  C_9 
REMARK       I    between atoms: C_9  and  N_11 
REMARK    4  A    between atoms: N_11  and  N_12 
REMARK       I    between atoms: N_12  and  C_13 
REMARK       I    between atoms: C_13  and  N_15 
REMARK    5  A    between atoms: N_15  and  C_16 
ROOT
ATOM      1  C   UNL d   1      25.129 -17.688  -0.311  0.00  0.00     0.265 C 
ATOM      2  O   UNL d   1      25.645 -18.402   0.553  0.00  0.00    -0.269 OA
ATOM      3  N   UNL d   1      23.766 -17.800  -0.598  0.00  0.00    -0.264 N 
ATOM      4  H   UNL d   1      23.272 -17.245  -1.297  0.00  0.00     0.190 HD
ENDROOT
BRANCH   1   5
ATOM      5  C   UNL d   1      25.941 -16.613  -1.137  0.00  0.00     0.218 C 
ATOM      6  C   UNL d   1      25.153 -16.299  -2.418  0.00  0.00     0.050 C 
BRANCH   5   7
ATOM      7  O   UNL d   1      27.270 -17.098  -1.444  0.00  0.00    -0.337 OA
BRANCH   7   8
ATOM      8  C   UNL d   1      28.357 -16.632  -0.742  0.00  0.00     0.070 A 
ATOM      9  C   UNL d   1      29.610 -17.157  -1.087  0.00  0.00     0.037 A 
ATOM     10  C   UNL d   1      30.786 -16.679  -0.481  0.00  0.00     0.009 A 
ATOM     11  C   UNL d   1      30.728 -15.646   0.461  0.00  0.00    -0.062 A 
ATOM     12  C   UNL d   1      31.956 -15.084   1.110  0.00  0.00     0.048 C 
ATOM     13  C   UNL d   1      29.481 -15.136   0.814  0.00  0.00     0.009 A 
ATOM     14  C   UNL d   1      28.313 -15.661   0.257  0.00  0.00     0.037 A 
ENDBRANCH   7   8
ENDBRANCH   5   7
ENDBRANCH   1   5
BRANCH   3  15
ATOM     15  N   UNL d   1      22.965 -18.793   0.068  0.00  0.00    -0.249 N 
ATOM     16  C   UNL d   1      21.586 -18.739  -0.056  0.00  0.00     0.335 C 
ATOM     17  O   UNL d   1      21.039 -17.854  -0.718  0.00  0.00    -0.246 OA
ATOM     18  N   UNL d   1      20.891 -19.754   0.580  0.00  0.00    -0.338 N 
ATOM     19  H   UNL d   1      21.397 -20.409   1.159  0.00  0.00     0.164 HD
ATOM     20  H   UNL d   1      23.467 -19.475   0.629  0.00  0.00     0.192 HD
BRANCH  18  21
ATOM     21  C   UNL d   1      19.418 -19.859   0.529  0.00  0.00     0.078 C 
ATOM     22  C   UNL d   1      18.896 -19.700  -0.902  0.00  0.00     0.032 C 
ATOM     23  C   UNL d   1      18.888 -21.193   1.078  0.00  0.00     0.032 C 
ENDBRANCH  18  21
ENDBRANCH   3  15
TORSDOF 5
ENDMDL
MODEL 7
REMARK VINA RESULT:    -6.321      5.256      8.278
REMARK INTER + INTRA:          -9.267
REMARK INTER:                  -7.812
REMARK INTRA:                  -1.455
REMARK CONF_INDEPENDENT:        1.492
REMARK UNBOUND:                -1.455
REMARK  5 active torsions:
REMARK  status: ('A' for Active; 'I' for Inactive)
REMARK    1  A    between atoms: C_5  and  O_6 
REMARK    2  A    between atoms: O_6  and  C_7 
REMARK    3  A    between atoms: C_7  and  C_9 
REMARK       I    between atoms: C_9  and  N_11 
REMARK    4  A    between atoms: N_11  and  N_12 
REMARK       I    between atoms: N_12  and  C_13 
REMARK       I    between atoms: C_13  and  N_15 
REMARK    5  A    between atoms: N_15  and  C_16 
ROOT
ATOM      1  C   UNL d   1      27.419 -14.996   1.386  0.00  0.00     0.265 C 
ATOM      2  O   UNL d   1      26.915 -13.949   0.970  0.00  0.00    -0.269 OA
ATOM      3  N   UNL d   1      27.840 -15.097   2.715  0.00  0.00    -0.264 N 
ATOM      4  H   UNL d   1      28.263 -15.927   3.128  0.00  0.00     0.190 HD
ENDROOT
BRANCH   1   5
ATOM      5  C   UNL d   1      27.620 -16.275   0.481  0.00  0.00     0.218 C 
ATOM      6  C   UNL d   1      29.075 -16.289  -0.012  0.00  0.00     0.050 C 
BRANCH   5   7
ATOM      7  O   UNL d   1      26.690 -16.269  -0.630  0.00  0.00    -0.337 OA
BRANCH   7   8
ATOM      8  C   UNL d   1      25.473 -16.901  -0.517  0.00  0.00     0.070 A 
ATOM      9  C   UNL d   1      24.340 -16.167  -0.894  0.00  0.00     0.037 A 
ATOM     10  C   UNL d   1      23.063 -16.759  -0.892  0.00  0.00     0.009 A 
ATOM     11  C   UNL d   1      22.906 -18.104  -0.540  0.00  0.00    -0.062 A 
ATOM     12  C   UNL d   1      21.571 -18.785  -0.553  0.00  0.00     0.048 C 
ATOM     13  C   UNL d   1      24.032 -18.827  -0.152  0.00  0.00     0.009 A 
ATOM     14  C   UNL d   1      25.285 -18.215  -0.092  0.00  0.00     0.037 A 
ENDBRANCH   7   8
ENDBRANCH   5   7
ENDBRANCH   1   5
BRANCH   3  15
ATOM     15  N   UNL d   1      27.745 -13.960   3.593  0.00  0.00    -0.249 N 
ATOM     16  C   UNL d   1      28.072 -14.114   4.931  0.00  0.00     0.335 C 
ATOM     17  O   UNL d   1      28.434 -15.205   5.378  0.00  0.00    -0.246 OA
ATOM     18  N   UNL d   1      27.996 -12.964   5.698  0.00  0.00    -0.338 N 
ATOM     19  H   UNL d   1      27.630 -12.119   5.284  0.00  0.00     0.164 HD
ATOM     20  H   UNL d   1      27.407 -13.097   3.178  0.00  0.00     0.192 HD
BRANCH  18  21
ATOM     21  C   UNL d   1      28.333 -12.948   7.137  0.00  0.00     0.078 C 
ATOM     22  C   UNL d   1      29.610 -13.744   7.420  0.00  0.00     0.032 C 
ATOM     23  C   UNL d   1      28.528 -11.529   7.695  0.00  0.00     0.032 C 
ENDBRANCH  18  21
ENDBRANCH   3  15
TORSDOF 5
ENDMDL
MODEL 8
REMARK VINA RESULT:    -6.182      3.671      8.559
REMARK INTER + INTRA:          -9.288
REMARK INTER:                  -7.673
REMARK INTRA:                  -1.615
REMARK CONF_INDEPENDENT:        1.492
REMARK UNBOUND:                -1.615
REMARK  5 active torsions:
REMARK  status: ('A' for Active; 'I' for Inactive)
REMARK    1  A    between atoms: C_5  and  O_6 
REMARK    2  A    between atoms: O_6  and  C_7 
REMARK    3  A    between atoms: C_7  and  C_9 
REMARK       I    between atoms: C_9  and  N_11 
REMARK    4  A    between atoms: N_11  and  N_12 
REMARK       I    between atoms: N_12  and  C_13 
REMARK       I    between atoms: C_13  and  N_15 
REMARK    5  A    between atoms: N_15  and  C_16 
ROOT
ATOM      1  C   UNL d   1      25.917 -15.059  -3.343  0.00  0.00     0.265 C 
ATOM      2  O   UNL d   1      25.093 -14.796  -4.223  0.00  0.00    -0.269 OA
ATOM      3  N   UNL d   1      27.259 -15.266  -3.672  0.00  0.00    -0.264 N 
ATOM      4  H   UNL d   1      27.994 -15.486  -3.000  0.00  0.00     0.190 HD
ENDROOT
BRANCH   1   5
ATOM      5  C   UNL d   1      25.537 -15.171  -1.813  0.00  0.00     0.218 C 
ATOM      6  C   UNL d   1      26.447 -14.219  -1.023  0.00  0.00     0.050 C 
BRANCH   5   7
ATOM      7  O   UNL d   1      25.676 -16.536  -1.349  0.00  0.00    -0.337 OA
BRANCH   7   8
ATOM      8  C   UNL d   1      24.573 -17.236  -0.916  0.00  0.00     0.070 A 
ATOM      9  C   UNL d   1      23.350 -16.551  -0.907  0.00  0.00     0.037 A 
ATOM     10  C   UNL d   1      22.156 -17.209  -0.561  0.00  0.00     0.009 A 
ATOM     11  C   UNL d   1      22.164 -18.573  -0.246  0.00  0.00    -0.062 A 
ATOM     12  C   UNL d   1      20.914 -19.323   0.099  0.00  0.00     0.048 C 
ATOM     13  C   UNL d   1      23.383 -19.248  -0.241  0.00  0.00     0.009 A 
ATOM     14  C   UNL d   1      24.572 -18.572  -0.521  0.00  0.00     0.037 A 
ENDBRANCH   7   8
ENDBRANCH   5   7
ENDBRANCH   1   5
BRANCH   3  15
ATOM     15  N   UNL d   1      27.680 -15.238  -5.048  0.00  0.00    -0.249 N 
ATOM     16  C   UNL d   1      28.988 -15.576  -5.358  0.00  0.00     0.335 C 
ATOM     17  O   UNL d   1      29.792 -15.890  -4.477  0.00  0.00    -0.246 OA
ATOM     18  N   UNL d   1      29.302 -15.565  -6.706  0.00  0.00    -0.338 N 
ATOM     19  H   UNL d   1      28.614 -15.234  -7.370  0.00  0.00     0.164 HD
ATOM     20  H   UNL d   1      26.987 -14.936  -5.725  0.00  0.00     0.192 HD
BRANCH  18  21
ATOM     21  C   UNL d   1      30.644 -15.921  -7.211  0.00  0.00     0.078 C 
ATOM     22  C   UNL d   1      31.734 -15.084  -6.537  0.00  0.00     0.032 C 
ATOM     23  C   UNL d   1      30.993 -17.404  -7.004  0.00  0.00     0.032 C 
ENDBRANCH  18  21
ENDBRANCH   3  15
TORSDOF 5
ENDMDL
MODEL 9
REMARK VINA RESULT:    -5.618      3.273      8.255
REMARK INTER + INTRA:          -9.053
REMARK INTER:                  -7.110
REMARK INTRA:                  -1.943
REMARK CONF_INDEPENDENT:        1.492
REMARK UNBOUND:                -1.943
REMARK  5 active torsions:
REMARK  status: ('A' for Active; 'I' for Inactive)
REMARK    1  A    between atoms: C_5  and  O_6 
REMARK    2  A    between atoms: O_6  and  C_7 
REMARK    3  A    between atoms: C_7  and  C_9 
REMARK       I    between atoms: C_9  and  N_11 
REMARK    4  A    between atoms: N_11  and  N_12 
REMARK       I    between atoms: N_12  and  C_13 
REMARK       I    between atoms: C_13  and  N_15 
REMARK    5  A    between atoms: N_15  and  C_16 
ROOT
ATOM      1  C   UNL d   1      26.777 -14.613  -1.312  0.00  0.00     0.265 C 
ATOM      2  O   UNL d   1      27.156 -13.511  -0.906  0.00  0.00    -0.269 OA
ATOM      3  N   UNL d   1      26.873 -14.938  -2.668  0.00  0.00    -0.264 N 
ATOM      4  H   UNL d   1      26.581 -15.826  -3.074  0.00  0.00     0.190 HD
ENDROOT
BRANCH   1   5
ATOM      5  C   UNL d   1      26.173 -15.720  -0.360  0.00  0.00     0.218 C 
ATOM      6  C   UNL d   1      27.255 -16.120   0.655  0.00  0.00     0.050 C 
BRANCH   5   7
ATOM      7  O   UNL d   1      25.722 -16.865  -1.125  0.00  0.00    -0.337 OA
BRANCH   7   8
ATOM      8  C   UNL d   1      24.487 -17.419  -0.879  0.00  0.00     0.070 A 
ATOM      9  C   UNL d   1      23.373 -16.583  -1.039  0.00  0.00     0.037 A 
ATOM     10  C   UNL d   1      22.067 -17.084  -0.892  0.00  0.00     0.009 A 
ATOM     11  C   UNL d   1      21.855 -18.438  -0.610  0.00  0.00    -0.062 A 
ATOM     12  C   UNL d   1      20.483 -19.024  -0.475  0.00  0.00     0.048 C 
ATOM     13  C   UNL d   1      22.964 -19.264  -0.437  0.00  0.00     0.009 A 
ATOM     14  C   UNL d   1      24.258 -18.745  -0.519  0.00  0.00     0.037 A 
ENDBRANCH   7   8
ENDBRANCH   5   7
ENDBRANCH   1   5
BRANCH   3  15
ATOM     15  N   UNL d   1      27.359 -13.966  -3.612  0.00  0.00    -0.249 N 
ATOM     16  C   UNL d   1      27.723 -14.385  -4.881  0.00  0.00     0.335 C 
ATOM     17  O   UNL d   1      27.645 -15.572  -5.208  0.00  0.00    -0.246 OA
ATOM     18  N   UNL d   1      28.140 -13.384  -5.742  0.00  0.00    -0.338 N 
ATOM     19  H   UNL d   1      28.242 -12.443  -5.390  0.00  0.00     0.164 HD
ATOM     20  H   UNL d   1      27.437 -13.011  -3.276  0.00  0.00     0.192 HD
BRANCH  18  21
ATOM     21  C   UNL d   1      28.541 -13.655  -7.138  0.00  0.00     0.078 C 
ATOM     22  C   UNL d   1      28.324 -12.430  -8.030  0.00  0.00     0.032 C 
ATOM     23  C   UNL d   1      30.013 -14.080  -7.272  0.00  0.00     0.032 C 
ENDBRANCH  18  21
ENDBRANCH   3  15
TORSDOF 5
ENDMDL
