MODEL 1
REMARK VINA RESULT:   -10.799      0.000      0.000
REMARK INTER + INTRA:         -13.861
REMARK INTER:                 -12.589
REMARK INTRA:                  -1.272
REMARK CONF_INDEPENDENT:        1.790
REMARK UNBOUND:                -1.272
REMARK  6 active torsions:
REMARK  status: ('A' for Active; 'I' for Inactive)
REMARK    1  A    between atoms: C_2  and  C_3 
REMARK    2  A    between atoms: C_7  and  N_8 
REMARK       I    between atoms: N_8  and  C_9 
REMARK       I    between atoms: C_9  and  N_11 
REMARK    3  A    between atoms: N_11  and  C_12 
REMARK    4  A    between atoms: C_15  and  N_16 
REMARK    5  A    between atoms: C_26  and  C_27 
REMARK       I    between atoms: C_27  and  N_29 
REMARK    6  A    between atoms: N_29  and  C_30 
ROOT
ATOM      1  C   UNL d   1      25.998 -17.074  -0.772  0.00  0.00     0.037 A 
ATOM      2  C   UNL d   1      27.339 -17.450  -0.777  0.00  0.00     0.032 A 
ATOM      3  C   UNL d   1      28.258 -16.800  -1.662  0.00  0.00     0.032 A 
ATOM      4  C   UNL d   1      27.849 -15.859  -2.648  0.00  0.00     0.046 A 
ATOM      5  C   UNL d   1      26.441 -15.522  -2.605  0.00  0.00     0.060 A 
ATOM      6  C   UNL d   1      25.579 -16.117  -1.692  0.00  0.00     0.049 A 
ENDROOT
BRANCH   1   7
ATOM      7  N   UNL d   1      25.037 -17.590   0.148  0.00  0.00    -0.309 N 
ATOM      8  C   UNL d   1      23.808 -18.002  -0.332  0.00  0.00     0.325 C 
ATOM      9  N   UNL d   1      22.884 -18.474   0.588  0.00  0.00    -0.309 N 
ATOM     10  O   UNL d   1      23.603 -17.965  -1.544  0.00  0.00    -0.247 OA
ATOM     11  H   UNL d   1      23.093 -18.452   1.575  0.00  0.00     0.170 HD
ATOM     12  H   UNL d   1      25.309 -17.701   1.111  0.00  0.00     0.170 HD
BRANCH   9  13
ATOM     13  C   UNL d   1      21.585 -18.950   0.203  0.00  0.00     0.036 C 
ATOM     14  C   UNL d   1      21.206 -19.061  -1.137  0.00  0.00     0.029 C 
ATOM     15  C   UNL d   1      19.951 -19.613  -1.476  0.00  0.00     0.003 C 
ATOM     16  C   UNL d   1      19.029 -19.969  -0.492  0.00  0.00     0.007 C 
ATOM     17  C   UNL d   1      19.414 -19.925   0.835  0.00  0.00    -0.056 C 
ATOM     18  C   UNL d   1      20.655 -19.380   1.154  0.00  0.00     0.036 C 
BRANCH  17  19
ATOM     19  C   UNL d   1      18.639 -20.617   1.924  0.00  0.00     0.034 C 
ATOM     20  C   UNL d   1      17.652 -21.591   1.289  0.00  0.00     0.010 C 
ENDBRANCH  17  19
ENDBRANCH   9  13
ENDBRANCH   1   7
BRANCH   5  21
ATOM     21  C   UNL d   1      25.837 -14.382  -3.395  0.00  0.00     0.254 C 
ATOM     22  O   UNL d   1      24.867 -14.463  -4.120  0.00  0.00    -0.268 OA
ATOM     23  N   UNL d   1      26.318 -13.109  -3.484  0.00  0.00    -0.352 N 
ATOM     24  H   UNL d   1      27.294 -12.951  -3.328  0.00  0.00     0.163 HD
BRANCH  23  25
ATOM     25  C   UNL d   1      25.548 -12.175  -4.315  0.00  0.00     0.084 A 
ATOM     26  C   UNL d   1      25.842 -10.659  -4.405  0.00  0.00     0.027 A 
ATOM     27  C   UNL d   1      26.226 -11.561  -5.511  0.00  0.00     0.027 A 
ENDBRANCH  23  25
ENDBRANCH   5  21
BRANCH   4  28
ATOM     28  N   UNL d   1      28.671 -15.083  -3.402  0.00  0.00    -0.378 N 
ATOM     29  C   UNL d   1      28.625 -15.298  -4.809  0.00  0.00     0.127 C 
ATOM     30  C   UNL d   1      30.378 -14.853  -5.748  0.00  0.00     0.055 C 
ATOM     31  C   UNL d   1      30.078 -13.775  -6.592  0.00  0.00    -0.063 C 
ATOM     32  C   UNL d   1      30.877 -13.321  -7.744  0.00  0.00     0.004 C 
ATOM     33  C   UNL d   1      28.986 -13.235  -5.811  0.00  0.00     0.034 C 
ATOM     34  C   UNL d   1      30.339 -12.569  -8.745  0.00  0.00     0.000 C 
ATOM     35  C   UNL d   1      29.010 -12.575  -8.638  0.00  0.00    -0.003 C 
ATOM     36  C   UNL d   1      28.422 -13.191  -7.294  0.00  0.00    -0.009 C 
ATOM     37  C   UNL d   1      29.636 -14.390  -4.091  0.00  0.00     0.142 C 
ENDBRANCH   4  28
TORSDOF 6
ENDMDL
MODEL 2
REMARK VINA RESULT:    -9.873      2.610      4.350
REMARK INTER + INTRA:         -12.319
REMARK INTER:                 -11.663
REMARK INTRA:                  -0.656
REMARK CONF_INDEPENDENT:        1.790
REMARK UNBOUND:                -0.656
REMARK  6 active torsions:
REMARK  status: ('A' for Active; 'I' for Inactive)
REMARK    1  A    between atoms: C_2  and  C_3 
REMARK    2  A    between atoms: C_7  and  N_8 
REMARK       I    between atoms: N_8  and  C_9 
REMARK       I    between atoms: C_9  and  N_11 
REMARK    3  A    between atoms: N_11  and  C_12 
REMARK    4  A    between atoms: C_15  and  N_16 
REMARK    5  A    between atoms: C_26  and  C_27 
REMARK       I    between atoms: C_27  and  N_29 
REMARK    6  A    between atoms: N_29  and  C_30 
ROOT
ATOM      1  C   UNL d   1      26.123 -17.079  -0.680  0.00  0.00     0.037 A 
ATOM      2  C   UNL d   1      25.776 -16.366  -1.825  0.00  0.00     0.032 A 
ATOM      3  C   UNL d   1      26.798 -15.931  -2.728  0.00  0.00     0.032 A 
ATOM      4  C   UNL d   1      28.187 -16.077  -2.455  0.00  0.00     0.046 A 
ATOM      5  C   UNL d   1      28.484 -16.811  -1.242  0.00  0.00     0.060 A 
ATOM      6  C   UNL d   1      27.474 -17.284  -0.414  0.00  0.00     0.049 A 
ENDROOT
BRANCH   1   7
ATOM      7  N   UNL d   1      25.168 -17.644   0.218  0.00  0.00    -0.309 N 
ATOM      8  C   UNL d   1      23.926 -18.009  -0.270  0.00  0.00     0.325 C 
ATOM      9  N   UNL d   1      23.010 -18.531   0.629  0.00  0.00    -0.309 N 
ATOM     10  O   UNL d   1      23.705 -17.886  -1.474  0.00  0.00    -0.247 OA
ATOM     11  H   UNL d   1      23.234 -18.579   1.612  0.00  0.00     0.170 HD
ATOM     12  H   UNL d   1      25.452 -17.825   1.167  0.00  0.00     0.170 HD
BRANCH   9  13
ATOM     13  C   UNL d   1      21.700 -18.964   0.232  0.00  0.00     0.036 C 
ATOM     14  C   UNL d   1      21.341 -19.099  -1.110  0.00  0.00     0.029 C 
ATOM     15  C   UNL d   1      20.071 -19.608  -1.458  0.00  0.00     0.003 C 
ATOM     16  C   UNL d   1      19.116 -19.896  -0.483  0.00  0.00     0.007 C 
ATOM     17  C   UNL d   1      19.478 -19.829   0.850  0.00  0.00    -0.056 C 
ATOM     18  C   UNL d   1      20.735 -19.327   1.177  0.00  0.00     0.036 C 
BRANCH  17  19
ATOM     19  C   UNL d   1      18.655 -20.456   1.942  0.00  0.00     0.034 C 
ATOM     20  C   UNL d   1      17.831 -21.595   1.351  0.00  0.00     0.010 C 
ENDBRANCH  17  19
ENDBRANCH   9  13
ENDBRANCH   1   7
BRANCH   5  21
ATOM     21  C   UNL d   1      29.874 -17.286  -0.880  0.00  0.00     0.254 C 
ATOM     22  O   UNL d   1      30.518 -18.113  -1.493  0.00  0.00    -0.268 OA
ATOM     23  N   UNL d   1      30.595 -16.927   0.220  0.00  0.00    -0.352 N 
ATOM     24  H   UNL d   1      30.106 -16.615   1.035  0.00  0.00     0.163 HD
BRANCH  23  25
ATOM     25  C   UNL d   1      31.930 -17.523   0.350  0.00  0.00     0.084 A 
ATOM     26  C   UNL d   1      33.167 -16.759   0.879  0.00  0.00     0.027 A 
ATOM     27  C   UNL d   1      32.478 -17.749   1.734  0.00  0.00     0.027 A 
ENDBRANCH  23  25
ENDBRANCH   5  21
BRANCH   4  28
ATOM     28  N   UNL d   1      29.202 -15.845  -3.329  0.00  0.00    -0.378 N 
ATOM     29  C   UNL d   1      29.779 -16.993  -3.941  0.00  0.00     0.127 C 
ATOM     30  C   UNL d   1      31.733 -16.729  -4.459  0.00  0.00     0.055 C 
ATOM     31  C   UNL d   1      31.757 -16.816  -5.858  0.00  0.00    -0.063 C 
ATOM     32  C   UNL d   1      32.942 -17.067  -6.696  0.00  0.00     0.004 C 
ATOM     33  C   UNL d   1      30.402 -16.362  -6.088  0.00  0.00     0.034 C 
ATOM     34  C   UNL d   1      32.840 -17.548  -7.967  0.00  0.00     0.000 C 
ATOM     35  C   UNL d   1      31.598 -17.985  -8.176  0.00  0.00    -0.003 C 
ATOM     36  C   UNL d   1      30.530 -17.613  -7.058  0.00  0.00    -0.009 C 
ATOM     37  C   UNL d   1      30.321 -15.561  -4.072  0.00  0.00     0.142 C 
ENDBRANCH   4  28
TORSDOF 6
ENDMDL
MODEL 3
REMARK VINA RESULT:    -9.720      2.098      3.903
REMARK INTER + INTRA:         -12.460
REMARK INTER:                 -11.510
REMARK INTRA:                  -0.950
REMARK CONF_INDEPENDENT:        1.790
REMARK UNBOUND:                -0.950
REMARK  6 active torsions:
REMARK  status: ('A' for Active; 'I' for Inactive)
REMARK    1  A    between atoms: C_2  and  C_3 
REMARK    2  A    between atoms: C_7  and  N_8 
REMARK       I    between atoms: N_8  and  C_9 
REMARK       I    between atoms: C_9  and  N_11 
REMARK    3  A    between atoms: N_11  and  C_12 
REMARK    4  A    between atoms: C_15  and  N_16 
REMARK    5  A    between atoms: C_26  and  C_27 
REMARK       I    between atoms: C_27  and  N_29 
REMARK    6  A    between atoms: N_29  and  C_30 
ROOT
ATOM      1  C   UNL d   1      26.290 -16.851  -0.445  0.00  0.00     0.037 A 
ATOM      2  C   UNL d   1      25.963 -15.651  -1.070  0.00  0.00     0.032 A 
ATOM      3  C   UNL d   1      26.923 -15.000  -1.909  0.00  0.00     0.032 A 
ATOM      4  C   UNL d   1      28.266 -15.451  -2.045  0.00  0.00     0.046 A 
ATOM      5  C   UNL d   1      28.550 -16.695  -1.359  0.00  0.00     0.060 A 
ATOM      6  C   UNL d   1      27.582 -17.346  -0.603  0.00  0.00     0.049 A 
ENDROOT
BRANCH   1   7
ATOM      7  N   UNL d   1      25.364 -17.623   0.318  0.00  0.00    -0.309 N 
ATOM      8  C   UNL d   1      24.109 -17.870  -0.207  0.00  0.00     0.325 C 
ATOM      9  N   UNL d   1      23.221 -18.600   0.569  0.00  0.00    -0.309 N 
ATOM     10  O   UNL d   1      23.851 -17.465  -1.339  0.00  0.00    -0.247 OA
ATOM     11  H   UNL d   1      23.474 -18.880   1.505  0.00  0.00     0.170 HD
ATOM     12  H   UNL d   1      25.677 -18.022   1.188  0.00  0.00     0.170 HD
BRANCH   9  13
ATOM     13  C   UNL d   1      21.900 -18.937   0.118  0.00  0.00     0.036 C 
ATOM     14  C   UNL d   1      21.562 -18.951  -1.237  0.00  0.00     0.029 C 
ATOM     15  C   UNL d   1      20.277 -19.370  -1.644  0.00  0.00     0.003 C 
ATOM     16  C   UNL d   1      19.290 -19.685  -0.710  0.00  0.00     0.007 C 
ATOM     17  C   UNL d   1      19.628 -19.737   0.630  0.00  0.00    -0.056 C 
ATOM     18  C   UNL d   1      20.900 -19.324   1.016  0.00  0.00     0.036 C 
BRANCH  17  19
ATOM     19  C   UNL d   1      18.754 -20.405   1.657  0.00  0.00     0.034 C 
ATOM     20  C   UNL d   1      18.033 -21.580   1.006  0.00  0.00     0.010 C 
ENDBRANCH  17  19
ENDBRANCH   9  13
ENDBRANCH   1   7
BRANCH   5  21
ATOM     21  C   UNL d   1      29.830 -17.476  -1.555  0.00  0.00     0.254 C 
ATOM     22  O   UNL d   1      30.275 -17.844  -2.623  0.00  0.00    -0.268 OA
ATOM     23  N   UNL d   1      30.649 -17.957  -0.576  0.00  0.00    -0.352 N 
ATOM     24  H   UNL d   1      30.262 -18.137   0.329  0.00  0.00     0.163 HD
BRANCH  23  25
ATOM     25  C   UNL d   1      31.843 -18.685  -1.021  0.00  0.00     0.084 A 
ATOM     26  C   UNL d   1      33.136 -18.813  -0.182  0.00  0.00     0.027 A 
ATOM     27  C   UNL d   1      32.209 -19.957  -0.304  0.00  0.00     0.027 A 
ENDBRANCH  23  25
ENDBRANCH   5  21
BRANCH   4  28
ATOM     28  N   UNL d   1      29.177 -14.991  -2.943  0.00  0.00    -0.378 N 
ATOM     29  C   UNL d   1      28.810 -15.087  -4.315  0.00  0.00     0.127 C 
ATOM     30  C   UNL d   1      30.412 -15.266  -5.563  0.00  0.00     0.055 C 
ATOM     31  C   UNL d   1      30.399 -14.104  -6.346  0.00  0.00    -0.063 C 
ATOM     32  C   UNL d   1      31.098 -13.909  -7.629  0.00  0.00     0.004 C 
ATOM     33  C   UNL d   1      29.743 -13.247  -5.382  0.00  0.00     0.034 C 
ATOM     34  C   UNL d   1      30.718 -12.951  -8.520  0.00  0.00     0.000 C 
ATOM     35  C   UNL d   1      29.524 -12.470  -8.171  0.00  0.00    -0.003 C 
ATOM     36  C   UNL d   1      28.989 -12.906  -6.738  0.00  0.00    -0.009 C 
ATOM     37  C   UNL d   1      30.196 -14.664  -3.802  0.00  0.00     0.142 C 
ENDBRANCH   4  28
TORSDOF 6
ENDMDL
MODEL 4
REMARK VINA RESULT:    -9.462      1.855      3.308
REMARK INTER + INTRA:         -12.394
REMARK INTER:                 -11.251
REMARK INTRA:                  -1.143
REMARK CONF_INDEPENDENT:        1.790
REMARK UNBOUND:                -1.143
REMARK  6 active torsions:
REMARK  status: ('A' for Active; 'I' for Inactive)
REMARK    1  A    between atoms: C_2  and  C_3 
REMARK    2  A    between atoms: C_7  and  N_8 
REMARK       I    between atoms: N_8  and  C_9 
REMARK       I    between atoms: C_9  and  N_11 
REMARK    3  A    between atoms: N_11  and  C_12 
REMARK    4  A    between atoms: C_15  and  N_16 
REMARK    5  A    between atoms: C_26  and  C_27 
REMARK       I    between atoms: C_27  and  N_29 
REMARK    6  A    between atoms: N_29  and  C_30 
ROOT
ATOM      1  C   UNL d   1      26.131 -16.208  -1.172  0.00  0.00     0.037 A 
ATOM      2  C   UNL d   1      25.695 -14.947  -1.571  0.00  0.00     0.032 A 
ATOM      3  C   UNL d   1      26.436 -14.215  -2.553  0.00  0.00     0.032 A 
ATOM      4  C   UNL d   1      27.689 -14.656  -3.065  0.00  0.00     0.046 A 
ATOM      5  C   UNL d   1      28.097 -15.966  -2.601  0.00  0.00     0.060 A 
ATOM      6  C   UNL d   1      27.327 -16.689  -1.697  0.00  0.00     0.049 A 
ENDROOT
BRANCH   1   7
ATOM      7  N   UNL d   1      25.399 -17.052  -0.283  0.00  0.00    -0.309 N 
ATOM      8  C   UNL d   1      24.108 -17.415  -0.619  0.00  0.00     0.325 C 
ATOM      9  N   UNL d   1      23.413 -18.214   0.276  0.00  0.00    -0.309 N 
ATOM     10  O   UNL d   1      23.652 -17.046  -1.699  0.00  0.00    -0.247 OA
ATOM     11  H   UNL d   1      23.825 -18.461   1.164  0.00  0.00     0.170 HD
ATOM     12  H   UNL d   1      25.871 -17.413   0.529  0.00  0.00     0.170 HD
BRANCH   9  13
ATOM     13  C   UNL d   1      22.076 -18.672   0.023  0.00  0.00     0.036 C 
ATOM     14  C   UNL d   1      21.610 -18.917  -1.270  0.00  0.00     0.029 C 
ATOM     15  C   UNL d   1      20.317 -19.447  -1.471  0.00  0.00     0.003 C 
ATOM     16  C   UNL d   1      19.444 -19.647  -0.401  0.00  0.00     0.007 C 
ATOM     17  C   UNL d   1      19.912 -19.471   0.887  0.00  0.00    -0.056 C 
ATOM     18  C   UNL d   1      21.190 -18.950   1.070  0.00  0.00     0.036 C 
BRANCH  17  19
ATOM     19  C   UNL d   1      19.181 -20.000   2.092  0.00  0.00     0.034 C 
ATOM     20  C   UNL d   1      18.211 -21.089   1.644  0.00  0.00     0.010 C 
ENDBRANCH  17  19
ENDBRANCH   9  13
ENDBRANCH   1   7
BRANCH   5  21
ATOM     21  C   UNL d   1      29.264 -16.728  -3.189  0.00  0.00     0.254 C 
ATOM     22  O   UNL d   1      30.109 -17.325  -2.554  0.00  0.00    -0.268 OA
ATOM     23  N   UNL d   1      29.600 -16.809  -4.508  0.00  0.00    -0.352 N 
ATOM     24  H   UNL d   1      29.313 -16.074  -5.124  0.00  0.00     0.163 HD
BRANCH  23  25
ATOM     25  C   UNL d   1      30.781 -17.617  -4.833  0.00  0.00     0.084 A 
ATOM     26  C   UNL d   1      30.762 -19.159  -4.958  0.00  0.00     0.027 A 
ATOM     27  C   UNL d   1      30.823 -18.312  -6.168  0.00  0.00     0.027 A 
ENDBRANCH  23  25
ENDBRANCH   5  21
BRANCH   4  28
ATOM     28  N   UNL d   1      28.363 -14.108  -4.110  0.00  0.00    -0.378 N 
ATOM     29  C   UNL d   1      27.667 -14.061  -5.352  0.00  0.00     0.127 C 
ATOM     30  C   UNL d   1      28.906 -14.115  -6.969  0.00  0.00     0.055 C 
ATOM     31  C   UNL d   1      28.731 -12.879  -7.606  0.00  0.00    -0.063 C 
ATOM     32  C   UNL d   1      29.097 -12.555  -8.996  0.00  0.00     0.004 C 
ATOM     33  C   UNL d   1      28.356 -12.124  -6.430  0.00  0.00     0.034 C 
ATOM     34  C   UNL d   1      28.535 -11.509  -9.666  0.00  0.00     0.000 C 
ATOM     35  C   UNL d   1      27.478 -11.065  -8.986  0.00  0.00    -0.003 C 
ATOM     36  C   UNL d   1      27.301 -11.644  -7.516  0.00  0.00    -0.009 C 
ATOM     37  C   UNL d   1      29.147 -13.696  -5.159  0.00  0.00     0.142 C 
ENDBRANCH   4  28
TORSDOF 6
ENDMDL
MODEL 5
REMARK VINA RESULT:    -9.238      5.819      8.181
REMARK INTER + INTRA:         -11.786
REMARK INTER:                 -11.027
REMARK INTRA:                  -0.759
REMARK CONF_INDEPENDENT:        1.790
REMARK UNBOUND:                -0.759
REMARK  6 active torsions:
REMARK  status: ('A' for Active; 'I' for Inactive)
REMARK    1  A    between atoms: C_2  and  C_3 
REMARK    2  A    between atoms: C_7  and  N_8 
REMARK       I    between atoms: N_8  and  C_9 
REMARK       I    between atoms: C_9  and  N_11 
REMARK    3  A    between atoms: N_11  and  C_12 
REMARK    4  A    between atoms: C_15  and  N_16 
REMARK    5  A    between atoms: C_26  and  C_27 
REMARK       I    between atoms: C_27  and  N_29 
REMARK    6  A    between atoms: N_29  and  C_30 
ROOT
ATOM      1  C   UNL d   1      27.910 -14.485   1.676  0.00  0.00     0.037 A 
ATOM      2  C   UNL d   1      28.361 -13.297   1.106  0.00  0.00     0.032 A 
ATOM      3  C   UNL d   1      27.859 -12.886  -0.171  0.00  0.00     0.032 A 
ATOM      4  C   UNL d   1      27.004 -13.699  -0.966  0.00  0.00     0.046 A 
ATOM      5  C   UNL d   1      26.584 -14.929  -0.326  0.00  0.00     0.060 A 
ATOM      6  C   UNL d   1      27.031 -15.277   0.943  0.00  0.00     0.049 A 
ENDROOT
BRANCH   1   7
ATOM      7  N   UNL d   1      28.272 -14.918   2.987  0.00  0.00    -0.309 N 
ATOM      8  C   UNL d   1      28.247 -14.003   4.023  0.00  0.00     0.325 C 
ATOM      9  N   UNL d   1      28.627 -14.446   5.280  0.00  0.00    -0.309 N 
ATOM     10  O   UNL d   1      27.859 -12.859   3.792  0.00  0.00    -0.247 OA
ATOM     11  H   UNL d   1      28.968 -15.388   5.406  0.00  0.00     0.170 HD
ATOM     12  H   UNL d   1      28.468 -15.895   3.130  0.00  0.00     0.170 HD
BRANCH   9  13
ATOM     13  C   UNL d   1      28.619 -13.592   6.434  0.00  0.00     0.036 C 
ATOM     14  C   UNL d   1      28.272 -12.241   6.353  0.00  0.00     0.029 C 
ATOM     15  C   UNL d   1      28.194 -11.456   7.523  0.00  0.00     0.003 C 
ATOM     16  C   UNL d   1      28.550 -11.976   8.767  0.00  0.00     0.007 C 
ATOM     17  C   UNL d   1      28.833 -13.325   8.873  0.00  0.00    -0.056 C 
ATOM     18  C   UNL d   1      28.904 -14.088   7.711  0.00  0.00     0.036 C 
BRANCH  17  19
ATOM     19  C   UNL d   1      28.871 -14.040  10.197  0.00  0.00     0.034 C 
ATOM     20  C   UNL d   1      27.779 -13.474  11.098  0.00  0.00     0.010 C 
ENDBRANCH  17  19
ENDBRANCH   9  13
ENDBRANCH   1   7
BRANCH   5  21
ATOM     21  C   UNL d   1      25.500 -15.825  -0.883  0.00  0.00     0.254 C 
ATOM     22  O   UNL d   1      24.828 -15.591  -1.867  0.00  0.00    -0.268 OA
ATOM     23  N   UNL d   1      25.049 -16.991  -0.339  0.00  0.00    -0.352 N 
ATOM     24  H   UNL d   1      25.153 -17.134   0.646  0.00  0.00     0.163 HD
BRANCH  23  25
ATOM     25  C   UNL d   1      23.985 -17.687  -1.072  0.00  0.00     0.084 A 
ATOM     26  C   UNL d   1      23.269 -18.956  -0.554  0.00  0.00     0.027 A 
ATOM     27  C   UNL d   1      22.588 -17.645  -0.510  0.00  0.00     0.027 A 
ENDBRANCH  23  25
ENDBRANCH   5  21
BRANCH   4  28
ATOM     28  N   UNL d   1      26.358 -13.312  -2.098  0.00  0.00    -0.378 N 
ATOM     29  C   UNL d   1      27.016 -12.329  -2.892  0.00  0.00     0.127 C 
ATOM     30  C   UNL d   1      25.727 -11.172  -3.966  0.00  0.00     0.055 C 
ATOM     31  C   UNL d   1      26.009 -11.459  -5.308  0.00  0.00    -0.063 C 
ATOM     32  C   UNL d   1      25.635 -10.637  -6.473  0.00  0.00     0.004 C 
ATOM     33  C   UNL d   1      26.498 -12.806  -5.105  0.00  0.00     0.034 C 
ATOM     34  C   UNL d   1      26.281 -10.741  -7.669  0.00  0.00     0.000 C 
ATOM     35  C   UNL d   1      27.400 -11.448  -7.507  0.00  0.00    -0.003 C 
ATOM     36  C   UNL d   1      27.562 -12.186  -6.107  0.00  0.00    -0.009 C 
ATOM     37  C   UNL d   1      25.588 -12.845  -3.134  0.00  0.00     0.142 C 
ENDBRANCH   4  28
TORSDOF 6
ENDMDL
MODEL 6
REMARK VINA RESULT:    -8.898      3.512      5.214
REMARK INTER + INTRA:         -11.930
REMARK INTER:                 -10.688
REMARK INTRA:                  -1.242
REMARK CONF_INDEPENDENT:        1.790
REMARK UNBOUND:                -1.242
REMARK  6 active torsions:
REMARK  status: ('A' for Active; 'I' for Inactive)
REMARK    1  A    between atoms: C_2  and  C_3 
REMARK    2  A    between atoms: C_7  and  N_8 
REMARK       I    between atoms: N_8  and  C_9 
REMARK       I    between atoms: C_9  and  N_11 
REMARK    3  A    between atoms: N_11  and  C_12 
REMARK    4  A    between atoms: C_15  and  N_16 
REMARK    5  A    between atoms: C_26  and  C_27 
REMARK       I    between atoms: C_27  and  N_29 
REMARK    6  A    between atoms: N_29  and  C_30 
ROOT
ATOM      1  C   UNL d   1      25.415 -16.620  -0.863  0.00  0.00     0.037 A 
ATOM      2  C   UNL d   1      25.516 -16.164  -2.175  0.00  0.00     0.032 A 
ATOM      3  C   UNL d   1      26.252 -14.969  -2.459  0.00  0.00     0.032 A 
ATOM      4  C   UNL d   1      26.794 -14.133  -1.443  0.00  0.00     0.046 A 
ATOM      5  C   UNL d   1      26.643 -14.652  -0.099  0.00  0.00     0.060 A 
ATOM      6  C   UNL d   1      25.982 -15.849   0.148  0.00  0.00     0.049 A 
ENDROOT
BRANCH   1   7
ATOM      7  N   UNL d   1      24.796 -17.854  -0.501  0.00  0.00    -0.309 N 
ATOM      8  C   UNL d   1      23.416 -17.937  -0.514  0.00  0.00     0.325 C 
ATOM      9  N   UNL d   1      22.842 -19.140  -0.132  0.00  0.00    -0.309 N 
ATOM     10  O   UNL d   1      22.768 -16.962  -0.892  0.00  0.00    -0.247 OA
ATOM     11  H   UNL d   1      23.420 -19.897   0.200  0.00  0.00     0.170 HD
ATOM     12  H   UNL d   1      25.386 -18.647  -0.313  0.00  0.00     0.170 HD
BRANCH   9  13
ATOM     13  C   UNL d   1      21.421 -19.349  -0.129  0.00  0.00     0.036 C 
ATOM     14  C   UNL d   1      20.671 -19.354  -1.307  0.00  0.00     0.029 C 
ATOM     15  C   UNL d   1      19.291 -19.648  -1.270  0.00  0.00     0.003 C 
ATOM     16  C   UNL d   1      18.627 -19.843  -0.059  0.00  0.00     0.007 C 
ATOM     17  C   UNL d   1      19.366 -19.905   1.108  0.00  0.00    -0.056 C 
ATOM     18  C   UNL d   1      20.726 -19.616   1.055  0.00  0.00     0.036 C 
BRANCH  17  19
ATOM     19  C   UNL d   1      18.806 -20.461   2.390  0.00  0.00     0.034 C 
ATOM     20  C   UNL d   1      19.899 -20.452   3.454  0.00  0.00     0.010 C 
ENDBRANCH  17  19
ENDBRANCH   9  13
ENDBRANCH   1   7
BRANCH   5  21
ATOM     21  C   UNL d   1      27.341 -14.055   1.103  0.00  0.00     0.254 C 
ATOM     22  O   UNL d   1      27.396 -12.872   1.371  0.00  0.00    -0.268 OA
ATOM     23  N   UNL d   1      28.078 -14.727   2.033  0.00  0.00    -0.352 N 
ATOM     24  H   UNL d   1      28.504 -15.595   1.773  0.00  0.00     0.163 HD
BRANCH  23  25
ATOM     25  C   UNL d   1      28.656 -13.922   3.116  0.00  0.00     0.084 A 
ATOM     26  C   UNL d   1      27.887 -13.525   4.398  0.00  0.00     0.027 A 
ATOM     27  C   UNL d   1      28.912 -14.590   4.441  0.00  0.00     0.027 A 
ENDBRANCH  23  25
ENDBRANCH   5  21
BRANCH   4  28
ATOM     28  N   UNL d   1      27.639 -13.086  -1.636  0.00  0.00    -0.378 N 
ATOM     29  C   UNL d   1      27.120 -11.795  -1.336  0.00  0.00     0.127 C 
ATOM     30  C   UNL d   1      27.983 -10.309  -2.432  0.00  0.00     0.055 C 
ATOM     31  C   UNL d   1      28.652  -9.506  -1.499  0.00  0.00    -0.063 C 
ATOM     32  C   UNL d   1      29.112  -8.122  -1.710  0.00  0.00     0.004 C 
ATOM     33  C   UNL d   1      28.892 -10.539  -0.514  0.00  0.00     0.034 C 
ATOM     34  C   UNL d   1      29.363  -7.277  -0.670  0.00  0.00     0.000 C 
ATOM     35  C   UNL d   1      28.875  -7.802   0.454  0.00  0.00    -0.003 C 
ATOM     36  C   UNL d   1      28.391  -9.315   0.365  0.00  0.00    -0.009 C 
ATOM     37  C   UNL d   1      28.478 -12.064  -2.003  0.00  0.00     0.142 C 
ENDBRANCH   4  28
TORSDOF 6
ENDMDL
MODEL 7
REMARK VINA RESULT:    -8.823      6.553     10.089
REMARK INTER + INTRA:         -11.590
REMARK INTER:                 -10.612
REMARK INTRA:                  -0.977
REMARK CONF_INDEPENDENT:        1.790
REMARK UNBOUND:                -0.977
REMARK  6 active torsions:
REMARK  status: ('A' for Active; 'I' for Inactive)
REMARK    1  A    between atoms: C_2  and  C_3 
REMARK    2  A    between atoms: C_7  and  N_8 
REMARK       I    between atoms: N_8  and  C_9 
REMARK       I    between atoms: C_9  and  N_11 
REMARK    3  A    between atoms: N_11  and  C_12 
REMARK    4  A    between atoms: C_15  and  N_16 
REMARK    5  A    between atoms: C_26  and  C_27 
REMARK       I    between atoms: C_27  and  N_29 
REMARK    6  A    between atoms: N_29  and  C_30 
ROOT
ATOM      1  C   UNL d   1      29.015 -13.764   2.495  0.00  0.00     0.037 A 
ATOM      2  C   UNL d   1      27.733 -13.222   2.468  0.00  0.00     0.032 A 
ATOM      3  C   UNL d   1      26.775 -13.706   1.520  0.00  0.00     0.032 A 
ATOM      4  C   UNL d   1      27.101 -14.642   0.498  0.00  0.00     0.046 A 
ATOM      5  C   UNL d   1      28.453 -15.157   0.569  0.00  0.00     0.060 A 
ATOM      6  C   UNL d   1      29.346 -14.721   1.539  0.00  0.00     0.049 A 
ENDROOT
BRANCH   1   7
ATOM      7  N   UNL d   1      29.997 -13.421   3.471  0.00  0.00    -0.309 N 
ATOM      8  C   UNL d   1      29.593 -13.192   4.774  0.00  0.00     0.325 C 
ATOM      9  N   UNL d   1      30.565 -12.834   5.695  0.00  0.00    -0.309 N 
ATOM     10  O   UNL d   1      28.407 -13.347   5.060  0.00  0.00    -0.247 OA
ATOM     11  H   UNL d   1      31.518 -12.689   5.397  0.00  0.00     0.170 HD
ATOM     12  H   UNL d   1      30.965 -13.423   3.196  0.00  0.00     0.170 HD
BRANCH   9  13
ATOM     13  C   UNL d   1      30.265 -12.595   7.079  0.00  0.00     0.036 C 
ATOM     14  C   UNL d   1      30.098 -11.305   7.587  0.00  0.00     0.029 C 
ATOM     15  C   UNL d   1      29.721 -11.115   8.934  0.00  0.00     0.003 C 
ATOM     16  C   UNL d   1      29.601 -12.195   9.809  0.00  0.00     0.007 C 
ATOM     17  C   UNL d   1      29.701 -13.479   9.307  0.00  0.00    -0.056 C 
ATOM     18  C   UNL d   1      30.070 -13.650   7.975  0.00  0.00     0.036 C 
BRANCH  17  19
ATOM     19  C   UNL d   1      29.236 -14.686  10.077  0.00  0.00     0.034 C 
ATOM     20  C   UNL d   1      27.814 -14.440  10.573  0.00  0.00     0.010 C 
ENDBRANCH  17  19
ENDBRANCH   9  13
ENDBRANCH   1   7
BRANCH   5  21
ATOM     21  C   UNL d   1      28.939 -16.324  -0.261  0.00  0.00     0.254 C 
ATOM     22  O   UNL d   1      28.404 -16.747  -1.265  0.00  0.00    -0.268 OA
ATOM     23  N   UNL d   1      30.002 -17.132   0.016  0.00  0.00    -0.352 N 
ATOM     24  H   UNL d   1      30.298 -17.229   0.967  0.00  0.00     0.163 HD
BRANCH  23  25
ATOM     25  C   UNL d   1      30.280 -18.202  -0.950  0.00  0.00     0.084 A 
ATOM     26  C   UNL d   1      30.898 -17.962  -2.347  0.00  0.00     0.027 A 
ATOM     27  C   UNL d   1      31.717 -18.530  -1.255  0.00  0.00     0.027 A 
ENDBRANCH  23  25
ENDBRANCH   5  21
BRANCH   4  28
ATOM     28  N   UNL d   1      26.217 -15.270  -0.322  0.00  0.00    -0.378 N 
ATOM     29  C   UNL d   1      25.641 -16.472   0.178  0.00  0.00     0.127 C 
ATOM     30  C   UNL d   1      25.109 -17.779  -1.293  0.00  0.00     0.055 C 
ATOM     31  C   UNL d   1      23.714 -17.880  -1.207  0.00  0.00    -0.063 C 
ATOM     32  C   UNL d   1      22.881 -18.954  -1.777  0.00  0.00     0.004 C 
ATOM     33  C   UNL d   1      23.473 -16.566  -0.651  0.00  0.00     0.034 C 
ATOM     34  C   UNL d   1      21.626 -19.218  -1.315  0.00  0.00     0.000 C 
ATOM     35  C   UNL d   1      21.435 -18.575  -0.163  0.00  0.00    -0.003 C 
ATOM     36  C   UNL d   1      22.544 -17.505   0.231  0.00  0.00    -0.009 C 
ATOM     37  C   UNL d   1      25.463 -15.940  -1.253  0.00  0.00     0.142 C 
ENDBRANCH   4  28
TORSDOF 6
ENDMDL
MODEL 8
REMARK VINA RESULT:    -8.630      7.213     10.182
REMARK INTER + INTRA:         -11.771
REMARK INTER:                 -10.419
REMARK INTRA:                  -1.352
REMARK CONF_INDEPENDENT:        1.790
REMARK UNBOUND:                -1.352
REMARK  6 active torsions:
REMARK  status: ('A' for Active; 'I' for Inactive)
REMARK    1  A    between atoms: C_2  and  C_3 
REMARK    2  A    between atoms: C_7  and  N_8 
REMARK       I    between atoms: N_8  and  C_9 
REMARK       I    between atoms: C_9  and  N_11 
REMARK    3  A    between atoms: N_11  and  C_12 
REMARK    4  A    between atoms: C_15  and  N_16 
REMARK    5  A    between atoms: C_26  and  C_27 
REMARK       I    between atoms: C_27  and  N_29 
REMARK    6  A    between atoms: N_29  and  C_30 
ROOT
ATOM      1  C   UNL d   1      29.481 -13.618   3.985  0.00  0.00     0.037 A 
ATOM      2  C   UNL d   1      28.130 -13.299   4.095  0.00  0.00     0.032 A 
ATOM      3  C   UNL d   1      27.249 -13.548   2.994  0.00  0.00     0.032 A 
ATOM      4  C   UNL d   1      27.704 -13.995   1.722  0.00  0.00     0.046 A 
ATOM      5  C   UNL d   1      29.120 -14.294   1.666  0.00  0.00     0.060 A 
ATOM      6  C   UNL d   1      29.946 -14.109   2.768  0.00  0.00     0.049 A 
ENDROOT
BRANCH   1   7
ATOM      7  N   UNL d   1      30.409 -13.506   5.064  0.00  0.00    -0.309 N 
ATOM      8  C   UNL d   1      30.062 -14.019   6.300  0.00  0.00     0.325 C 
ATOM      9  N   UNL d   1      30.972 -13.872   7.335  0.00  0.00    -0.309 N 
ATOM     10  O   UNL d   1      28.987 -14.605   6.415  0.00  0.00    -0.247 OA
ATOM     11  H   UNL d   1      31.825 -13.353   7.192  0.00  0.00     0.170 HD
ATOM     12  H   UNL d   1      31.318 -13.118   4.873  0.00  0.00     0.170 HD
BRANCH   9  13
ATOM     13  C   UNL d   1      30.729 -14.384   8.654  0.00  0.00     0.036 C 
ATOM     14  C   UNL d   1      31.666 -15.173   9.326  0.00  0.00     0.029 C 
ATOM     15  C   UNL d   1      31.424 -15.586  10.654  0.00  0.00     0.003 C 
ATOM     16  C   UNL d   1      30.216 -15.304  11.290  0.00  0.00     0.007 C 
ATOM     17  C   UNL d   1      29.307 -14.472  10.663  0.00  0.00    -0.056 C 
ATOM     18  C   UNL d   1      29.560 -14.069   9.354  0.00  0.00     0.036 C 
BRANCH  17  19
ATOM     19  C   UNL d   1      28.163 -13.825  11.398  0.00  0.00     0.034 C 
ATOM     20  C   UNL d   1      27.780 -12.535  10.681  0.00  0.00     0.010 C 
ENDBRANCH  17  19
ENDBRANCH   9  13
ENDBRANCH   1   7
BRANCH   5  21
ATOM     21  C   UNL d   1      29.773 -15.000   0.498  0.00  0.00     0.254 C 
ATOM     22  O   UNL d   1      30.000 -14.506  -0.587  0.00  0.00    -0.268 OA
ATOM     23  N   UNL d   1      30.141 -16.312   0.443  0.00  0.00    -0.352 N 
ATOM     24  H   UNL d   1      29.670 -16.969   1.034  0.00  0.00     0.163 HD
BRANCH  23  25
ATOM     25  C   UNL d   1      30.763 -16.765  -0.807  0.00  0.00     0.084 A 
ATOM     26  C   UNL d   1      30.954 -18.253  -1.184  0.00  0.00     0.027 A 
ATOM     27  C   UNL d   1      29.894 -17.449  -1.828  0.00  0.00     0.027 A 
ENDBRANCH  23  25
ENDBRANCH   5  21
BRANCH   4  28
ATOM     28  N   UNL d   1      26.919 -14.411   0.693  0.00  0.00    -0.378 N 
ATOM     29  C   UNL d   1      26.681 -15.813   0.611  0.00  0.00     0.127 C 
ATOM     30  C   UNL d   1      26.337 -16.457  -1.292  0.00  0.00     0.055 C 
ATOM     31  C   UNL d   1      25.015 -16.924  -1.287  0.00  0.00    -0.063 C 
ATOM     32  C   UNL d   1      24.404 -17.822  -2.283  0.00  0.00     0.004 C 
ATOM     33  C   UNL d   1      24.529 -16.074  -0.221  0.00  0.00     0.034 C 
ATOM     34  C   UNL d   1      23.289 -18.557  -2.006  0.00  0.00     0.000 C 
ATOM     35  C   UNL d   1      23.058 -18.532  -0.693  0.00  0.00    -0.003 C 
ATOM     36  C   UNL d   1      23.922 -17.495   0.148  0.00  0.00    -0.009 C 
ATOM     37  C   UNL d   1      26.260 -14.785  -0.452  0.00  0.00     0.142 C 
ENDBRANCH   4  28
TORSDOF 6
ENDMDL
MODEL 9
REMARK VINA RESULT:    -8.544      7.360      9.618
REMARK INTER + INTRA:         -11.675
REMARK INTER:                 -10.334
REMARK INTRA:                  -1.341
REMARK CONF_INDEPENDENT:        1.790
REMARK UNBOUND:                -1.341
REMARK  6 active torsions:
REMARK  status: ('A' for Active; 'I' for Inactive)
REMARK    1  A    between atoms: C_2  and  C_3 
REMARK    2  A    between atoms: C_7  and  N_8 
REMARK       I    between atoms: N_8  and  C_9 
REMARK       I    between atoms: C_9  and  N_11 
REMARK    3  A    between atoms: N_11  and  C_12 
REMARK    4  A    between atoms: C_15  and  N_16 
REMARK    5  A    between atoms: C_26  and  C_27 
REMARK       I    between atoms: C_27  and  N_29 
REMARK    6  A    between atoms: N_29  and  C_30 
ROOT
ATOM      1  C   UNL d   1      29.534 -13.780   4.103  0.00  0.00     0.037 A 
ATOM      2  C   UNL d   1      28.174 -13.481   4.142  0.00  0.00     0.032 A 
ATOM      3  C   UNL d   1      27.360 -13.718   2.989  0.00  0.00     0.032 A 
ATOM      4  C   UNL d   1      27.893 -14.132   1.735  0.00  0.00     0.046 A 
ATOM      5  C   UNL d   1      29.314 -14.411   1.754  0.00  0.00     0.060 A 
ATOM      6  C   UNL d   1      30.074 -14.237   2.904  0.00  0.00     0.049 A 
ENDROOT
BRANCH   1   7
ATOM      7  N   UNL d   1      30.398 -13.679   5.234  0.00  0.00    -0.309 N 
ATOM      8  C   UNL d   1      29.942 -14.116   6.464  0.00  0.00     0.325 C 
ATOM      9  N   UNL d   1      30.793 -13.982   7.550  0.00  0.00    -0.309 N 
ATOM     10  O   UNL d   1      28.827 -14.631   6.532  0.00  0.00    -0.247 OA
ATOM     11  H   UNL d   1      31.685 -13.522   7.443  0.00  0.00     0.170 HD
ATOM     12  H   UNL d   1      31.340 -13.354   5.089  0.00  0.00     0.170 HD
BRANCH   9  13
ATOM     13  C   UNL d   1      30.436 -14.422   8.869  0.00  0.00     0.036 C 
ATOM     14  C   UNL d   1      31.261 -15.267   9.615  0.00  0.00     0.029 C 
ATOM     15  C   UNL d   1      30.914 -15.609  10.940  0.00  0.00     0.003 C 
ATOM     16  C   UNL d   1      29.705 -15.196  11.500  0.00  0.00     0.007 C 
ATOM     17  C   UNL d   1      28.910 -14.309  10.799  0.00  0.00    -0.056 C 
ATOM     18  C   UNL d   1      29.266 -13.978   9.494  0.00  0.00     0.036 C 
BRANCH  17  19
ATOM     19  C   UNL d   1      27.794 -13.536  11.449  0.00  0.00     0.034 C 
ATOM     20  C   UNL d   1      28.385 -12.339  12.188  0.00  0.00     0.010 C 
ENDBRANCH  17  19
ENDBRANCH   9  13
ENDBRANCH   1   7
BRANCH   5  21
ATOM     21  C   UNL d   1      30.042 -15.082   0.610  0.00  0.00     0.254 C 
ATOM     22  O   UNL d   1      30.347 -14.554  -0.439  0.00  0.00    -0.268 OA
ATOM     23  N   UNL d   1      30.406 -16.395   0.536  0.00  0.00    -0.352 N 
ATOM     24  H   UNL d   1      29.891 -17.067   1.070  0.00  0.00     0.163 HD
BRANCH  23  25
ATOM     25  C   UNL d   1      31.110 -16.810  -0.683  0.00  0.00     0.084 A 
ATOM     26  C   UNL d   1      31.225 -18.279  -1.153  0.00  0.00     0.027 A 
ATOM     27  C   UNL d   1      30.295 -17.349  -1.828  0.00  0.00     0.027 A 
ENDBRANCH  23  25
ENDBRANCH   5  21
BRANCH   4  28
ATOM     28  N   UNL d   1      27.174 -14.536   0.655  0.00  0.00    -0.378 N 
ATOM     29  C   UNL d   1      27.481 -13.896  -0.579  0.00  0.00     0.127 C 
ATOM     30  C   UNL d   1      25.899 -13.827  -1.862  0.00  0.00     0.055 C 
ATOM     31  C   UNL d   1      26.281 -14.612  -2.959  0.00  0.00    -0.063 C 
ATOM     32  C   UNL d   1      25.674 -14.589  -4.301  0.00  0.00     0.004 C 
ATOM     33  C   UNL d   1      27.185 -15.488  -2.245  0.00  0.00     0.034 C 
ATOM     34  C   UNL d   1      26.337 -15.044  -5.402  0.00  0.00     0.000 C 
ATOM     35  C   UNL d   1      27.624 -15.220  -5.102  0.00  0.00    -0.003 C 
ATOM     36  C   UNL d   1      27.999 -15.126  -3.559  0.00  0.00    -0.009 C 
ATOM     37  C   UNL d   1      26.308 -14.866  -0.359  0.00  0.00     0.142 C 
ENDBRANCH   4  28
TORSDOF 6
ENDMDL
