MODEL 1
REMARK VINA RESULT:   -27.540      0.000      0.000
REMARK INTER + INTRA:         -31.205
REMARK INTER:                 -29.927
REMARK INTRA:                  -1.278
REMARK CONF_INDEPENDENT:        2.386
REMARK UNBOUND:                -1.278
REMARK  8 active torsions:
REMARK  status: ('A' for Active; 'I' for Inactive)
REMARK    1  A    between atoms: C_2  and  O_3 
REMARK    2  A    between atoms: O_3  and  C_4 
REMARK    3  A    between atoms: C_7  and  C_8 
REMARK       I    between atoms: C_8  and  N_10 
REMARK    4  A    between atoms: N_10  and  C_11 
REMARK    5  A    between atoms: C_11  and  N_13 
REMARK    6  A    between atoms: N_13  and  C_14 
REMARK    7  A    between atoms: C_17  and  O_18 
REMARK    8  A    between atoms: C_19  and  C_20 
ROOT
ATOM      1  C   UNL d   1      24.489 -17.272  -0.242  0.00  0.00     0.035 A 
ATOM      2  C   UNL d   1      24.350 -16.056  -0.899  0.00  0.00     0.032 A 
ATOM      3  C   UNL d   1      23.063 -15.648  -1.340  0.00  0.00     0.040 A 
ATOM      4  C   UNL d   1      21.907 -16.472  -1.187  0.00  0.00     0.080 A 
ATOM      5  C   UNL d   1      22.002 -17.700  -0.542  0.00  0.00     0.052 A 
ATOM      6  C   UNL d   1      23.307 -18.011  -0.042  0.00  0.00     0.048 A 
ENDROOT
BRANCH   1   7
ATOM      7  N   UNL d   1      25.767 -17.784   0.229  0.00  0.00    -0.333 N 
ATOM      8  H   UNL d   1      25.716 -18.582   0.852  0.00  0.00     0.168 HD
BRANCH   7   9
ATOM      9  C   UNL d   1      26.982 -17.045   0.137  0.00  0.00     0.179 C 
ATOM     10  S   UNL d   1      27.809 -16.842  -1.327  0.00  0.00    -0.040 SA
BRANCH   9  11
ATOM     11  N   UNL d   1      27.417 -16.443   1.352  0.00  0.00    -0.299 N 
ATOM     12  C   UNL d   1      27.586 -15.037   1.536  0.00  0.00     0.257 C 
ATOM     13  O   UNL d   1      27.445 -14.212   0.650  0.00  0.00    -0.267 OA
ATOM     14  H   UNL d   1      27.619 -17.044   2.133  0.00  0.00     0.171 HD
BRANCH  12  15
ATOM     15  C   UNL d   1      28.021 -14.437   2.840  0.00  0.00     0.032 A 
ATOM     16  C   UNL d   1      29.417 -14.271   3.033  0.00  0.00     0.020 A 
ATOM     17  C   UNL d   1      29.949 -13.845   4.256  0.00  0.00     0.038 A 
ATOM     18  C   UNL d   1      29.092 -13.502   5.293  0.00  0.00     0.068 A 
ATOM     19  C   UNL d   1      27.710 -13.603   5.094  0.00  0.00     0.038 A 
ATOM     20  C   UNL d   1      27.174 -14.072   3.879  0.00  0.00     0.020 A 
BRANCH  18  21
ATOM     21  O   UNL d   1      29.682 -12.981   6.414  0.00  0.00    -0.352 OA
BRANCH  21  22
ATOM     22  C   UNL d   1      30.094 -13.929   7.400  0.00  0.00     0.171 C 
ATOM     23  C   UNL d   1      29.298 -13.688   8.672  0.00  0.00     0.034 C 
ENDBRANCH  21  22
ENDBRANCH  18  21
ENDBRANCH  12  15
ENDBRANCH   9  11
ENDBRANCH   7   9
ENDBRANCH   1   7
BRANCH   5  24
ATOM     24  C   UNL d   1      20.956 -18.686  -0.122  0.00  0.00     0.183 A 
ATOM     25  N   UNL d   1      19.905 -18.868  -0.895  0.00  0.00    -0.221 NA
ATOM     26  C   UNL d   1      19.162 -19.812  -0.295  0.00  0.00     0.093 A 
ATOM     27  C   UNL d   1      18.046 -20.451  -0.832  0.00  0.00     0.034 A 
ATOM     28  C   UNL d   1      19.652 -20.130   0.960  0.00  0.00     0.106 A 
ATOM     29  C   UNL d   1      17.355 -21.377  -0.063  0.00  0.00     0.002 A 
ATOM     30  C   UNL d   1      17.776 -21.637   1.242  0.00  0.00     0.003 A 
ATOM     31  C   UNL d   1      18.934 -21.012   1.800  0.00  0.00     0.040 A 
ATOM     32  O   UNL d   1      20.882 -19.425   1.076  0.00  0.00    -0.289 OA
ENDBRANCH   5  24
BRANCH   4  33
ATOM     33  O   UNL d   1      20.702 -16.017  -1.645  0.00  0.00    -0.360 OA
ATOM     34  H   UNL d   1      20.077 -16.762  -1.705  0.00  0.00     0.217 HD
ENDBRANCH   4  33
TORSDOF 8
ENDMDL
MODEL 2
REMARK VINA RESULT:   -27.142      1.896      2.345
REMARK INTER + INTRA:         -30.602
REMARK INTER:                 -29.528
REMARK INTRA:                  -1.074
REMARK CONF_INDEPENDENT:        2.386
REMARK UNBOUND:                -1.074
REMARK  8 active torsions:
REMARK  status: ('A' for Active; 'I' for Inactive)
REMARK    1  A    between atoms: C_2  and  O_3 
REMARK    2  A    between atoms: O_3  and  C_4 
REMARK    3  A    between atoms: C_7  and  C_8 
REMARK       I    between atoms: C_8  and  N_10 
REMARK    4  A    between atoms: N_10  and  C_11 
REMARK    5  A    between atoms: C_11  and  N_13 
REMARK    6  A    between atoms: N_13  and  C_14 
REMARK    7  A    between atoms: C_17  and  O_18 
REMARK    8  A    between atoms: C_19  and  C_20 
ROOT
ATOM      1  C   UNL d   1      24.536 -17.692  -0.456  0.00  0.00     0.035 A 
ATOM      2  C   UNL d   1      24.412 -16.445  -1.055  0.00  0.00     0.032 A 
ATOM      3  C   UNL d   1      23.118 -15.958  -1.382  0.00  0.00     0.040 A 
ATOM      4  C   UNL d   1      21.936 -16.731  -1.175  0.00  0.00     0.080 A 
ATOM      5  C   UNL d   1      22.015 -17.988  -0.585  0.00  0.00     0.052 A 
ATOM      6  C   UNL d   1      23.336 -18.382  -0.196  0.00  0.00     0.048 A 
ENDROOT
BRANCH   1   7
ATOM      7  N   UNL d   1      25.817 -18.284  -0.100  0.00  0.00    -0.333 N 
ATOM      8  H   UNL d   1      25.774 -19.221   0.283  0.00  0.00     0.168 HD
BRANCH   7   9
ATOM      9  C   UNL d   1      27.011 -17.521   0.047  0.00  0.00     0.179 C 
ATOM     10  S   UNL d   1      28.519 -18.087  -0.478  0.00  0.00    -0.040 SA
BRANCH   9  11
ATOM     11  N   UNL d   1      26.835 -16.226   0.614  0.00  0.00    -0.299 N 
ATOM     12  C   UNL d   1      27.900 -15.310   0.871  0.00  0.00     0.257 C 
ATOM     13  O   UNL d   1      29.078 -15.569   0.700  0.00  0.00    -0.267 OA
ATOM     14  H   UNL d   1      25.901 -15.935   0.849  0.00  0.00     0.171 HD
BRANCH  12  15
ATOM     15  C   UNL d   1      27.672 -13.943   1.446  0.00  0.00     0.032 A 
ATOM     16  C   UNL d   1      27.731 -13.826   2.858  0.00  0.00     0.020 A 
ATOM     17  C   UNL d   1      27.407 -12.633   3.515  0.00  0.00     0.038 A 
ATOM     18  C   UNL d   1      27.087 -11.506   2.770  0.00  0.00     0.068 A 
ATOM     19  C   UNL d   1      27.085 -11.593   1.373  0.00  0.00     0.038 A 
ATOM     20  C   UNL d   1      27.369 -12.803   0.711  0.00  0.00     0.020 A 
BRANCH  18  21
ATOM     21  O   UNL d   1      26.901 -10.349   3.480  0.00  0.00    -0.352 OA
BRANCH  21  22
ATOM     22  C   UNL d   1      27.994  -9.430   3.473  0.00  0.00     0.171 C 
ATOM     23  C   UNL d   1      28.219  -8.927   4.889  0.00  0.00     0.034 C 
ENDBRANCH  21  22
ENDBRANCH  18  21
ENDBRANCH  12  15
ENDBRANCH   9  11
ENDBRANCH   7   9
ENDBRANCH   1   7
BRANCH   5  24
ATOM     24  C   UNL d   1      20.954 -18.939  -0.126  0.00  0.00     0.183 A 
ATOM     25  N   UNL d   1      19.903 -19.142  -0.895  0.00  0.00    -0.221 NA
ATOM     26  C   UNL d   1      19.145 -20.048  -0.256  0.00  0.00     0.093 A 
ATOM     27  C   UNL d   1      18.022 -20.695  -0.769  0.00  0.00     0.034 A 
ATOM     28  C   UNL d   1      19.625 -20.314   1.014  0.00  0.00     0.106 A 
ATOM     29  C   UNL d   1      17.315 -21.575   0.038  0.00  0.00     0.002 A 
ATOM     30  C   UNL d   1      17.727 -21.781   1.355  0.00  0.00     0.003 A 
ATOM     31  C   UNL d   1      18.891 -21.147   1.890  0.00  0.00     0.040 A 
ATOM     32  O   UNL d   1      20.864 -19.622   1.104  0.00  0.00    -0.289 OA
ENDBRANCH   5  24
BRANCH   4  33
ATOM     33  O   UNL d   1      20.725 -16.202  -1.525  0.00  0.00    -0.360 OA
ATOM     34  H   UNL d   1      20.048 -16.900  -1.504  0.00  0.00     0.217 HD
ENDBRANCH   4  33
TORSDOF 8
ENDMDL
