MODEL 1
REMARK VINA RESULT:   -30.240      0.000      0.000
REMARK INTER + INTRA:         -32.691
REMARK INTER:                 -31.732
REMARK INTRA:                  -0.960
REMARK CONF_INDEPENDENT:        1.492
REMARK UNBOUND:                -0.960
REMARK  5 active torsions:
REMARK  status: ('A' for Active; 'I' for Inactive)
REMARK    1  A    between atoms: O_2  and  C_3 
REMARK    2  A    between atoms: C_9  and  N_10 
REMARK    3  A    between atoms: C_11  and  N_10 
REMARK    4  A    between atoms: C_11  and  C_13 
REMARK       I    between atoms: C_13  and  N_15 
REMARK    5  A    between atoms: N_15  and  C_16 
ROOT
ATOM      1  C   UNL d   1      24.510 -17.444  -1.358  0.00  0.00     0.170 C 
ATOM      2  C   UNL d   1      23.912 -16.018  -1.367  0.00  0.00     0.042 C 
ENDROOT
BRANCH   1   3
ATOM      3  C   UNL d   1      23.329 -18.308  -0.809  0.00  0.00     0.245 C 
ATOM      4  O   UNL d   1      23.558 -19.392  -0.270  0.00  0.00    -0.271 OA
ATOM      5  N   UNL d   1      22.035 -17.811  -0.899  0.00  0.00    -0.310 N 
ATOM      6  H   UNL d   1      21.799 -17.172  -1.643  0.00  0.00     0.170 HD
BRANCH   5   7
ATOM      7  C   UNL d   1      20.981 -18.607  -0.392  0.00  0.00     0.129 A 
ATOM      8  C   UNL d   1      21.105 -19.179   0.876  0.00  0.00     0.052 A 
ATOM      9  C   UNL d   1      20.158 -20.093   1.331  0.00  0.00     0.029 A 
ATOM     10  C   UNL d   1      19.096 -20.408   0.505  0.00  0.00     0.051 A 
ATOM     11 CL   UNL d   1      17.935 -21.573   0.997  0.00  0.00    -0.083 Cl
ATOM     12  C   UNL d   1      19.005 -19.752  -0.719  0.00  0.00     0.142 A 
ATOM     13  N   UNL d   1      19.905 -18.828  -1.176  0.00  0.00    -0.242 NA
ENDBRANCH   5   7
ENDBRANCH   1   3
BRANCH   1  14
ATOM     14  N   UNL d   1      25.747 -17.569  -0.545  0.00  0.00    -0.375 N 
ATOM     15  H   UNL d   1      26.042 -18.499  -0.258  0.00  0.00     0.160 HD
BRANCH  14  16
ATOM     16  C   UNL d   1      26.640 -16.557  -0.185  0.00  0.00     0.064 C 
ATOM     17  C   UNL d   1      26.228 -15.287   0.231  0.00  0.00     0.056 C 
ATOM     18  C   UNL d   1      27.075 -14.352   0.818  0.00  0.00     0.036 C 
ATOM     19  C   UNL d   1      28.431 -14.582   0.841  0.00  0.00     0.026 C 
ATOM     20 CL   UNL d   1      26.406 -12.909   1.477  0.00  0.00    -0.084 Cl
ATOM     21  C   UNL d   1      28.915 -15.780   0.313  0.00  0.00     0.041 C 
ATOM     22  C   UNL d   1      28.036 -16.781  -0.154  0.00  0.00     0.094 C 
BRANCH  22  23
ATOM     23  O   UNL d   1      28.488 -17.961  -0.702  0.00  0.00    -0.354 OA
ATOM     24  C   UNL d   1      29.899 -18.036  -0.897  0.00  0.00     0.210 C 
ENDBRANCH  22  23
ENDBRANCH  14  16
ENDBRANCH   1  14
TORSDOF 5
ENDMDL
MODEL 2
REMARK VINA RESULT:   -30.187      2.024      2.579
REMARK INTER + INTRA:         -32.503
REMARK INTER:                 -31.678
REMARK INTRA:                  -0.825
REMARK CONF_INDEPENDENT:        1.492
REMARK UNBOUND:                -0.825
REMARK  5 active torsions:
REMARK  status: ('A' for Active; 'I' for Inactive)
REMARK    1  A    between atoms: O_2  and  C_3 
REMARK    2  A    between atoms: C_9  and  N_10 
REMARK    3  A    between atoms: C_11  and  N_10 
REMARK    4  A    between atoms: C_11  and  C_13 
REMARK       I    between atoms: C_13  and  N_15 
REMARK    5  A    between atoms: N_15  and  C_16 
ROOT
ATOM      1  C   UNL d   1      24.111 -17.363  -1.506  0.00  0.00     0.170 C 
ATOM      2  C   UNL d   1      23.541 -15.956  -1.215  0.00  0.00     0.042 C 
ENDROOT
BRANCH   1   3
ATOM      3  C   UNL d   1      23.035 -18.307  -0.879  0.00  0.00     0.245 C 
ATOM      4  O   UNL d   1      23.378 -19.358  -0.336  0.00  0.00    -0.271 OA
ATOM      5  N   UNL d   1      21.702 -17.915  -0.905  0.00  0.00    -0.310 N 
ATOM      6  H   UNL d   1      21.375 -17.312  -1.645  0.00  0.00     0.170 HD
BRANCH   5   7
ATOM      7  C   UNL d   1      20.744 -18.781  -0.328  0.00  0.00     0.129 A 
ATOM      8  C   UNL d   1      20.979 -19.313   0.942  0.00  0.00     0.052 A 
ATOM      9  C   UNL d   1      20.135 -20.290   1.463  0.00  0.00     0.029 A 
ATOM     10  C   UNL d   1      19.060 -20.708   0.701  0.00  0.00     0.051 A 
ATOM     11 CL   UNL d   1      18.025 -21.950   1.276  0.00  0.00    -0.083 Cl
ATOM     12  C   UNL d   1      18.853 -20.089  -0.528  0.00  0.00     0.142 A 
ATOM     13  N   UNL d   1      19.650 -19.106  -1.049  0.00  0.00    -0.242 NA
ENDBRANCH   5   7
ENDBRANCH   1   3
BRANCH   1  14
ATOM     14  N   UNL d   1      25.470 -17.584  -0.950  0.00  0.00    -0.375 N 
ATOM     15  H   UNL d   1      25.602 -18.346  -0.288  0.00  0.00     0.160 HD
BRANCH  14  16
ATOM     16  C   UNL d   1      26.653 -16.923  -1.291  0.00  0.00     0.064 C 
ATOM     17  C   UNL d   1      27.843 -17.068  -0.572  0.00  0.00     0.056 C 
ATOM     18  C   UNL d   1      29.081 -16.618  -1.022  0.00  0.00     0.036 C 
ATOM     19  C   UNL d   1      29.148 -15.824  -2.144  0.00  0.00     0.026 C 
ATOM     20 CL   UNL d   1      30.500 -17.042  -0.145  0.00  0.00    -0.084 Cl
ATOM     21  C   UNL d   1      27.967 -15.531  -2.828  0.00  0.00     0.041 C 
ATOM     22  C   UNL d   1      26.737 -16.106  -2.442  0.00  0.00     0.094 C 
BRANCH  22  23
ATOM     23  O   UNL d   1      25.554 -15.815  -3.085  0.00  0.00    -0.354 OA
ATOM     24  C   UNL d   1      25.429 -14.469  -3.541  0.00  0.00     0.210 C 
ENDBRANCH  22  23
ENDBRANCH  14  16
ENDBRANCH   1  14
TORSDOF 5
ENDMDL
MODEL 3
REMARK VINA RESULT:   -30.156      1.892      2.534
REMARK INTER + INTRA:         -32.553
REMARK INTER:                 -31.647
REMARK INTRA:                  -0.906
REMARK CONF_INDEPENDENT:        1.492
REMARK UNBOUND:                -0.906
REMARK  5 active torsions:
REMARK  status: ('A' for Active; 'I' for Inactive)
REMARK    1  A    between atoms: O_2  and  C_3 
REMARK    2  A    between atoms: C_9  and  N_10 
REMARK    3  A    between atoms: C_11  and  N_10 
REMARK    4  A    between atoms: C_11  and  C_13 
REMARK       I    between atoms: C_13  and  N_15 
REMARK    5  A    between atoms: N_15  and  C_16 
ROOT
ATOM      1  C   UNL d   1      24.568 -17.574  -1.102  0.00  0.00     0.170 C 
ATOM      2  C   UNL d   1      23.946 -16.188  -1.389  0.00  0.00     0.042 C 
ENDROOT
BRANCH   1   3
ATOM      3  C   UNL d   1      23.331 -18.421  -0.659  0.00  0.00     0.245 C 
ATOM      4  O   UNL d   1      23.495 -19.530  -0.150  0.00  0.00    -0.271 OA
ATOM      5  N   UNL d   1      22.060 -17.880  -0.807  0.00  0.00    -0.310 N 
ATOM      6  H   UNL d   1      21.888 -17.207  -1.538  0.00  0.00     0.170 HD
BRANCH   5   7
ATOM      7  C   UNL d   1      20.954 -18.661  -0.396  0.00  0.00     0.129 A 
ATOM      8  C   UNL d   1      21.002 -19.319   0.836  0.00  0.00     0.052 A 
ATOM      9  C   UNL d   1      20.000 -20.218   1.191  0.00  0.00     0.029 A 
ATOM     10  C   UNL d   1      18.961 -20.433   0.305  0.00  0.00     0.051 A 
ATOM     11 CL   UNL d   1      17.735 -21.575   0.674  0.00  0.00    -0.083 Cl
ATOM     12  C   UNL d   1      18.949 -19.696  -0.875  0.00  0.00     0.142 A 
ATOM     13  N   UNL d   1      19.904 -18.784  -1.234  0.00  0.00    -0.242 NA
ENDBRANCH   5   7
ENDBRANCH   1   3
BRANCH   1  14
ATOM     14  N   UNL d   1      25.647 -17.546  -0.082  0.00  0.00    -0.375 N 
ATOM     15  H   UNL d   1      25.490 -18.032   0.799  0.00  0.00     0.160 HD
BRANCH  14  16
ATOM     16  C   UNL d   1      26.927 -17.002  -0.205  0.00  0.00     0.064 C 
ATOM     17  C   UNL d   1      28.066 -17.777  -0.448  0.00  0.00     0.056 C 
ATOM     18  C   UNL d   1      29.301 -17.247  -0.810  0.00  0.00     0.036 C 
ATOM     19  C   UNL d   1      29.499 -15.886  -0.757  0.00  0.00     0.026 C 
ATOM     20 CL   UNL d   1      30.565 -18.312  -1.287  0.00  0.00    -0.084 Cl
ATOM     21  C   UNL d   1      28.430 -15.069  -0.385  0.00  0.00     0.041 C 
ATOM     22  C   UNL d   1      27.145 -15.606  -0.155  0.00  0.00     0.094 C 
BRANCH  22  23
ATOM     23  O   UNL d   1      26.080 -14.825   0.237  0.00  0.00    -0.354 OA
ATOM     24  C   UNL d   1      26.428 -13.645   0.958  0.00  0.00     0.210 C 
ENDBRANCH  22  23
ENDBRANCH  14  16
ENDBRANCH   1  14
TORSDOF 5
ENDMDL
MODEL 4
REMARK VINA RESULT:   -29.905      1.486      1.665
REMARK INTER + INTRA:         -32.852
REMARK INTER:                 -31.397
REMARK INTRA:                  -1.456
REMARK CONF_INDEPENDENT:        1.492
REMARK UNBOUND:                -1.456
REMARK  5 active torsions:
REMARK  status: ('A' for Active; 'I' for Inactive)
REMARK    1  A    between atoms: O_2  and  C_3 
REMARK    2  A    between atoms: C_9  and  N_10 
REMARK    3  A    between atoms: C_11  and  N_10 
REMARK    4  A    between atoms: C_11  and  C_13 
REMARK       I    between atoms: C_13  and  N_15 
REMARK    5  A    between atoms: N_15  and  C_16 
ROOT
ATOM      1  C   UNL d   1      23.976 -17.498  -1.652  0.00  0.00     0.170 C 
ATOM      2  C   UNL d   1      23.481 -16.084  -1.271  0.00  0.00     0.042 C 
ENDROOT
BRANCH   1   3
ATOM      3  C   UNL d   1      22.893 -18.426  -1.013  0.00  0.00     0.245 C 
ATOM      4  O   UNL d   1      23.212 -19.529  -0.568  0.00  0.00    -0.271 OA
ATOM      5  N   UNL d   1      21.586 -17.963  -0.916  0.00  0.00    -0.310 N 
ATOM      6  H   UNL d   1      21.245 -17.293  -1.587  0.00  0.00     0.170 HD
BRANCH   5   7
ATOM      7  C   UNL d   1      20.622 -18.817  -0.330  0.00  0.00     0.129 A 
ATOM      8  C   UNL d   1      20.844 -19.320   0.955  0.00  0.00     0.052 A 
ATOM      9  C   UNL d   1      19.994 -20.285   1.488  0.00  0.00     0.029 A 
ATOM     10  C   UNL d   1      18.927 -20.720   0.724  0.00  0.00     0.051 A 
ATOM     11 CL   UNL d   1      17.886 -21.949   1.315  0.00  0.00    -0.083 Cl
ATOM     12  C   UNL d   1      18.733 -20.129  -0.521  0.00  0.00     0.142 A 
ATOM     13  N   UNL d   1      19.536 -19.157  -1.055  0.00  0.00    -0.242 NA
ENDBRANCH   5   7
ENDBRANCH   1   3
BRANCH   1  14
ATOM     14  N   UNL d   1      25.351 -17.799  -1.177  0.00  0.00    -0.375 N 
ATOM     15  H   UNL d   1      25.542 -18.731  -0.815  0.00  0.00     0.160 HD
BRANCH  14  16
ATOM     16  C   UNL d   1      26.479 -16.978  -1.244  0.00  0.00     0.064 C 
ATOM     17  C   UNL d   1      26.543 -15.832  -2.044  0.00  0.00     0.056 C 
ATOM     18  C   UNL d   1      27.550 -14.876  -1.949  0.00  0.00     0.036 C 
ATOM     19  C   UNL d   1      28.654 -15.127  -1.168  0.00  0.00     0.026 C 
ATOM     20 CL   UNL d   1      27.403 -13.410  -2.838  0.00  0.00    -0.084 Cl
ATOM     21  C   UNL d   1      28.708 -16.324  -0.451  0.00  0.00     0.041 C 
ATOM     22  C   UNL d   1      27.619 -17.222  -0.445  0.00  0.00     0.094 C 
BRANCH  22  23
ATOM     23  O   UNL d   1      27.657 -18.420   0.234  0.00  0.00    -0.354 OA
ATOM     24  C   UNL d   1      26.659 -18.575   1.242  0.00  0.00     0.210 C 
ENDBRANCH  22  23
ENDBRANCH  14  16
ENDBRANCH   1  14
TORSDOF 5
ENDMDL
MODEL 5
REMARK VINA RESULT:   -29.788      2.107      2.454
REMARK INTER + INTRA:         -32.028
REMARK INTER:                 -31.279
REMARK INTRA:                  -0.749
REMARK CONF_INDEPENDENT:        1.492
REMARK UNBOUND:                -0.749
REMARK  5 active torsions:
REMARK  status: ('A' for Active; 'I' for Inactive)
REMARK    1  A    between atoms: O_2  and  C_3 
REMARK    2  A    between atoms: C_9  and  N_10 
REMARK    3  A    between atoms: C_11  and  N_10 
REMARK    4  A    between atoms: C_11  and  C_13 
REMARK       I    between atoms: C_13  and  N_15 
REMARK    5  A    between atoms: N_15  and  C_16 
ROOT
ATOM      1  C   UNL d   1      24.545 -17.621  -0.456  0.00  0.00     0.170 C 
ATOM      2  C   UNL d   1      25.620 -18.459   0.274  0.00  0.00     0.042 C 
ENDROOT
BRANCH   1   3
ATOM      3  C   UNL d   1      23.255 -18.483  -0.272  0.00  0.00     0.245 C 
ATOM      4  O   UNL d   1      23.342 -19.705  -0.145  0.00  0.00    -0.271 OA
ATOM      5  N   UNL d   1      22.024 -17.842  -0.208  0.00  0.00    -0.310 N 
ATOM      6  H   UNL d   1      21.896 -16.961  -0.683  0.00  0.00     0.170 HD
BRANCH   5   7
ATOM      7  C   UNL d   1      20.868 -18.640  -0.037  0.00  0.00     0.129 A 
ATOM      8  C   UNL d   1      20.779 -19.488   1.070  0.00  0.00     0.052 A 
ATOM      9  C   UNL d   1      19.731 -20.397   1.176  0.00  0.00     0.029 A 
ATOM     10  C   UNL d   1      18.782 -20.431   0.171  0.00  0.00     0.051 A 
ATOM     11 CL   UNL d   1      17.504 -21.575   0.230  0.00  0.00    -0.083 Cl
ATOM     12  C   UNL d   1      18.901 -19.515  -0.869  0.00  0.00     0.142 A 
ATOM     13  N   UNL d   1      19.905 -18.591  -0.981  0.00  0.00    -0.242 NA
ENDBRANCH   5   7
ENDBRANCH   1   3
BRANCH   1  14
ATOM     14  N   UNL d   1      24.864 -17.350  -1.881  0.00  0.00    -0.375 N 
ATOM     15  H   UNL d   1      24.391 -17.902  -2.594  0.00  0.00     0.160 HD
BRANCH  14  16
ATOM     16  C   UNL d   1      25.684 -16.345  -2.399  0.00  0.00     0.064 C 
ATOM     17  C   UNL d   1      25.214 -15.339  -3.250  0.00  0.00     0.056 C 
ATOM     18  C   UNL d   1      25.945 -14.203  -3.583  0.00  0.00     0.036 C 
ATOM     19  C   UNL d   1      27.270 -14.116  -3.224  0.00  0.00     0.026 C 
ATOM     20 CL   UNL d   1      25.179 -12.940  -4.467  0.00  0.00    -0.084 Cl
ATOM     21  C   UNL d   1      27.833 -15.161  -2.487  0.00  0.00     0.041 C 
ATOM     22  C   UNL d   1      27.047 -16.242  -2.036  0.00  0.00     0.094 C 
BRANCH  22  23
ATOM     23  O   UNL d   1      27.582 -17.297  -1.328  0.00  0.00    -0.354 OA
ATOM     24  C   UNL d   1      28.341 -16.930  -0.178  0.00  0.00     0.210 C 
ENDBRANCH  22  23
ENDBRANCH  14  16
ENDBRANCH   1  14
TORSDOF 5
ENDMDL
