MODEL 1
REMARK VINA RESULT:    -9.320      0.000      0.000
REMARK INTER + INTRA:         -14.171
REMARK INTER:                 -12.303
REMARK INTRA:                  -1.868
REMARK CONF_INDEPENDENT:        2.983
REMARK UNBOUND:                -1.868
REMARK  10 active torsions:
REMARK  status: ('A' for Active; 'I' for Inactive)
REMARK    1  A    between atoms: C_2  and  C_3 
REMARK       I    between atoms: C_3  and  N_5 
REMARK    2  A    between atoms: N_5  and  C_6 
REMARK    3  A    between atoms: C_9  and  C_10 
REMARK       I    between atoms: C_10  and  N_12 
REMARK    4  A    between atoms: N_12  and  N_13 
REMARK    5  A    between atoms: N_13  and  C_14 
REMARK    6  A    between atoms: C_14  and  N_16 
REMARK       I    between atoms: N_16  and  C_17 
REMARK    7  A    between atoms: C_17  and  C_19 
REMARK    8  A    between atoms: C_23  and  O_24 
REMARK    9  A    between atoms: C_25  and  O_24 
REMARK   10  A    between atoms: C_25  and  C_27 
ROOT
ATOM      1  N   UNL d   1      28.308 -15.117  -0.474  0.00  0.00    -0.273 N 
ATOM      2  H   UNL d   1      28.255 -14.433  -1.225  0.00  0.00     0.189 HD
ENDROOT
BRANCH   1   3
ATOM      3  N   UNL d   1      27.121 -15.925  -0.281  0.00  0.00    -0.264 N 
ATOM      4  C   UNL d   1      26.168 -16.109  -1.278  0.00  0.00     0.270 C 
ATOM      5  O   UNL d   1      26.292 -15.608  -2.389  0.00  0.00    -0.266 OA
ATOM      6  H   UNL d   1      27.028 -16.298   0.660  0.00  0.00     0.190 HD
BRANCH   4   7
ATOM      7  C   UNL d   1      24.932 -16.938  -0.934  0.00  0.00     0.033 A 
ATOM      8  C   UNL d   1      23.662 -16.322  -0.954  0.00  0.00     0.019 A 
ATOM      9  C   UNL d   1      22.497 -17.000  -0.519  0.00  0.00     0.030 A 
ATOM     10  C   UNL d   1      22.574 -18.321  -0.077  0.00  0.00     0.034 A 
ATOM     11  C   UNL d   1      23.819 -18.956  -0.113  0.00  0.00     0.030 A 
ATOM     12  C   UNL d   1      24.980 -18.282  -0.543  0.00  0.00     0.019 A 
BRANCH  10  13
ATOM     13  N   UNL d   1      21.414 -19.000   0.387  0.00  0.00    -0.327 N 
ATOM     14  C   UNL d   1      20.488 -19.539  -0.500  0.00  0.00     0.221 C 
ATOM     15  O   UNL d   1      20.595 -19.463  -1.723  0.00  0.00    -0.273 OA
ATOM     16  H   UNL d   1      21.406 -19.325   1.346  0.00  0.00     0.169 HD
BRANCH  14  17
ATOM     17  C   UNL d   1      19.327 -20.296   0.140  0.00  0.00     0.098 C 
ATOM     18  C   UNL d   1      19.279 -20.008   1.641  0.00  0.00     0.014 C 
ENDBRANCH  14  17
ENDBRANCH  10  13
ENDBRANCH   4   7
ENDBRANCH   1   3
BRANCH   1  19
ATOM     19  C   UNL d   1      29.402 -15.336   0.379  0.00  0.00     0.193 C 
ATOM     20  S   UNL d   1      30.681 -16.310  -0.151  0.00  0.00    -0.039 SA
BRANCH  19  21
ATOM     21  N   UNL d   1      29.327 -14.703   1.637  0.00  0.00    -0.298 N 
ATOM     22  C   UNL d   1      28.133 -14.304   2.260  0.00  0.00     0.258 C 
ATOM     23  O   UNL d   1      27.012 -14.389   1.777  0.00  0.00    -0.267 OA
ATOM     24  H   UNL d   1      30.173 -14.601   2.175  0.00  0.00     0.171 HD
BRANCH  22  25
ATOM     25  C   UNL d   1      28.141 -13.783   3.647  0.00  0.00     0.035 A 
ATOM     26  C   UNL d   1      27.784 -12.423   3.728  0.00  0.00     0.017 A 
ATOM     27  C   UNL d   1      27.953 -11.736   4.898  0.00  0.00     0.004 A 
ATOM     28  C   UNL d   1      28.397 -12.427   6.004  0.00  0.00     0.037 A 
ATOM     29  C   UNL d   1      28.802 -13.763   5.990  0.00  0.00     0.070 A 
ATOM     30  C   UNL d   1      28.671 -14.454   4.769  0.00  0.00     0.053 A 
BRANCH  29  31
ATOM     31  O   UNL d   1      29.347 -14.447   7.044  0.00  0.00    -0.346 OA
BRANCH  31  32
ATOM     32  C   UNL d   1      29.761 -13.881   8.318  0.00  0.00     0.124 C 
ATOM     33  C   UNL d   1      30.648 -14.701   9.237  0.00  0.00     0.040 C 
BRANCH  32  34
ATOM     34  C   UNL d   1      28.530 -13.514   9.160  0.00  0.00     0.027 C 
ATOM     35  C   UNL d   1      28.718 -13.831  10.626  0.00  0.00     0.007 C 
ENDBRANCH  32  34
ENDBRANCH  31  32
ENDBRANCH  29  31
ENDBRANCH  22  25
ENDBRANCH  19  21
ENDBRANCH   1  19
TORSDOF 10
ENDMDL
MODEL 2
REMARK VINA RESULT:    -9.268      1.993      9.672
REMARK INTER + INTRA:         -13.721
REMARK INTER:                 -12.251
REMARK INTRA:                  -1.470
REMARK CONF_INDEPENDENT:        2.983
REMARK UNBOUND:                -1.470
REMARK  10 active torsions:
REMARK  status: ('A' for Active; 'I' for Inactive)
REMARK    1  A    between atoms: C_2  and  C_3 
REMARK       I    between atoms: C_3  and  N_5 
REMARK    2  A    between atoms: N_5  and  C_6 
REMARK    3  A    between atoms: C_9  and  C_10 
REMARK       I    between atoms: C_10  and  N_12 
REMARK    4  A    between atoms: N_12  and  N_13 
REMARK    5  A    between atoms: N_13  and  C_14 
REMARK    6  A    between atoms: C_14  and  N_16 
REMARK       I    between atoms: N_16  and  C_17 
REMARK    7  A    between atoms: C_17  and  C_19 
REMARK    8  A    between atoms: C_23  and  O_24 
REMARK    9  A    between atoms: C_25  and  O_24 
REMARK   10  A    between atoms: C_25  and  C_27 
ROOT
ATOM      1  N   UNL d   1      29.186 -15.196   0.026  0.00  0.00    -0.273 N 
ATOM      2  H   UNL d   1      29.546 -14.376  -0.457  0.00  0.00     0.189 HD
ENDROOT
BRANCH   1   3
ATOM      3  N   UNL d   1      29.045 -15.062   1.461  0.00  0.00    -0.264 N 
ATOM      4  C   UNL d   1      29.090 -13.831   2.109  0.00  0.00     0.270 C 
ATOM      5  O   UNL d   1      29.235 -12.783   1.492  0.00  0.00    -0.266 OA
ATOM      6  H   UNL d   1      28.961 -15.950   1.949  0.00  0.00     0.190 HD
BRANCH   4   7
ATOM      7  C   UNL d   1      28.985 -13.826   3.633  0.00  0.00     0.033 A 
ATOM      8  C   UNL d   1      29.742 -12.893   4.373  0.00  0.00     0.019 A 
ATOM      9  C   UNL d   1      29.788 -12.924   5.788  0.00  0.00     0.030 A 
ATOM     10  C   UNL d   1      29.057 -13.878   6.496  0.00  0.00     0.034 A 
ATOM     11  C   UNL d   1      28.258 -14.766   5.772  0.00  0.00     0.030 A 
ATOM     12  C   UNL d   1      28.212 -14.739   4.363  0.00  0.00     0.019 A 
BRANCH  10  13
ATOM     13  N   UNL d   1      29.119 -13.934   7.916  0.00  0.00    -0.327 N 
ATOM     14  C   UNL d   1      28.644 -12.890   8.703  0.00  0.00     0.221 C 
ATOM     15  O   UNL d   1      28.155 -11.860   8.242  0.00  0.00    -0.273 OA
ATOM     16  H   UNL d   1      29.256 -14.839   8.350  0.00  0.00     0.169 HD
BRANCH  14  17
ATOM     17  C   UNL d   1      28.716 -13.117  10.211  0.00  0.00     0.098 C 
ATOM     18  C   UNL d   1      28.087 -14.464  10.567  0.00  0.00     0.014 C 
ENDBRANCH  14  17
ENDBRANCH  10  13
ENDBRANCH   4   7
ENDBRANCH   1   3
BRANCH   1  19
ATOM     19  C   UNL d   1      28.830 -16.421  -0.561  0.00  0.00     0.193 C 
ATOM     20  S   UNL d   1      30.034 -17.572  -0.867  0.00  0.00    -0.039 SA
BRANCH  19  21
ATOM     21  N   UNL d   1      27.459 -16.580  -0.848  0.00  0.00    -0.298 N 
ATOM     22  C   UNL d   1      26.579 -17.392  -0.116  0.00  0.00     0.258 C 
ATOM     23  O   UNL d   1      26.888 -18.119   0.819  0.00  0.00    -0.267 OA
ATOM     24  H   UNL d   1      27.050 -16.009  -1.572  0.00  0.00     0.171 HD
BRANCH  22  25
ATOM     25  C   UNL d   1      25.124 -17.379  -0.397  0.00  0.00     0.035 A 
ATOM     26  C   UNL d   1      24.711 -16.244  -1.119  0.00  0.00     0.017 A 
ATOM     27  C   UNL d   1      23.380 -15.969  -1.270  0.00  0.00     0.004 A 
ATOM     28  C   UNL d   1      22.467 -16.873  -0.772  0.00  0.00     0.037 A 
ATOM     29  C   UNL d   1      22.800 -17.999  -0.018  0.00  0.00     0.070 A 
ATOM     30  C   UNL d   1      24.173 -18.250   0.175  0.00  0.00     0.053 A 
BRANCH  29  31
ATOM     31  O   UNL d   1      21.914 -18.856   0.580  0.00  0.00    -0.346 OA
BRANCH  31  32
ATOM     32  C   UNL d   1      20.901 -19.655  -0.091  0.00  0.00     0.124 C 
ATOM     33  C   UNL d   1      19.822 -18.956  -0.896  0.00  0.00     0.040 C 
BRANCH  32  34
ATOM     34  C   UNL d   1      20.151 -20.525   0.929  0.00  0.00     0.027 C 
ATOM     35  C   UNL d   1      18.981 -19.800   1.556  0.00  0.00     0.007 C 
ENDBRANCH  32  34
ENDBRANCH  31  32
ENDBRANCH  29  31
ENDBRANCH  22  25
ENDBRANCH  19  21
ENDBRANCH   1  19
TORSDOF 10
ENDMDL
MODEL 3
REMARK VINA RESULT:    -9.026      5.948      9.638
REMARK INTER + INTRA:         -13.932
REMARK INTER:                 -12.009
REMARK INTRA:                  -1.922
REMARK CONF_INDEPENDENT:        2.983
REMARK UNBOUND:                -1.922
REMARK  10 active torsions:
REMARK  status: ('A' for Active; 'I' for Inactive)
REMARK    1  A    between atoms: C_2  and  C_3 
REMARK       I    between atoms: C_3  and  N_5 
REMARK    2  A    between atoms: N_5  and  C_6 
REMARK    3  A    between atoms: C_9  and  C_10 
REMARK       I    between atoms: C_10  and  N_12 
REMARK    4  A    between atoms: N_12  and  N_13 
REMARK    5  A    between atoms: N_13  and  C_14 
REMARK    6  A    between atoms: C_14  and  N_16 
REMARK       I    between atoms: N_16  and  C_17 
REMARK    7  A    between atoms: C_17  and  C_19 
REMARK    8  A    between atoms: C_23  and  O_24 
REMARK    9  A    between atoms: C_25  and  O_24 
REMARK   10  A    between atoms: C_25  and  C_27 
ROOT
ATOM      1  N   UNL d   1      27.027 -15.117  -3.065  0.00  0.00    -0.273 N 
ATOM      2  H   UNL d   1      27.844 -15.143  -2.460  0.00  0.00     0.189 HD
ENDROOT
BRANCH   1   3
ATOM      3  N   UNL d   1      25.881 -15.869  -2.596  0.00  0.00    -0.264 N 
ATOM      4  C   UNL d   1      25.809 -16.408  -1.315  0.00  0.00     0.270 C 
ATOM      5  O   UNL d   1      26.712 -16.259  -0.502  0.00  0.00    -0.266 OA
ATOM      6  H   UNL d   1      25.163 -16.005  -3.303  0.00  0.00     0.190 HD
BRANCH   4   7
ATOM      7  C   UNL d   1      24.571 -17.229  -0.959  0.00  0.00     0.033 A 
ATOM      8  C   UNL d   1      23.308 -16.602  -0.947  0.00  0.00     0.019 A 
ATOM      9  C   UNL d   1      22.144 -17.274  -0.499  0.00  0.00     0.030 A 
ATOM     10  C   UNL d   1      22.216 -18.600  -0.074  0.00  0.00     0.034 A 
ATOM     11  C   UNL d   1      23.454 -19.247  -0.141  0.00  0.00     0.030 A 
ATOM     12  C   UNL d   1      24.614 -18.579  -0.584  0.00  0.00     0.019 A 
BRANCH  10  13
ATOM     13  N   UNL d   1      21.059 -19.275   0.403  0.00  0.00    -0.327 N 
ATOM     14  C   UNL d   1      20.111 -19.793  -0.473  0.00  0.00     0.221 C 
ATOM     15  O   UNL d   1      20.196 -19.703  -1.697  0.00  0.00    -0.273 OA
ATOM     16  H   UNL d   1      21.065 -19.611   1.358  0.00  0.00     0.169 HD
BRANCH  14  17
ATOM     17  C   UNL d   1      18.955 -20.547   0.179  0.00  0.00     0.098 C 
ATOM     18  C   UNL d   1      18.997 -20.357   1.695  0.00  0.00     0.014 C 
ENDBRANCH  14  17
ENDBRANCH  10  13
ENDBRANCH   4   7
ENDBRANCH   1   3
BRANCH   1  19
ATOM     19  C   UNL d   1      26.916 -14.439  -4.290  0.00  0.00     0.193 C 
ATOM     20  S   UNL d   1      25.491 -13.595  -4.641  0.00  0.00    -0.039 SA
BRANCH  19  21
ATOM     21  N   UNL d   1      28.040 -14.530  -5.136  0.00  0.00    -0.298 N 
ATOM     22  C   UNL d   1      29.165 -15.332  -4.887  0.00  0.00     0.258 C 
ATOM     23  O   UNL d   1      29.355 -16.004  -3.882  0.00  0.00    -0.267 OA
ATOM     24  H   UNL d   1      28.009 -14.059  -6.028  0.00  0.00     0.171 HD
BRANCH  22  25
ATOM     25  C   UNL d   1      30.230 -15.479  -5.906  0.00  0.00     0.035 A 
ATOM     26  C   UNL d   1      30.735 -14.246  -6.361  0.00  0.00     0.017 A 
ATOM     27  C   UNL d   1      31.560 -14.198  -7.450  0.00  0.00     0.004 A 
ATOM     28  C   UNL d   1      31.946 -15.387  -8.029  0.00  0.00     0.037 A 
ATOM     29  C   UNL d   1      31.461 -16.642  -7.656  0.00  0.00     0.070 A 
ATOM     30  C   UNL d   1      30.572 -16.680  -6.563  0.00  0.00     0.053 A 
BRANCH  29  31
ATOM     31  O   UNL d   1      31.742 -17.829  -8.279  0.00  0.00    -0.346 OA
BRANCH  31  32
ATOM     32  C   UNL d   1      31.124 -19.116  -8.002  0.00  0.00     0.124 C 
ATOM     33  C   UNL d   1      31.435 -19.818  -6.694  0.00  0.00     0.040 C 
BRANCH  32  34
ATOM     34  C   UNL d   1      31.485 -20.125  -9.103  0.00  0.00     0.027 C 
ATOM     35  C   UNL d   1      30.525 -20.075 -10.269  0.00  0.00     0.007 C 
ENDBRANCH  32  34
ENDBRANCH  31  32
ENDBRANCH  29  31
ENDBRANCH  22  25
ENDBRANCH  19  21
ENDBRANCH   1  19
TORSDOF 10
ENDMDL
MODEL 4
REMARK VINA RESULT:    -8.982      5.469      7.781
REMARK INTER + INTRA:         -14.416
REMARK INTER:                 -11.965
REMARK INTRA:                  -2.450
REMARK CONF_INDEPENDENT:        2.983
REMARK UNBOUND:                -2.450
REMARK  10 active torsions:
REMARK  status: ('A' for Active; 'I' for Inactive)
REMARK    1  A    between atoms: C_2  and  C_3 
REMARK       I    between atoms: C_3  and  N_5 
REMARK    2  A    between atoms: N_5  and  C_6 
REMARK    3  A    between atoms: C_9  and  C_10 
REMARK       I    between atoms: C_10  and  N_12 
REMARK    4  A    between atoms: N_12  and  N_13 
REMARK    5  A    between atoms: N_13  and  C_14 
REMARK    6  A    between atoms: C_14  and  N_16 
REMARK       I    between atoms: N_16  and  C_17 
REMARK    7  A    between atoms: C_17  and  C_19 
REMARK    8  A    between atoms: C_23  and  O_24 
REMARK    9  A    between atoms: C_25  and  O_24 
REMARK   10  A    between atoms: C_25  and  C_27 
ROOT
ATOM      1  N   UNL d   1      29.860 -17.187  -0.169  0.00  0.00    -0.273 N 
ATOM      2  H   UNL d   1      30.229 -16.764   0.678  0.00  0.00     0.189 HD
ENDROOT
BRANCH   1   3
ATOM      3  N   UNL d   1      28.451 -17.520  -0.138  0.00  0.00    -0.264 N 
ATOM      4  C   UNL d   1      27.501 -16.834  -0.888  0.00  0.00     0.270 C 
ATOM      5  O   UNL d   1      27.810 -15.915  -1.636  0.00  0.00    -0.266 OA
ATOM      6  H   UNL d   1      28.220 -18.263   0.516  0.00  0.00     0.190 HD
BRANCH   4   7
ATOM      7  C   UNL d   1      26.037 -17.242  -0.726  0.00  0.00     0.033 A 
ATOM      8  C   UNL d   1      25.033 -16.471  -1.348  0.00  0.00     0.019 A 
ATOM      9  C   UNL d   1      23.656 -16.720  -1.128  0.00  0.00     0.030 A 
ATOM     10  C   UNL d   1      23.254 -17.767  -0.298  0.00  0.00     0.034 A 
ATOM     11  C   UNL d   1      24.243 -18.573   0.272  0.00  0.00     0.030 A 
ATOM     12  C   UNL d   1      25.614 -18.324   0.057  0.00  0.00     0.019 A 
BRANCH  10  13
ATOM     13  N   UNL d   1      21.875 -18.008  -0.050  0.00  0.00    -0.327 N 
ATOM     14  C   UNL d   1      21.113 -18.796  -0.906  0.00  0.00     0.221 C 
ATOM     15  O   UNL d   1      21.561 -19.324  -1.922  0.00  0.00    -0.273 OA
ATOM     16  H   UNL d   1      21.522 -17.833   0.883  0.00  0.00     0.169 HD
BRANCH  14  17
ATOM     17  C   UNL d   1      19.664 -19.021  -0.479  0.00  0.00     0.098 C 
ATOM     18  C   UNL d   1      19.499 -20.433   0.084  0.00  0.00     0.014 C 
ENDBRANCH  14  17
ENDBRANCH  10  13
ENDBRANCH   4   7
ENDBRANCH   1   3
BRANCH   1  19
ATOM     19  C   UNL d   1      30.581 -17.479  -1.339  0.00  0.00     0.193 C 
ATOM     20  S   UNL d   1      31.783 -18.670  -1.294  0.00  0.00    -0.039 SA
BRANCH  19  21
ATOM     21  N   UNL d   1      30.222 -16.726  -2.476  0.00  0.00    -0.298 N 
ATOM     22  C   UNL d   1      30.312 -17.186  -3.800  0.00  0.00     0.258 C 
ATOM     23  O   UNL d   1      30.772 -18.263  -4.152  0.00  0.00    -0.267 OA
ATOM     24  H   UNL d   1      29.787 -15.826  -2.339  0.00  0.00     0.171 HD
BRANCH  22  25
ATOM     25  C   UNL d   1      29.770 -16.381  -4.919  0.00  0.00     0.035 A 
ATOM     26  C   UNL d   1      30.666 -16.259  -5.998  0.00  0.00     0.017 A 
ATOM     27  C   UNL d   1      30.412 -15.375  -7.009  0.00  0.00     0.004 A 
ATOM     28  C   UNL d   1      29.224 -14.678  -6.983  0.00  0.00     0.037 A 
ATOM     29  C   UNL d   1      28.306 -14.720  -5.933  0.00  0.00     0.070 A 
ATOM     30  C   UNL d   1      28.597 -15.598  -4.869  0.00  0.00     0.053 A 
BRANCH  29  31
ATOM     31  O   UNL d   1      27.170 -13.961  -5.828  0.00  0.00    -0.346 OA
BRANCH  31  32
ATOM     32  C   UNL d   1      26.520 -13.548  -4.594  0.00  0.00     0.124 C 
ATOM     33  C   UNL d   1      27.373 -13.216  -3.384  0.00  0.00     0.040 C 
BRANCH  32  34
ATOM     34  C   UNL d   1      25.543 -14.635  -4.121  0.00  0.00     0.027 C 
ATOM     35  C   UNL d   1      24.420 -14.074  -3.278  0.00  0.00     0.007 C 
ENDBRANCH  32  34
ENDBRANCH  31  32
ENDBRANCH  29  31
ENDBRANCH  22  25
ENDBRANCH  19  21
ENDBRANCH   1  19
TORSDOF 10
ENDMDL
MODEL 5
REMARK VINA RESULT:    -8.798      3.157      5.046
REMARK INTER + INTRA:         -13.568
REMARK INTER:                 -11.781
REMARK INTRA:                  -1.787
REMARK CONF_INDEPENDENT:        2.983
REMARK UNBOUND:                -1.787
REMARK  10 active torsions:
REMARK  status: ('A' for Active; 'I' for Inactive)
REMARK    1  A    between atoms: C_2  and  C_3 
REMARK       I    between atoms: C_3  and  N_5 
REMARK    2  A    between atoms: N_5  and  C_6 
REMARK    3  A    between atoms: C_9  and  C_10 
REMARK       I    between atoms: C_10  and  N_12 
REMARK    4  A    between atoms: N_12  and  N_13 
REMARK    5  A    between atoms: N_13  and  C_14 
REMARK    6  A    between atoms: C_14  and  N_16 
REMARK       I    between atoms: N_16  and  C_17 
REMARK    7  A    between atoms: C_17  and  C_19 
REMARK    8  A    between atoms: C_23  and  O_24 
REMARK    9  A    between atoms: C_25  and  O_24 
REMARK   10  A    between atoms: C_25  and  C_27 
ROOT
ATOM      1  N   UNL d   1      27.554 -14.539  -1.560  0.00  0.00    -0.273 N 
ATOM      2  H   UNL d   1      28.457 -14.993  -1.677  0.00  0.00     0.189 HD
ENDROOT
BRANCH   1   3
ATOM      3  N   UNL d   1      26.497 -15.379  -1.036  0.00  0.00    -0.264 N 
ATOM      4  C   UNL d   1      25.505 -15.929  -1.843  0.00  0.00     0.270 C 
ATOM      5  O   UNL d   1      25.482 -15.745  -3.053  0.00  0.00    -0.266 OA
ATOM      6  H   UNL d   1      26.521 -15.486  -0.025  0.00  0.00     0.190 HD
BRANCH   4   7
ATOM      7  C   UNL d   1      24.411 -16.752  -1.163  0.00  0.00     0.033 A 
ATOM      8  C   UNL d   1      24.722 -18.036  -0.669  0.00  0.00     0.019 A 
ATOM      9  C   UNL d   1      23.725 -18.897  -0.148  0.00  0.00     0.030 A 
ATOM     10  C   UNL d   1      22.395 -18.480  -0.089  0.00  0.00     0.034 A 
ATOM     11  C   UNL d   1      22.091 -17.186  -0.520  0.00  0.00     0.030 A 
ATOM     12  C   UNL d   1      23.081 -16.328  -1.041  0.00  0.00     0.019 A 
BRANCH  10  13
ATOM     13  N   UNL d   1      21.384 -19.348   0.407  0.00  0.00    -0.327 N 
ATOM     14  C   UNL d   1      20.392 -19.855  -0.427  0.00  0.00     0.221 C 
ATOM     15  O   UNL d   1      20.313 -19.591  -1.626  0.00  0.00    -0.273 OA
ATOM     16  H   UNL d   1      21.544 -19.806   1.296  0.00  0.00     0.169 HD
BRANCH  14  17
ATOM     17  C   UNL d   1      19.412 -20.824   0.229  0.00  0.00     0.098 C 
ATOM     18  C   UNL d   1      18.781 -20.174   1.461  0.00  0.00     0.014 C 
ENDBRANCH  14  17
ENDBRANCH  10  13
ENDBRANCH   4   7
ENDBRANCH   1   3
BRANCH   1  19
ATOM     19  C   UNL d   1      27.246 -13.203  -1.863  0.00  0.00     0.193 C 
ATOM     20  S   UNL d   1      26.839 -12.788  -3.453  0.00  0.00    -0.039 SA
BRANCH  19  21
ATOM     21  N   UNL d   1      27.307 -12.306  -0.777  0.00  0.00    -0.298 N 
ATOM     22  C   UNL d   1      26.954 -12.627   0.544  0.00  0.00     0.258 C 
ATOM     23  O   UNL d   1      26.488 -13.694   0.920  0.00  0.00    -0.267 OA
ATOM     24  H   UNL d   1      27.712 -11.395  -0.928  0.00  0.00     0.171 HD
BRANCH  22  25
ATOM     25  C   UNL d   1      27.194 -11.666   1.646  0.00  0.00     0.035 A 
ATOM     26  C   UNL d   1      27.710 -12.274   2.807  0.00  0.00     0.017 A 
ATOM     27  C   UNL d   1      27.780 -11.572   3.979  0.00  0.00     0.004 A 
ATOM     28  C   UNL d   1      27.414 -10.244   3.967  0.00  0.00     0.037 A 
ATOM     29  C   UNL d   1      26.863  -9.586   2.867  0.00  0.00     0.070 A 
ATOM     30  C   UNL d   1      26.748 -10.328   1.675  0.00  0.00     0.053 A 
BRANCH  29  31
ATOM     31  O   UNL d   1      26.392  -8.299   2.855  0.00  0.00    -0.346 OA
BRANCH  31  32
ATOM     32  C   UNL d   1      26.280  -7.433   1.692  0.00  0.00     0.124 C 
ATOM     33  C   UNL d   1      25.938  -5.968   1.893  0.00  0.00     0.040 C 
BRANCH  32  34
ATOM     34  C   UNL d   1      25.213  -7.973   0.729  0.00  0.00     0.027 C 
ATOM     35  C   UNL d   1      25.642  -7.883  -0.718  0.00  0.00     0.007 C 
ENDBRANCH  32  34
ENDBRANCH  31  32
ENDBRANCH  29  31
ENDBRANCH  22  25
ENDBRANCH  19  21
ENDBRANCH   1  19
TORSDOF 10
ENDMDL
MODEL 6
REMARK VINA RESULT:    -8.767      4.526      7.627
REMARK INTER + INTRA:         -13.728
REMARK INTER:                 -11.750
REMARK INTRA:                  -1.979
REMARK CONF_INDEPENDENT:        2.983
REMARK UNBOUND:                -1.979
REMARK  10 active torsions:
REMARK  status: ('A' for Active; 'I' for Inactive)
REMARK    1  A    between atoms: C_2  and  C_3 
REMARK       I    between atoms: C_3  and  N_5 
REMARK    2  A    between atoms: N_5  and  C_6 
REMARK    3  A    between atoms: C_9  and  C_10 
REMARK       I    between atoms: C_10  and  N_12 
REMARK    4  A    between atoms: N_12  and  N_13 
REMARK    5  A    between atoms: N_13  and  C_14 
REMARK    6  A    between atoms: C_14  and  N_16 
REMARK       I    between atoms: N_16  and  C_17 
REMARK    7  A    between atoms: C_17  and  C_19 
REMARK    8  A    between atoms: C_23  and  O_24 
REMARK    9  A    between atoms: C_25  and  O_24 
REMARK   10  A    between atoms: C_25  and  C_27 
ROOT
ATOM      1  N   UNL d   1      29.210 -15.470   1.014  0.00  0.00    -0.273 N 
ATOM      2  H   UNL d   1      29.744 -15.820   1.805  0.00  0.00     0.189 HD
ENDROOT
BRANCH   1   3
ATOM      3  N   UNL d   1      27.864 -15.992   0.889  0.00  0.00    -0.264 N 
ATOM      4  C   UNL d   1      27.447 -16.738  -0.209  0.00  0.00     0.270 C 
ATOM      5  O   UNL d   1      28.207 -17.011  -1.129  0.00  0.00    -0.266 OA
ATOM      6  H   UNL d   1      27.247 -15.721   1.650  0.00  0.00     0.190 HD
BRANCH   4   7
ATOM      7  C   UNL d   1      25.987 -17.185  -0.251  0.00  0.00     0.033 A 
ATOM      8  C   UNL d   1      24.986 -16.242  -0.567  0.00  0.00     0.019 A 
ATOM      9  C   UNL d   1      23.608 -16.562  -0.494  0.00  0.00     0.030 A 
ATOM     10  C   UNL d   1      23.202 -17.844  -0.125  0.00  0.00     0.034 A 
ATOM     11  C   UNL d   1      24.189 -18.800   0.130  0.00  0.00     0.030 A 
ATOM     12  C   UNL d   1      25.561 -18.483   0.060  0.00  0.00     0.019 A 
BRANCH  10  13
ATOM     13  N   UNL d   1      21.821 -18.167  -0.022  0.00  0.00    -0.327 N 
ATOM     14  C   UNL d   1      21.176 -18.909  -1.007  0.00  0.00     0.221 C 
ATOM     15  O   UNL d   1      21.736 -19.325  -2.020  0.00  0.00    -0.273 OA
ATOM     16  H   UNL d   1      21.381 -18.092   0.887  0.00  0.00     0.169 HD
BRANCH  14  17
ATOM     17  C   UNL d   1      19.710 -19.235  -0.732  0.00  0.00     0.098 C 
ATOM     18  C   UNL d   1      19.554 -19.784   0.687  0.00  0.00     0.014 C 
ENDBRANCH  14  17
ENDBRANCH  10  13
ENDBRANCH   4   7
ENDBRANCH   1   3
BRANCH   1  19
ATOM     19  C   UNL d   1      29.654 -14.552   0.048  0.00  0.00     0.193 C 
ATOM     20  S   UNL d   1      30.958 -13.536   0.411  0.00  0.00    -0.039 SA
BRANCH  19  21
ATOM     21  N   UNL d   1      28.947 -14.568  -1.173  0.00  0.00    -0.298 N 
ATOM     22  C   UNL d   1      27.714 -13.932  -1.390  0.00  0.00     0.258 C 
ATOM     23  O   UNL d   1      27.056 -13.341  -0.544  0.00  0.00    -0.267 OA
ATOM     24  H   UNL d   1      29.387 -14.987  -1.977  0.00  0.00     0.171 HD
BRANCH  22  25
ATOM     25  C   UNL d   1      27.120 -13.876  -2.746  0.00  0.00     0.035 A 
ATOM     26  C   UNL d   1      25.825 -13.324  -2.759  0.00  0.00     0.017 A 
ATOM     27  C   UNL d   1      25.055 -13.400  -3.887  0.00  0.00     0.004 A 
ATOM     28  C   UNL d   1      25.610 -13.952  -5.020  0.00  0.00     0.037 A 
ATOM     29  C   UNL d   1      26.871 -14.548  -5.072  0.00  0.00     0.070 A 
ATOM     30  C   UNL d   1      27.641 -14.510  -3.893  0.00  0.00     0.053 A 
BRANCH  29  31
ATOM     31  O   UNL d   1      27.407 -15.198  -6.153  0.00  0.00    -0.346 OA
BRANCH  31  32
ATOM     32  C   UNL d   1      28.773 -15.084  -6.637  0.00  0.00     0.124 C 
ATOM     33  C   UNL d   1      29.898 -15.701  -5.829  0.00  0.00     0.040 C 
BRANCH  32  34
ATOM     34  C   UNL d   1      29.155 -13.605  -6.804  0.00  0.00     0.027 C 
ATOM     35  C   UNL d   1      30.379 -13.418  -7.671  0.00  0.00     0.007 C 
ENDBRANCH  32  34
ENDBRANCH  31  32
ENDBRANCH  29  31
ENDBRANCH  22  25
ENDBRANCH  19  21
ENDBRANCH   1  19
TORSDOF 10
ENDMDL
MODEL 7
REMARK VINA RESULT:    -8.734      1.725      2.115
REMARK INTER + INTRA:         -13.962
REMARK INTER:                 -11.717
REMARK INTRA:                  -2.245
REMARK CONF_INDEPENDENT:        2.983
REMARK UNBOUND:                -2.245
REMARK  10 active torsions:
REMARK  status: ('A' for Active; 'I' for Inactive)
REMARK    1  A    between atoms: C_2  and  C_3 
REMARK       I    between atoms: C_3  and  N_5 
REMARK    2  A    between atoms: N_5  and  C_6 
REMARK    3  A    between atoms: C_9  and  C_10 
REMARK       I    between atoms: C_10  and  N_12 
REMARK    4  A    between atoms: N_12  and  N_13 
REMARK    5  A    between atoms: N_13  and  C_14 
REMARK    6  A    between atoms: C_14  and  N_16 
REMARK       I    between atoms: N_16  and  C_17 
REMARK    7  A    between atoms: C_17  and  C_19 
REMARK    8  A    between atoms: C_23  and  O_24 
REMARK    9  A    between atoms: C_25  and  O_24 
REMARK   10  A    between atoms: C_25  and  C_27 
ROOT
ATOM      1  N   UNL d   1      27.713 -13.780  -0.916  0.00  0.00    -0.273 N 
ATOM      2  H   UNL d   1      28.339 -14.057  -1.669  0.00  0.00     0.189 HD
ENDROOT
BRANCH   1   3
ATOM      3  N   UNL d   1      26.665 -14.727  -0.596  0.00  0.00    -0.264 N 
ATOM      4  C   UNL d   1      26.290 -15.753  -1.459  0.00  0.00     0.270 C 
ATOM      5  O   UNL d   1      26.844 -15.923  -2.537  0.00  0.00    -0.266 OA
ATOM      6  H   UNL d   1      26.200 -14.540   0.289  0.00  0.00     0.190 HD
BRANCH   4   7
ATOM      7  C   UNL d   1      25.132 -16.652  -1.032  0.00  0.00     0.033 A 
ATOM      8  C   UNL d   1      23.807 -16.233  -1.276  0.00  0.00     0.019 A 
ATOM      9  C   UNL d   1      22.692 -16.958  -0.788  0.00  0.00     0.030 A 
ATOM     10  C   UNL d   1      22.879 -18.135  -0.064  0.00  0.00     0.034 A 
ATOM     11  C   UNL d   1      24.188 -18.589   0.128  0.00  0.00     0.030 A 
ATOM     12  C   UNL d   1      25.298 -17.867  -0.354  0.00  0.00     0.019 A 
BRANCH  10  13
ATOM     13  N   UNL d   1      21.768 -18.855   0.453  0.00  0.00    -0.327 N 
ATOM     14  C   UNL d   1      20.814 -19.416  -0.390  0.00  0.00     0.221 C 
ATOM     15  O   UNL d   1      20.854 -19.326  -1.616  0.00  0.00    -0.273 OA
ATOM     16  H   UNL d   1      21.819 -19.188   1.408  0.00  0.00     0.169 HD
BRANCH  14  17
ATOM     17  C   UNL d   1      19.712 -20.215   0.301  0.00  0.00     0.098 C 
ATOM     18  C   UNL d   1      19.210 -19.457   1.531  0.00  0.00     0.014 C 
ENDBRANCH  14  17
ENDBRANCH  10  13
ENDBRANCH   4   7
ENDBRANCH   1   3
BRANCH   1  19
ATOM     19  C   UNL d   1      27.770 -12.585  -0.181  0.00  0.00     0.193 C 
ATOM     20  S   UNL d   1      27.418 -11.121  -0.956  0.00  0.00    -0.039 SA
BRANCH  19  21
ATOM     21  N   UNL d   1      28.126 -12.724   1.176  0.00  0.00    -0.298 N 
ATOM     22  C   UNL d   1      27.246 -13.121   2.196  0.00  0.00     0.258 C 
ATOM     23  O   UNL d   1      26.048 -13.333   2.063  0.00  0.00    -0.267 OA
ATOM     24  H   UNL d   1      29.096 -12.619   1.432  0.00  0.00     0.171 HD
BRANCH  22  25
ATOM     25  C   UNL d   1      27.744 -13.386   3.565  0.00  0.00     0.035 A 
ATOM     26  C   UNL d   1      28.127 -14.726   3.765  0.00  0.00     0.017 A 
ATOM     27  C   UNL d   1      28.400 -15.185   5.024  0.00  0.00     0.004 A 
ATOM     28  C   UNL d   1      28.371 -14.286   6.067  0.00  0.00     0.037 A 
ATOM     29  C   UNL d   1      27.967 -12.955   5.951  0.00  0.00     0.070 A 
ATOM     30  C   UNL d   1      27.640 -12.500   4.658  0.00  0.00     0.053 A 
BRANCH  29  31
ATOM     31  O   UNL d   1      27.825 -12.067   6.985  0.00  0.00    -0.346 OA
BRANCH  31  32
ATOM     32  C   UNL d   1      28.851 -11.176   7.504  0.00  0.00     0.124 C 
ATOM     33  C   UNL d   1      30.026 -10.808   6.618  0.00  0.00     0.040 C 
BRANCH  32  34
ATOM     34  C   UNL d   1      29.470 -11.767   8.779  0.00  0.00     0.027 C 
ATOM     35  C   UNL d   1      28.559 -12.768   9.453  0.00  0.00     0.007 C 
ENDBRANCH  32  34
ENDBRANCH  31  32
ENDBRANCH  29  31
ENDBRANCH  22  25
ENDBRANCH  19  21
ENDBRANCH   1  19
TORSDOF 10
ENDMDL
MODEL 8
REMARK VINA RESULT:    -8.720      1.500      2.260
REMARK INTER + INTRA:         -13.916
REMARK INTER:                 -11.703
REMARK INTRA:                  -2.213
REMARK CONF_INDEPENDENT:        2.983
REMARK UNBOUND:                -2.213
REMARK  10 active torsions:
REMARK  status: ('A' for Active; 'I' for Inactive)
REMARK    1  A    between atoms: C_2  and  C_3 
REMARK       I    between atoms: C_3  and  N_5 
REMARK    2  A    between atoms: N_5  and  C_6 
REMARK    3  A    between atoms: C_9  and  C_10 
REMARK       I    between atoms: C_10  and  N_12 
REMARK    4  A    between atoms: N_12  and  N_13 
REMARK    5  A    between atoms: N_13  and  C_14 
REMARK    6  A    between atoms: C_14  and  N_16 
REMARK       I    between atoms: N_16  and  C_17 
REMARK    7  A    between atoms: C_17  and  C_19 
REMARK    8  A    between atoms: C_23  and  O_24 
REMARK    9  A    between atoms: C_25  and  O_24 
REMARK   10  A    between atoms: C_25  and  C_27 
ROOT
ATOM      1  N   UNL d   1      27.924 -15.456  -2.207  0.00  0.00    -0.273 N 
ATOM      2  H   UNL d   1      27.862 -15.333  -3.215  0.00  0.00     0.189 HD
ENDROOT
BRANCH   1   3
ATOM      3  N   UNL d   1      26.816 -16.158  -1.594  0.00  0.00    -0.264 N 
ATOM      4  C   UNL d   1      25.533 -16.151  -2.133  0.00  0.00     0.270 C 
ATOM      5  O   UNL d   1      25.273 -15.561  -3.173  0.00  0.00    -0.266 OA
ATOM      6  H   UNL d   1      27.053 -16.610  -0.715  0.00  0.00     0.190 HD
BRANCH   4   7
ATOM      7  C   UNL d   1      24.435 -16.884  -1.362  0.00  0.00     0.033 A 
ATOM      8  C   UNL d   1      24.674 -18.197  -0.904  0.00  0.00     0.019 A 
ATOM      9  C   UNL d   1      23.654 -18.974  -0.301  0.00  0.00     0.030 A 
ATOM     10  C   UNL d   1      22.377 -18.443  -0.122  0.00  0.00     0.034 A 
ATOM     11  C   UNL d   1      22.151 -17.122  -0.518  0.00  0.00     0.030 A 
ATOM     12  C   UNL d   1      23.163 -16.348  -1.121  0.00  0.00     0.019 A 
BRANCH  10  13
ATOM     13  N   UNL d   1      21.340 -19.225   0.458  0.00  0.00    -0.327 N 
ATOM     14  C   UNL d   1      20.345 -19.802  -0.325  0.00  0.00     0.221 C 
ATOM     15  O   UNL d   1      20.283 -19.675  -1.546  0.00  0.00    -0.273 OA
ATOM     16  H   UNL d   1      21.482 -19.582   1.395  0.00  0.00     0.169 HD
BRANCH  14  17
ATOM     17  C   UNL d   1      19.336 -20.667   0.426  0.00  0.00     0.098 C 
ATOM     18  C   UNL d   1      18.786 -19.902   1.631  0.00  0.00     0.014 C 
ENDBRANCH  14  17
ENDBRANCH  10  13
ENDBRANCH   4   7
ENDBRANCH   1   3
BRANCH   1  19
ATOM     19  C   UNL d   1      28.963 -15.007  -1.374  0.00  0.00     0.193 C 
ATOM     20  S   UNL d   1      30.525 -15.620  -1.599  0.00  0.00    -0.039 SA
BRANCH  19  21
ATOM     21  N   UNL d   1      28.591 -14.058  -0.401  0.00  0.00    -0.298 N 
ATOM     22  C   UNL d   1      27.795 -14.335   0.722  0.00  0.00     0.258 C 
ATOM     23  O   UNL d   1      27.264 -15.408   0.974  0.00  0.00    -0.267 OA
ATOM     24  H   UNL d   1      28.989 -13.133  -0.455  0.00  0.00     0.171 HD
BRANCH  22  25
ATOM     25  C   UNL d   1      27.582 -13.310   1.771  0.00  0.00     0.035 A 
ATOM     26  C   UNL d   1      26.795 -12.227   1.334  0.00  0.00     0.017 A 
ATOM     27  C   UNL d   1      26.687 -11.100   2.101  0.00  0.00     0.004 A 
ATOM     28  C   UNL d   1      27.295 -11.091   3.337  0.00  0.00     0.037 A 
ATOM     29  C   UNL d   1      28.117 -12.110   3.820  0.00  0.00     0.070 A 
ATOM     30  C   UNL d   1      28.264 -13.249   3.004  0.00  0.00     0.053 A 
BRANCH  29  31
ATOM     31  O   UNL d   1      28.820 -12.084   4.996  0.00  0.00    -0.346 OA
BRANCH  31  32
ATOM     32  C   UNL d   1      28.303 -12.399   6.318  0.00  0.00     0.124 C 
ATOM     33  C   UNL d   1      28.517 -11.413   7.450  0.00  0.00     0.040 C 
BRANCH  32  34
ATOM     34  C   UNL d   1      28.894 -13.727   6.816  0.00  0.00     0.027 C 
ATOM     35  C   UNL d   1      28.748 -14.839   5.803  0.00  0.00     0.007 C 
ENDBRANCH  32  34
ENDBRANCH  31  32
ENDBRANCH  29  31
ENDBRANCH  22  25
ENDBRANCH  19  21
ENDBRANCH   1  19
TORSDOF 10
ENDMDL
MODEL 9
REMARK VINA RESULT:    -8.631      6.297      9.624
REMARK INTER + INTRA:         -13.645
REMARK INTER:                 -11.614
REMARK INTRA:                  -2.031
REMARK CONF_INDEPENDENT:        2.983
REMARK UNBOUND:                -2.031
REMARK  10 active torsions:
REMARK  status: ('A' for Active; 'I' for Inactive)
REMARK    1  A    between atoms: C_2  and  C_3 
REMARK       I    between atoms: C_3  and  N_5 
REMARK    2  A    between atoms: N_5  and  C_6 
REMARK    3  A    between atoms: C_9  and  C_10 
REMARK       I    between atoms: C_10  and  N_12 
REMARK    4  A    between atoms: N_12  and  N_13 
REMARK    5  A    between atoms: N_13  and  C_14 
REMARK    6  A    between atoms: C_14  and  N_16 
REMARK       I    between atoms: N_16  and  C_17 
REMARK    7  A    between atoms: C_17  and  C_19 
REMARK    8  A    between atoms: C_23  and  O_24 
REMARK    9  A    between atoms: C_25  and  O_24 
REMARK   10  A    between atoms: C_25  and  C_27 
ROOT
ATOM      1  N   UNL d   1      27.842 -15.751  -2.855  0.00  0.00    -0.273 N 
ATOM      2  H   UNL d   1      27.570 -14.961  -3.434  0.00  0.00     0.189 HD
ENDROOT
BRANCH   1   3
ATOM      3  N   UNL d   1      26.759 -16.418  -2.161  0.00  0.00    -0.264 N 
ATOM      4  C   UNL d   1      25.424 -16.073  -2.347  0.00  0.00     0.270 C 
ATOM      5  O   UNL d   1      25.087 -15.192  -3.128  0.00  0.00    -0.266 OA
ATOM      6  H   UNL d   1      27.070 -17.120  -1.495  0.00  0.00     0.190 HD
BRANCH   4   7
ATOM      7  C   UNL d   1      24.377 -16.812  -1.514  0.00  0.00     0.033 A 
ATOM      8  C   UNL d   1      24.638 -18.134  -1.094  0.00  0.00     0.019 A 
ATOM      9  C   UNL d   1      23.657 -18.915  -0.435  0.00  0.00     0.030 A 
ATOM     10  C   UNL d   1      22.399 -18.380  -0.159  0.00  0.00     0.034 A 
ATOM     11  C   UNL d   1      22.155 -17.051  -0.518  0.00  0.00     0.030 A 
ATOM     12  C   UNL d   1      23.129 -16.273  -1.176  0.00  0.00     0.019 A 
BRANCH  10  13
ATOM     13  N   UNL d   1      21.399 -19.165   0.478  0.00  0.00    -0.327 N 
ATOM     14  C   UNL d   1      20.392 -19.787  -0.253  0.00  0.00     0.221 C 
ATOM     15  O   UNL d   1      20.286 -19.699  -1.475  0.00  0.00    -0.273 OA
ATOM     16  H   UNL d   1      21.580 -19.491   1.420  0.00  0.00     0.169 HD
BRANCH  14  17
ATOM     17  C   UNL d   1      19.428 -20.650   0.557  0.00  0.00     0.098 C 
ATOM     18  C   UNL d   1      19.126 -19.979   1.898  0.00  0.00     0.014 C 
ENDBRANCH  14  17
ENDBRANCH  10  13
ENDBRANCH   4   7
ENDBRANCH   1   3
BRANCH   1  19
ATOM     19  C   UNL d   1      29.146 -16.238  -2.666  0.00  0.00     0.193 C 
ATOM     20  S   UNL d   1      29.702 -16.522  -1.093  0.00  0.00    -0.039 SA
BRANCH  19  21
ATOM     21  N   UNL d   1      29.889 -16.452  -3.845  0.00  0.00    -0.298 N 
ATOM     22  C   UNL d   1      29.462 -16.094  -5.134  0.00  0.00     0.258 C 
ATOM     23  O   UNL d   1      28.373 -15.615  -5.419  0.00  0.00    -0.267 OA
ATOM     24  H   UNL d   1      30.830 -16.805  -3.763  0.00  0.00     0.171 HD
BRANCH  22  25
ATOM     25  C   UNL d   1      30.374 -16.219  -6.295  0.00  0.00     0.035 A 
ATOM     26  C   UNL d   1      30.638 -17.556  -6.649  0.00  0.00     0.017 A 
ATOM     27  C   UNL d   1      31.623 -17.848  -7.551  0.00  0.00     0.004 A 
ATOM     28  C   UNL d   1      32.283 -16.803  -8.158  0.00  0.00     0.037 A 
ATOM     29  C   UNL d   1      32.100 -15.458  -7.834  0.00  0.00     0.070 A 
ATOM     30  C   UNL d   1      31.117 -15.165  -6.868  0.00  0.00     0.053 A 
BRANCH  29  31
ATOM     31  O   UNL d   1      32.815 -14.405  -8.342  0.00  0.00    -0.346 OA
BRANCH  31  32
ATOM     32  C   UNL d   1      32.298 -13.336  -9.181  0.00  0.00     0.124 C 
ATOM     33  C   UNL d   1      33.273 -12.427  -9.904  0.00  0.00     0.040 C 
BRANCH  32  34
ATOM     34  C   UNL d   1      31.403 -12.400  -8.355  0.00  0.00     0.027 C 
ATOM     35  C   UNL d   1      29.937 -12.556  -8.692  0.00  0.00     0.007 C 
ENDBRANCH  32  34
ENDBRANCH  31  32
ENDBRANCH  29  31
ENDBRANCH  22  25
ENDBRANCH  19  21
ENDBRANCH   1  19
TORSDOF 10
ENDMDL
