MODEL 1
REMARK VINA RESULT:    -9.610      0.000      0.000
REMARK INTER + INTRA:         -14.456
REMARK INTER:                 -12.892
REMARK INTRA:                  -1.565
REMARK CONF_INDEPENDENT:        3.281
REMARK UNBOUND:                -1.565
REMARK  11 active torsions:
REMARK  status: ('A' for Active; 'I' for Inactive)
REMARK    1  A    between atoms: C_2  and  C_3 
REMARK    2  A    between atoms: C_3  and  C_4 
REMARK    3  A    between atoms: C_8  and  C_9 
REMARK    4  A    between atoms: N_10  and  N_11 
REMARK    5  A    between atoms: N_11  and  C_12 
REMARK    6  A    between atoms: C_14  and  S_15 
REMARK    7  A    between atoms: S_15  and  C_16 
REMARK    8  A    between atoms: C_16  and  C_17 
REMARK    9  A    between atoms: C_17  and  C_18 
REMARK       I    between atoms: C_18  and  N_20 
REMARK   10  A    between atoms: N_20  and  C_21 
REMARK   11  A    between atoms: C_31  and  O_32 
ROOT
ATOM      1  C   UNL d   1      28.622 -14.419   2.250  0.00  0.00     0.739 A 
ATOM      2  N   UNL d   1      28.558 -13.232   1.677  0.00  0.00    -0.034 NA
ATOM      3  C   UNL d   1      28.462 -13.507   0.339  0.00  0.00     0.226 A 
ATOM      4  N   UNL d   1      28.426 -14.815   0.045  0.00  0.00    -0.132 NA
ATOM      5  N   UNL d   1      28.531 -15.370   1.266  0.00  0.00    -0.103 N 
ATOM      6  H   UNL d   1      28.455 -16.375   1.358  0.00  0.00     0.208 HD
ENDROOT
BRANCH   1   7
ATOM      7  N   UNL d   1      28.679 -14.763   3.568  0.00  0.00    -0.106 N 
ATOM      8  H   UNL d   1      28.558 -15.737   3.849  0.00  0.00     0.208 HD
BRANCH   7   9
ATOM      9  N   UNL d   1      28.954 -13.820   4.510  0.00  0.00    -0.171 NA
ATOM     10  C   UNL d   1      28.394 -13.894   5.679  0.00  0.00     0.153 C 
BRANCH  10  11
ATOM     11  C   UNL d   1      28.654 -12.830   6.692  0.00  0.00     0.017 A 
ATOM     12  C   UNL d   1      28.655 -11.484   6.299  0.00  0.00     0.016 A 
ATOM     13  C   UNL d   1      28.905 -10.477   7.237  0.00  0.00     0.002 A 
ATOM     14  C   UNL d   1      29.142 -10.806   8.569  0.00  0.00     0.010 A 
ATOM     15  C   UNL d   1      29.103 -12.144   8.998  0.00  0.00    -0.021 A 
ATOM     16  C   UNL d   1      28.900 -13.151   8.040  0.00  0.00     0.084 A 
BRANCH  15  17
ATOM     17  C   UNL d   1      29.311 -12.490  10.459  0.00  0.00     0.067 C 
BRANCH  17  18
ATOM     18  C   UNL d   1      28.135 -13.192  11.091  0.00  0.00    -0.032 C 
ATOM     19  C   UNL d   1      28.154 -14.480  11.450  0.00  0.00     0.007 C 
ENDBRANCH  17  18
ENDBRANCH  15  17
BRANCH  16  20
ATOM     20  O   UNL d   1      28.965 -14.450   8.478  0.00  0.00    -0.359 OA
ATOM     21  H   UNL d   1      29.583 -14.952   7.899  0.00  0.00     0.217 HD
ENDBRANCH  16  20
ENDBRANCH  10  11
ENDBRANCH   7   9
ENDBRANCH   1   7
BRANCH   3  22
ATOM     22  S   UNL d   1      28.369 -12.322  -0.956  0.00  0.00    -0.087 SA
BRANCH  22  23
ATOM     23  C   UNL d   1      26.892 -12.797  -1.909  0.00  0.00     0.092 C 
BRANCH  23  24
ATOM     24  C   UNL d   1      27.133 -14.076  -2.752  0.00  0.00     0.113 C 
BRANCH  24  25
ATOM     25  C   UNL d   1      25.986 -15.064  -2.549  0.00  0.00     0.222 C 
ATOM     26  O   UNL d   1      25.150 -15.244  -3.440  0.00  0.00    -0.273 OA
ATOM     27  N   UNL d   1      25.936 -15.695  -1.307  0.00  0.00    -0.327 N 
ATOM     28  H   UNL d   1      26.460 -15.286  -0.544  0.00  0.00     0.169 HD
BRANCH  27  29
ATOM     29  C   UNL d   1      24.858 -16.564  -0.965  0.00  0.00     0.040 A 
ATOM     30  C   UNL d   1      23.544 -16.192  -1.269  0.00  0.00     0.030 A 
ATOM     31  C   UNL d   1      22.458 -16.989  -0.895  0.00  0.00     0.009 A 
ATOM     32  C   UNL d   1      22.661 -18.181  -0.199  0.00  0.00    -0.061 A 
ATOM     33  C   UNL d   1      21.485 -19.005   0.241  0.00  0.00     0.048 C 
ATOM     34  C   UNL d   1      23.977 -18.576   0.088  0.00  0.00     0.015 A 
ATOM     35  C   UNL d   1      25.085 -17.787  -0.307  0.00  0.00    -0.035 A 
ATOM     36  C   UNL d   1      26.473 -18.224   0.066  0.00  0.00     0.050 C 
ENDBRANCH  27  29
ENDBRANCH  24  25
ENDBRANCH  23  24
ENDBRANCH  22  23
ENDBRANCH   3  22
TORSDOF 11
ENDMDL
MODEL 2
REMARK VINA RESULT:    -9.499      7.047      9.078
REMARK INTER + INTRA:         -14.944
REMARK INTER:                 -12.780
REMARK INTRA:                  -2.164
REMARK CONF_INDEPENDENT:        3.281
REMARK UNBOUND:                -2.164
REMARK  11 active torsions:
REMARK  status: ('A' for Active; 'I' for Inactive)
REMARK    1  A    between atoms: C_2  and  C_3 
REMARK    2  A    between atoms: C_3  and  C_4 
REMARK    3  A    between atoms: C_8  and  C_9 
REMARK    4  A    between atoms: N_10  and  N_11 
REMARK    5  A    between atoms: N_11  and  C_12 
REMARK    6  A    between atoms: C_14  and  S_15 
REMARK    7  A    between atoms: S_15  and  C_16 
REMARK    8  A    between atoms: C_16  and  C_17 
REMARK    9  A    between atoms: C_17  and  C_18 
REMARK       I    between atoms: C_18  and  N_20 
REMARK   10  A    between atoms: N_20  and  C_21 
REMARK   11  A    between atoms: C_31  and  O_32 
ROOT
ATOM      1  C   UNL d   1      25.798 -12.915  -4.673  0.00  0.00     0.739 A 
ATOM      2  N   UNL d   1      27.082 -13.225  -4.657  0.00  0.00    -0.034 NA
ATOM      3  C   UNL d   1      27.719 -12.033  -4.878  0.00  0.00     0.226 A 
ATOM      4  N   UNL d   1      26.897 -10.981  -4.997  0.00  0.00    -0.132 NA
ATOM      5  N   UNL d   1      25.691 -11.563  -4.867  0.00  0.00    -0.103 N 
ATOM      6  H   UNL d   1      24.863 -10.980  -4.841  0.00  0.00     0.208 HD
ENDROOT
BRANCH   1   7
ATOM      7  N   UNL d   1      24.698 -13.693  -4.460  0.00  0.00    -0.106 N 
ATOM      8  H   UNL d   1      23.842 -13.524  -4.987  0.00  0.00     0.208 HD
BRANCH   7   9
ATOM      9  N   UNL d   1      24.756 -14.734  -3.585  0.00  0.00    -0.171 NA
ATOM     10  C   UNL d   1      25.614 -14.711  -2.611  0.00  0.00     0.153 C 
BRANCH  10  11
ATOM     11  C   UNL d   1      25.712 -15.877  -1.685  0.00  0.00     0.017 A 
ATOM     12  C   UNL d   1      26.975 -16.360  -1.311  0.00  0.00     0.016 A 
ATOM     13  C   UNL d   1      27.082 -17.457  -0.450  0.00  0.00     0.002 A 
ATOM     14  C   UNL d   1      25.934 -18.067   0.050  0.00  0.00     0.010 A 
ATOM     15  C   UNL d   1      24.658 -17.575  -0.273  0.00  0.00    -0.021 A 
ATOM     16  C   UNL d   1      24.560 -16.504  -1.178  0.00  0.00     0.084 A 
BRANCH  15  17
ATOM     17  C   UNL d   1      23.415 -18.212   0.316  0.00  0.00     0.067 C 
BRANCH  17  18
ATOM     18  C   UNL d   1      22.602 -18.998  -0.683  0.00  0.00    -0.032 C 
ATOM     19  C   UNL d   1      21.299 -18.787  -0.897  0.00  0.00     0.007 C 
ENDBRANCH  17  18
ENDBRANCH  15  17
BRANCH  16  20
ATOM     20  O   UNL d   1      23.297 -16.113  -1.546  0.00  0.00    -0.359 OA
ATOM     21  H   UNL d   1      23.366 -15.339  -2.150  0.00  0.00     0.217 HD
ENDBRANCH  16  20
ENDBRANCH  10  11
ENDBRANCH   7   9
ENDBRANCH   1   7
BRANCH   3  22
ATOM     22  S   UNL d   1      29.457 -11.797  -4.995  0.00  0.00    -0.087 SA
BRANCH  22  23
ATOM     23  C   UNL d   1      29.877 -12.308  -6.692  0.00  0.00     0.092 C 
BRANCH  23  24
ATOM     24  C   UNL d   1      28.745 -13.145  -7.342  0.00  0.00     0.113 C 
BRANCH  24  25
ATOM     25  C   UNL d   1      28.821 -14.594  -6.867  0.00  0.00     0.222 C 
ATOM     26  O   UNL d   1      27.799 -15.194  -6.520  0.00  0.00    -0.273 OA
ATOM     27  N   UNL d   1      30.097 -15.154  -6.817  0.00  0.00    -0.327 N 
ATOM     28  H   UNL d   1      30.892 -14.528  -6.826  0.00  0.00     0.169 HD
BRANCH  27  29
ATOM     29  C   UNL d   1      30.306 -16.466  -6.299  0.00  0.00     0.040 A 
ATOM     30  C   UNL d   1      30.776 -17.478  -7.144  0.00  0.00     0.030 A 
ATOM     31  C   UNL d   1      30.935 -18.790  -6.687  0.00  0.00     0.009 A 
ATOM     32  C   UNL d   1      30.620 -19.125  -5.370  0.00  0.00    -0.061 A 
ATOM     33  C   UNL d   1      30.747 -20.547  -4.903  0.00  0.00     0.048 C 
ATOM     34  C   UNL d   1      30.173 -18.111  -4.508  0.00  0.00     0.015 A 
ATOM     35  C   UNL d   1      30.030 -16.775  -4.954  0.00  0.00    -0.035 A 
ATOM     36  C   UNL d   1      29.500 -15.734  -4.010  0.00  0.00     0.050 C 
ENDBRANCH  27  29
ENDBRANCH  24  25
ENDBRANCH  23  24
ENDBRANCH  22  23
ENDBRANCH   3  22
TORSDOF 11
ENDMDL
MODEL 3
REMARK VINA RESULT:    -9.404      2.581     10.562
REMARK INTER + INTRA:         -14.255
REMARK INTER:                 -12.686
REMARK INTRA:                  -1.569
REMARK CONF_INDEPENDENT:        3.281
REMARK UNBOUND:                -1.569
REMARK  11 active torsions:
REMARK  status: ('A' for Active; 'I' for Inactive)
REMARK    1  A    between atoms: C_2  and  C_3 
REMARK    2  A    between atoms: C_3  and  C_4 
REMARK    3  A    between atoms: C_8  and  C_9 
REMARK    4  A    between atoms: N_10  and  N_11 
REMARK    5  A    between atoms: N_11  and  C_12 
REMARK    6  A    between atoms: C_14  and  S_15 
REMARK    7  A    between atoms: S_15  and  C_16 
REMARK    8  A    between atoms: C_16  and  C_17 
REMARK    9  A    between atoms: C_17  and  C_18 
REMARK       I    between atoms: C_18  and  N_20 
REMARK   10  A    between atoms: N_20  and  C_21 
REMARK   11  A    between atoms: C_31  and  O_32 
ROOT
ATOM      1  C   UNL d   1      28.806 -14.453   3.701  0.00  0.00     0.739 A 
ATOM      2  N   UNL d   1      28.202 -13.397   4.215  0.00  0.00    -0.034 NA
ATOM      3  C   UNL d   1      28.392 -13.523   5.565  0.00  0.00     0.226 A 
ATOM      4  N   UNL d   1      29.118 -14.591   5.924  0.00  0.00    -0.132 NA
ATOM      5  N   UNL d   1      29.366 -15.163   4.731  0.00  0.00    -0.103 N 
ATOM      6  H   UNL d   1      29.975 -15.971   4.689  0.00  0.00     0.208 HD
ENDROOT
BRANCH   1   7
ATOM      7  N   UNL d   1      28.983 -14.825   2.401  0.00  0.00    -0.106 N 
ATOM      8  H   UNL d   1      29.915 -15.052   2.056  0.00  0.00     0.208 HD
BRANCH   7   9
ATOM      9  N   UNL d   1      27.910 -14.950   1.573  0.00  0.00    -0.171 NA
ATOM     10  C   UNL d   1      27.737 -16.048   0.904  0.00  0.00     0.153 C 
BRANCH  10  11
ATOM     11  C   UNL d   1      26.590 -16.164  -0.044  0.00  0.00     0.017 A 
ATOM     12  C   UNL d   1      26.393 -15.173  -1.017  0.00  0.00     0.016 A 
ATOM     13  C   UNL d   1      25.317 -15.265  -1.907  0.00  0.00     0.002 A 
ATOM     14  C   UNL d   1      24.444 -16.347  -1.838  0.00  0.00     0.010 A 
ATOM     15  C   UNL d   1      24.645 -17.376  -0.901  0.00  0.00    -0.021 A 
ATOM     16  C   UNL d   1      25.698 -17.250   0.020  0.00  0.00     0.084 A 
BRANCH  15  17
ATOM     17  C   UNL d   1      23.720 -18.577  -0.866  0.00  0.00     0.067 C 
BRANCH  17  18
ATOM     18  C   UNL d   1      22.295 -18.237  -0.506  0.00  0.00    -0.032 C 
ATOM     19  C   UNL d   1      21.243 -18.949  -0.924  0.00  0.00     0.007 C 
ENDBRANCH  17  18
ENDBRANCH  15  17
BRANCH  16  20
ATOM     20  O   UNL d   1      25.805 -18.224   0.981  0.00  0.00    -0.359 OA
ATOM     21  H   UNL d   1      26.739 -18.533   1.020  0.00  0.00     0.217 HD
ENDBRANCH  16  20
ENDBRANCH  10  11
ENDBRANCH   7   9
ENDBRANCH   1   7
BRANCH   3  22
ATOM     22  S   UNL d   1      27.792 -12.426   6.800  0.00  0.00    -0.087 SA
BRANCH  22  23
ATOM     23  C   UNL d   1      28.587 -10.830   6.422  0.00  0.00     0.092 C 
BRANCH  23  24
ATOM     24  C   UNL d   1      30.022 -10.747   7.001  0.00  0.00     0.113 C 
BRANCH  24  25
ATOM     25  C   UNL d   1      30.148 -11.645   8.230  0.00  0.00     0.222 C 
ATOM     26  O   UNL d   1      30.189 -11.154   9.363  0.00  0.00    -0.273 OA
ATOM     27  N   UNL d   1      30.252 -13.012   7.980  0.00  0.00    -0.327 N 
ATOM     28  H   UNL d   1      30.508 -13.307   7.046  0.00  0.00     0.169 HD
BRANCH  27  29
ATOM     29  C   UNL d   1      30.471 -13.942   9.039  0.00  0.00     0.040 A 
ATOM     30  C   UNL d   1      31.693 -14.618   9.127  0.00  0.00     0.030 A 
ATOM     31  C   UNL d   1      31.921 -15.579  10.115  0.00  0.00     0.009 A 
ATOM     32  C   UNL d   1      30.926 -15.895  11.041  0.00  0.00    -0.061 A 
ATOM     33  C   UNL d   1      31.164 -16.965  12.067  0.00  0.00     0.048 C 
ATOM     34  C   UNL d   1      29.706 -15.204  10.977  0.00  0.00     0.015 A 
ATOM     35  C   UNL d   1      29.473 -14.211   9.994  0.00  0.00    -0.035 A 
ATOM     36  C   UNL d   1      28.134 -13.533   9.933  0.00  0.00     0.050 C 
ENDBRANCH  27  29
ENDBRANCH  24  25
ENDBRANCH  23  24
ENDBRANCH  22  23
ENDBRANCH   3  22
TORSDOF 11
ENDMDL
MODEL 4
REMARK VINA RESULT:    -8.776      6.725      8.380
REMARK INTER + INTRA:         -15.353
REMARK INTER:                 -12.057
REMARK INTRA:                  -3.296
REMARK CONF_INDEPENDENT:        3.281
REMARK UNBOUND:                -3.296
REMARK  11 active torsions:
REMARK  status: ('A' for Active; 'I' for Inactive)
REMARK    1  A    between atoms: C_2  and  C_3 
REMARK    2  A    between atoms: C_3  and  C_4 
REMARK    3  A    between atoms: C_8  and  C_9 
REMARK    4  A    between atoms: N_10  and  N_11 
REMARK    5  A    between atoms: N_11  and  C_12 
REMARK    6  A    between atoms: C_14  and  S_15 
REMARK    7  A    between atoms: S_15  and  C_16 
REMARK    8  A    between atoms: C_16  and  C_17 
REMARK    9  A    between atoms: C_17  and  C_18 
REMARK       I    between atoms: C_18  and  N_20 
REMARK   10  A    between atoms: N_20  and  C_21 
REMARK   11  A    between atoms: C_31  and  O_32 
ROOT
ATOM      1  C   UNL d   1      30.196 -17.733  -0.721  0.00  0.00     0.739 A 
ATOM      2  N   UNL d   1      30.559 -17.377  -1.939  0.00  0.00    -0.034 NA
ATOM      3  C   UNL d   1      31.209 -18.476  -2.433  0.00  0.00     0.226 A 
ATOM      4  N   UNL d   1      31.242 -19.522  -1.594  0.00  0.00    -0.132 NA
ATOM      5  N   UNL d   1      30.598 -19.028  -0.520  0.00  0.00    -0.103 N 
ATOM      6  H   UNL d   1      30.405 -19.641   0.262  0.00  0.00     0.208 HD
ENDROOT
BRANCH   1   7
ATOM      7  N   UNL d   1      29.475 -17.059   0.220  0.00  0.00    -0.106 N 
ATOM      8  H   UNL d   1      29.953 -16.554   0.967  0.00  0.00     0.208 HD
BRANCH   7   9
ATOM      9  N   UNL d   1      28.118 -17.009   0.136  0.00  0.00    -0.171 NA
ATOM     10  C   UNL d   1      27.551 -16.802  -1.013  0.00  0.00     0.153 C 
BRANCH  10  11
ATOM     11  C   UNL d   1      26.064 -16.693  -1.096  0.00  0.00     0.017 A 
ATOM     12  C   UNL d   1      25.486 -15.694  -1.891  0.00  0.00     0.016 A 
ATOM     13  C   UNL d   1      24.094 -15.576  -1.971  0.00  0.00     0.002 A 
ATOM     14  C   UNL d   1      23.277 -16.458  -1.270  0.00  0.00     0.010 A 
ATOM     15  C   UNL d   1      23.831 -17.496  -0.501  0.00  0.00    -0.021 A 
ATOM     16  C   UNL d   1      25.228 -17.576  -0.387  0.00  0.00     0.084 A 
BRANCH  15  17
ATOM     17  C   UNL d   1      22.934 -18.484   0.219  0.00  0.00     0.067 C 
BRANCH  17  18
ATOM     18  C   UNL d   1      21.756 -18.946  -0.602  0.00  0.00    -0.032 C 
ATOM     19  C   UNL d   1      20.688 -19.556  -0.076  0.00  0.00     0.007 C 
ENDBRANCH  17  18
ENDBRANCH  15  17
BRANCH  16  20
ATOM     20  O   UNL d   1      25.732 -18.541   0.450  0.00  0.00    -0.359 OA
ATOM     21  H   UNL d   1      26.481 -18.160   0.962  0.00  0.00     0.217 HD
ENDBRANCH  16  20
ENDBRANCH  10  11
ENDBRANCH   7   9
ENDBRANCH   1   7
BRANCH   3  22
ATOM     22  S   UNL d   1      31.955 -18.610  -4.019  0.00  0.00    -0.087 SA
BRANCH  22  23
ATOM     23  C   UNL d   1      30.558 -18.562  -5.188  0.00  0.00     0.092 C 
BRANCH  23  24
ATOM     24  C   UNL d   1      30.716 -17.427  -6.232  0.00  0.00     0.113 C 
BRANCH  24  25
ATOM     25  C   UNL d   1      29.681 -16.332  -5.981  0.00  0.00     0.222 C 
ATOM     26  O   UNL d   1      29.379 -15.539  -6.878  0.00  0.00    -0.273 OA
ATOM     27  N   UNL d   1      29.153 -16.274  -4.692  0.00  0.00    -0.327 N 
ATOM     28  H   UNL d   1      29.655 -16.747  -3.950  0.00  0.00     0.169 HD
BRANCH  27  29
ATOM     29  C   UNL d   1      28.252 -15.237  -4.310  0.00  0.00     0.040 A 
ATOM     30  C   UNL d   1      27.001 -15.142  -4.930  0.00  0.00     0.030 A 
ATOM     31  C   UNL d   1      26.117 -14.104  -4.626  0.00  0.00     0.009 A 
ATOM     32  C   UNL d   1      26.466 -13.126  -3.695  0.00  0.00    -0.061 A 
ATOM     33  C   UNL d   1      25.529 -11.986  -3.412  0.00  0.00     0.048 C 
ATOM     34  C   UNL d   1      27.708 -13.226  -3.049  0.00  0.00     0.015 A 
ATOM     35  C   UNL d   1      28.602 -14.286  -3.332  0.00  0.00    -0.035 A 
ATOM     36  C   UNL d   1      29.942 -14.325  -2.654  0.00  0.00     0.050 C 
ENDBRANCH  27  29
ENDBRANCH  24  25
ENDBRANCH  23  24
ENDBRANCH  22  23
ENDBRANCH   3  22
TORSDOF 11
ENDMDL
MODEL 5
REMARK VINA RESULT:    -8.311      1.794      2.712
REMARK INTER + INTRA:         -14.149
REMARK INTER:                 -11.592
REMARK INTRA:                  -2.557
REMARK CONF_INDEPENDENT:        3.281
REMARK UNBOUND:                -2.557
REMARK  11 active torsions:
REMARK  status: ('A' for Active; 'I' for Inactive)
REMARK    1  A    between atoms: C_2  and  C_3 
REMARK    2  A    between atoms: C_3  and  C_4 
REMARK    3  A    between atoms: C_8  and  C_9 
REMARK    4  A    between atoms: N_10  and  N_11 
REMARK    5  A    between atoms: N_11  and  C_12 
REMARK    6  A    between atoms: C_14  and  S_15 
REMARK    7  A    between atoms: S_15  and  C_16 
REMARK    8  A    between atoms: C_16  and  C_17 
REMARK    9  A    between atoms: C_17  and  C_18 
REMARK       I    between atoms: C_18  and  N_20 
REMARK   10  A    between atoms: N_20  and  C_21 
REMARK   11  A    between atoms: C_31  and  O_32 
ROOT
ATOM      1  C   UNL d   1      28.971 -14.819   3.985  0.00  0.00     0.739 A 
ATOM      2  N   UNL d   1      28.498 -14.628   2.767  0.00  0.00    -0.034 NA
ATOM      3  C   UNL d   1      29.550 -14.088   2.077  0.00  0.00     0.226 A 
ATOM      4  N   UNL d   1      30.676 -13.963   2.794  0.00  0.00    -0.132 NA
ATOM      5  N   UNL d   1      30.285 -14.428   3.995  0.00  0.00    -0.103 N 
ATOM      6  H   UNL d   1      30.971 -14.522   4.733  0.00  0.00     0.208 HD
ENDROOT
BRANCH   1   7
ATOM      7  N   UNL d   1      28.386 -15.375   5.084  0.00  0.00    -0.106 N 
ATOM      8  H   UNL d   1      27.828 -16.224   4.992  0.00  0.00     0.208 HD
BRANCH   7   9
ATOM      9  N   UNL d   1      28.590 -14.833   6.316  0.00  0.00    -0.171 NA
ATOM     10  C   UNL d   1      28.649 -13.544   6.451  0.00  0.00     0.153 C 
BRANCH  10  11
ATOM     11  C   UNL d   1      28.927 -12.953   7.793  0.00  0.00     0.017 A 
ATOM     12  C   UNL d   1      29.290 -11.602   7.893  0.00  0.00     0.016 A 
ATOM     13  C   UNL d   1      29.561 -11.037   9.144  0.00  0.00     0.002 A 
ATOM     14  C   UNL d   1      29.459 -11.812  10.297  0.00  0.00     0.010 A 
ATOM     15  C   UNL d   1      29.053 -13.155  10.228  0.00  0.00    -0.021 A 
ATOM     16  C   UNL d   1      28.832 -13.726   8.964  0.00  0.00     0.084 A 
BRANCH  15  17
ATOM     17  C   UNL d   1      28.895 -13.978  11.492  0.00  0.00     0.067 C 
BRANCH  17  18
ATOM     18  C   UNL d   1      30.126 -14.765  11.864  0.00  0.00    -0.032 C 
ATOM     19  C   UNL d   1      30.497 -15.887  11.239  0.00  0.00     0.007 C 
ENDBRANCH  17  18
ENDBRANCH  15  17
BRANCH  16  20
ATOM     20  O   UNL d   1      28.533 -15.066   8.928  0.00  0.00    -0.359 OA
ATOM     21  H   UNL d   1      28.531 -15.368   7.992  0.00  0.00     0.217 HD
ENDBRANCH  16  20
ENDBRANCH  10  11
ENDBRANCH   7   9
ENDBRANCH   1   7
BRANCH   3  22
ATOM     22  S   UNL d   1      29.532 -13.588   0.392  0.00  0.00    -0.087 SA
BRANCH  22  23
ATOM     23  C   UNL d   1      30.841 -14.580  -0.396  0.00  0.00     0.092 C 
BRANCH  23  24
ATOM     24  C   UNL d   1      30.630 -16.100  -0.172  0.00  0.00     0.113 C 
BRANCH  24  25
ATOM     25  C   UNL d   1      29.220 -16.504  -0.599  0.00  0.00     0.222 C 
ATOM     26  O   UNL d   1      28.949 -16.663  -1.793  0.00  0.00    -0.273 OA
ATOM     27  N   UNL d   1      28.285 -16.634   0.427  0.00  0.00    -0.327 N 
ATOM     28  H   UNL d   1      28.495 -16.207   1.320  0.00  0.00     0.169 HD
BRANCH  27  29
ATOM     29  C   UNL d   1      26.915 -16.913   0.144  0.00  0.00     0.040 A 
ATOM     30  C   UNL d   1      26.375 -18.156   0.490  0.00  0.00     0.030 A 
ATOM     31  C   UNL d   1      25.054 -18.487   0.175  0.00  0.00     0.009 A 
ATOM     32  C   UNL d   1      24.239 -17.582  -0.504  0.00  0.00    -0.061 A 
ATOM     33  C   UNL d   1      22.838 -17.966  -0.883  0.00  0.00     0.048 C 
ATOM     34  C   UNL d   1      24.764 -16.322  -0.834  0.00  0.00     0.015 A 
ATOM     35  C   UNL d   1      26.094 -15.968  -0.498  0.00  0.00    -0.035 A 
ATOM     36  C   UNL d   1      26.629 -14.628  -0.916  0.00  0.00     0.050 C 
ENDBRANCH  27  29
ENDBRANCH  24  25
ENDBRANCH  23  24
ENDBRANCH  22  23
ENDBRANCH   3  22
TORSDOF 11
ENDMDL
MODEL 6
REMARK VINA RESULT:    -8.141      5.694      9.375
REMARK INTER + INTRA:         -14.231
REMARK INTER:                 -11.422
REMARK INTRA:                  -2.809
REMARK CONF_INDEPENDENT:        3.281
REMARK UNBOUND:                -2.809
REMARK  11 active torsions:
REMARK  status: ('A' for Active; 'I' for Inactive)
REMARK    1  A    between atoms: C_2  and  C_3 
REMARK    2  A    between atoms: C_3  and  C_4 
REMARK    3  A    between atoms: C_8  and  C_9 
REMARK    4  A    between atoms: N_10  and  N_11 
REMARK    5  A    between atoms: N_11  and  C_12 
REMARK    6  A    between atoms: C_14  and  S_15 
REMARK    7  A    between atoms: S_15  and  C_16 
REMARK    8  A    between atoms: C_16  and  C_17 
REMARK    9  A    between atoms: C_17  and  C_18 
REMARK       I    between atoms: C_18  and  N_20 
REMARK   10  A    between atoms: N_20  and  C_21 
REMARK   11  A    between atoms: C_31  and  O_32 
ROOT
ATOM      1  C   UNL d   1      28.968 -16.074  -0.065  0.00  0.00     0.739 A 
ATOM      2  N   UNL d   1      28.957 -15.009  -0.846  0.00  0.00    -0.034 NA
ATOM      3  C   UNL d   1      28.069 -14.158  -0.243  0.00  0.00     0.226 A 
ATOM      4  N   UNL d   1      27.547 -14.624   0.900  0.00  0.00    -0.132 NA
ATOM      5  N   UNL d   1      28.128 -15.834   0.990  0.00  0.00    -0.103 N 
ATOM      6  H   UNL d   1      27.970 -16.395   1.818  0.00  0.00     0.208 HD
ENDROOT
BRANCH   1   7
ATOM      7  N   UNL d   1      29.704 -17.220  -0.143  0.00  0.00    -0.106 N 
ATOM      8  H   UNL d   1      30.083 -17.643   0.704  0.00  0.00     0.208 HD
BRANCH   7   9
ATOM      9  N   UNL d   1      29.887 -17.835  -1.343  0.00  0.00    -0.171 NA
ATOM     10  C   UNL d   1      30.924 -18.594  -1.527  0.00  0.00     0.153 C 
BRANCH  10  11
ATOM     11  C   UNL d   1      31.152 -19.224  -2.860  0.00  0.00     0.017 A 
ATOM     12  C   UNL d   1      31.616 -20.545  -2.932  0.00  0.00     0.016 A 
ATOM     13  C   UNL d   1      31.842 -21.146  -4.175  0.00  0.00     0.002 A 
ATOM     14  C   UNL d   1      31.595 -20.437  -5.348  0.00  0.00     0.010 A 
ATOM     15  C   UNL d   1      31.088 -19.127  -5.305  0.00  0.00    -0.021 A 
ATOM     16  C   UNL d   1      30.912 -18.516  -4.052  0.00  0.00     0.084 A 
BRANCH  15  17
ATOM     17  C   UNL d   1      30.773 -18.380  -6.586  0.00  0.00     0.067 C 
BRANCH  17  18
ATOM     18  C   UNL d   1      30.807 -19.247  -7.820  0.00  0.00    -0.032 C 
ATOM     19  C   UNL d   1      31.505 -18.935  -8.917  0.00  0.00     0.007 C 
ENDBRANCH  17  18
ENDBRANCH  15  17
BRANCH  16  20
ATOM     20  O   UNL d   1      30.508 -17.204  -4.050  0.00  0.00    -0.359 OA
ATOM     21  H   UNL d   1      30.076 -17.004  -3.188  0.00  0.00     0.217 HD
ENDBRANCH  16  20
ENDBRANCH  10  11
ENDBRANCH   7   9
ENDBRANCH   1   7
BRANCH   3  22
ATOM     22  S   UNL d   1      27.602 -12.569  -0.829  0.00  0.00    -0.087 SA
BRANCH  22  23
ATOM     23  C   UNL d   1      26.975 -12.866  -2.514  0.00  0.00     0.092 C 
BRANCH  23  24
ATOM     24  C   UNL d   1      27.253 -14.315  -2.988  0.00  0.00     0.113 C 
BRANCH  24  25
ATOM     25  C   UNL d   1      26.044 -15.204  -2.704  0.00  0.00     0.222 C 
ATOM     26  O   UNL d   1      25.073 -15.203  -3.468  0.00  0.00    -0.273 OA
ATOM     27  N   UNL d   1      26.101 -15.958  -1.533  0.00  0.00    -0.327 N 
ATOM     28  H   UNL d   1      26.771 -15.687  -0.825  0.00  0.00     0.169 HD
BRANCH  27  29
ATOM     29  C   UNL d   1      24.992 -16.750  -1.112  0.00  0.00     0.040 A 
ATOM     30  C   UNL d   1      23.688 -16.299  -1.346  0.00  0.00     0.030 A 
ATOM     31  C   UNL d   1      22.578 -17.018  -0.895  0.00  0.00     0.009 A 
ATOM     32  C   UNL d   1      22.746 -18.209  -0.189  0.00  0.00    -0.061 A 
ATOM     33  C   UNL d   1      21.548 -18.949   0.336  0.00  0.00     0.048 C 
ATOM     34  C   UNL d   1      24.049 -18.684   0.029  0.00  0.00     0.015 A 
ATOM     35  C   UNL d   1      25.179 -17.975  -0.445  0.00  0.00    -0.035 A 
ATOM     36  C   UNL d   1      26.556 -18.495  -0.145  0.00  0.00     0.050 C 
ENDBRANCH  27  29
ENDBRANCH  24  25
ENDBRANCH  23  24
ENDBRANCH  22  23
ENDBRANCH   3  22
TORSDOF 11
ENDMDL
MODEL 7
REMARK VINA RESULT:    -7.754      5.304      8.490
REMARK INTER + INTRA:         -14.473
REMARK INTER:                 -11.036
REMARK INTRA:                  -3.437
REMARK CONF_INDEPENDENT:        3.281
REMARK UNBOUND:                -3.437
REMARK  11 active torsions:
REMARK  status: ('A' for Active; 'I' for Inactive)
REMARK    1  A    between atoms: C_2  and  C_3 
REMARK    2  A    between atoms: C_3  and  C_4 
REMARK    3  A    between atoms: C_8  and  C_9 
REMARK    4  A    between atoms: N_10  and  N_11 
REMARK    5  A    between atoms: N_11  and  C_12 
REMARK    6  A    between atoms: C_14  and  S_15 
REMARK    7  A    between atoms: S_15  and  C_16 
REMARK    8  A    between atoms: C_16  and  C_17 
REMARK    9  A    between atoms: C_17  and  C_18 
REMARK       I    between atoms: C_18  and  N_20 
REMARK   10  A    between atoms: N_20  and  C_21 
REMARK   11  A    between atoms: C_31  and  O_32 
ROOT
ATOM      1  C   UNL d   1      25.592 -13.180  -4.746  0.00  0.00     0.739 A 
ATOM      2  N   UNL d   1      26.727 -13.777  -5.058  0.00  0.00    -0.034 NA
ATOM      3  C   UNL d   1      27.574 -12.748  -5.373  0.00  0.00     0.226 A 
ATOM      4  N   UNL d   1      27.035 -11.528  -5.239  0.00  0.00    -0.132 NA
ATOM      5  N   UNL d   1      25.784 -11.826  -4.845  0.00  0.00    -0.103 N 
ATOM      6  H   UNL d   1      25.155 -11.074  -4.591  0.00  0.00     0.208 HD
ENDROOT
BRANCH   1   7
ATOM      7  N   UNL d   1      24.410 -13.701  -4.306  0.00  0.00    -0.106 N 
ATOM      8  H   UNL d   1      23.526 -13.321  -4.645  0.00  0.00     0.208 HD
BRANCH   7   9
ATOM      9  N   UNL d   1      24.405 -14.766  -3.459  0.00  0.00    -0.171 NA
ATOM     10  C   UNL d   1      25.313 -14.860  -2.537  0.00  0.00     0.153 C 
BRANCH  10  11
ATOM     11  C   UNL d   1      25.338 -16.055  -1.643  0.00  0.00     0.017 A 
ATOM     12  C   UNL d   1      26.561 -16.675  -1.349  0.00  0.00     0.016 A 
ATOM     13  C   UNL d   1      26.599 -17.801  -0.520  0.00  0.00     0.002 A 
ATOM     14  C   UNL d   1      25.421 -18.304   0.027  0.00  0.00     0.010 A 
ATOM     15  C   UNL d   1      24.188 -17.677  -0.216  0.00  0.00    -0.021 A 
ATOM     16  C   UNL d   1      24.154 -16.577  -1.090  0.00  0.00     0.084 A 
BRANCH  15  17
ATOM     17  C   UNL d   1      22.918 -18.201   0.424  0.00  0.00     0.067 C 
BRANCH  17  18
ATOM     18  C   UNL d   1      21.917 -18.744  -0.565  0.00  0.00    -0.032 C 
ATOM     19  C   UNL d   1      20.780 -19.347  -0.203  0.00  0.00     0.007 C 
ENDBRANCH  17  18
ENDBRANCH  15  17
BRANCH  16  20
ATOM     20  O   UNL d   1      22.921 -16.049  -1.381  0.00  0.00    -0.359 OA
ATOM     21  H   UNL d   1      23.043 -15.183  -1.832  0.00  0.00     0.217 HD
ENDBRANCH  16  20
ENDBRANCH  10  11
ENDBRANCH   7   9
ENDBRANCH   1   7
BRANCH   3  22
ATOM     22  S   UNL d   1      29.243 -12.909  -5.899  0.00  0.00    -0.087 SA
BRANCH  22  23
ATOM     23  C   UNL d   1      29.420 -14.669  -6.335  0.00  0.00     0.092 C 
BRANCH  23  24
ATOM     24  C   UNL d   1      30.007 -15.499  -5.166  0.00  0.00     0.113 C 
BRANCH  24  25
ATOM     25  C   UNL d   1      29.142 -15.337  -3.918  0.00  0.00     0.222 C 
ATOM     26  O   UNL d   1      28.075 -15.950  -3.811  0.00  0.00    -0.273 OA
ATOM     27  N   UNL d   1      29.613 -14.440  -2.960  0.00  0.00    -0.327 N 
ATOM     28  H   UNL d   1      30.316 -13.768  -3.242  0.00  0.00     0.169 HD
BRANCH  27  29
ATOM     29  C   UNL d   1      28.845 -14.131  -1.798  0.00  0.00     0.040 A 
ATOM     30  C   UNL d   1      27.922 -13.080  -1.837  0.00  0.00     0.030 A 
ATOM     31  C   UNL d   1      27.196 -12.710  -0.701  0.00  0.00     0.009 A 
ATOM     32  C   UNL d   1      27.381 -13.379   0.508  0.00  0.00    -0.061 A 
ATOM     33  C   UNL d   1      26.633 -12.941   1.735  0.00  0.00     0.048 C 
ATOM     34  C   UNL d   1      28.287 -14.451   0.550  0.00  0.00     0.015 A 
ATOM     35  C   UNL d   1      29.010 -14.850  -0.600  0.00  0.00    -0.035 A 
ATOM     36  C   UNL d   1      30.005 -15.970  -0.495  0.00  0.00     0.050 C 
ENDBRANCH  27  29
ENDBRANCH  24  25
ENDBRANCH  23  24
ENDBRANCH  22  23
ENDBRANCH   3  22
TORSDOF 11
ENDMDL
MODEL 8
REMARK VINA RESULT:    -6.881      5.849      8.478
REMARK INTER + INTRA:         -14.329
REMARK INTER:                 -10.162
REMARK INTRA:                  -4.166
REMARK CONF_INDEPENDENT:        3.281
REMARK UNBOUND:                -4.166
REMARK  11 active torsions:
REMARK  status: ('A' for Active; 'I' for Inactive)
REMARK    1  A    between atoms: C_2  and  C_3 
REMARK    2  A    between atoms: C_3  and  C_4 
REMARK    3  A    between atoms: C_8  and  C_9 
REMARK    4  A    between atoms: N_10  and  N_11 
REMARK    5  A    between atoms: N_11  and  C_12 
REMARK    6  A    between atoms: C_14  and  S_15 
REMARK    7  A    between atoms: S_15  and  C_16 
REMARK    8  A    between atoms: C_16  and  C_17 
REMARK    9  A    between atoms: C_17  and  C_18 
REMARK       I    between atoms: C_18  and  N_20 
REMARK   10  A    between atoms: N_20  and  C_21 
REMARK   11  A    between atoms: C_31  and  O_32 
ROOT
ATOM      1  C   UNL d   1      27.943 -16.520   0.442  0.00  0.00     0.739 A 
ATOM      2  N   UNL d   1      26.625 -16.499   0.379  0.00  0.00    -0.034 NA
ATOM      3  C   UNL d   1      26.280 -17.794   0.092  0.00  0.00     0.226 A 
ATOM      4  N   UNL d   1      27.320 -18.636   0.007  0.00  0.00    -0.132 NA
ATOM      5  N   UNL d   1      28.357 -17.809   0.230  0.00  0.00    -0.103 N 
ATOM      6  H   UNL d   1      29.290 -18.198   0.299  0.00  0.00     0.208 HD
ENDROOT
BRANCH   1   7
ATOM      7  N   UNL d   1      28.830 -15.528   0.744  0.00  0.00    -0.106 N 
ATOM      8  H   UNL d   1      29.376 -15.575   1.604  0.00  0.00     0.208 HD
BRANCH   7   9
ATOM      9  N   UNL d   1      29.031 -14.502  -0.127  0.00  0.00    -0.171 NA
ATOM     10  C   UNL d   1      28.012 -13.878  -0.633  0.00  0.00     0.153 C 
BRANCH  10  11
ATOM     11  C   UNL d   1      28.232 -12.789  -1.630  0.00  0.00     0.017 A 
ATOM     12  C   UNL d   1      29.532 -12.316  -1.864  0.00  0.00     0.016 A 
ATOM     13  C   UNL d   1      29.752 -11.290  -2.789  0.00  0.00     0.002 A 
ATOM     14  C   UNL d   1      28.682 -10.742  -3.491  0.00  0.00     0.010 A 
ATOM     15  C   UNL d   1      27.376 -11.227  -3.308  0.00  0.00    -0.021 A 
ATOM     16  C   UNL d   1      27.158 -12.223  -2.341  0.00  0.00     0.084 A 
BRANCH  15  17
ATOM     17  C   UNL d   1      26.224 -10.661  -4.114  0.00  0.00     0.067 C 
BRANCH  17  18
ATOM     18  C   UNL d   1      26.098 -11.252  -5.495  0.00  0.00    -0.032 C 
ATOM     19  C   UNL d   1      25.529 -10.609  -6.521  0.00  0.00     0.007 C 
ENDBRANCH  17  18
ENDBRANCH  15  17
BRANCH  16  20
ATOM     20  O   UNL d   1      25.858 -12.604  -2.120  0.00  0.00    -0.359 OA
ATOM     21  H   UNL d   1      25.493 -12.989  -2.949  0.00  0.00     0.217 HD
ENDBRANCH  16  20
ENDBRANCH  10  11
ENDBRANCH   7   9
ENDBRANCH   1   7
BRANCH   3  22
ATOM     22  S   UNL d   1      24.648 -18.400  -0.144  0.00  0.00    -0.087 SA
BRANCH  22  23
ATOM     23  C   UNL d   1      24.018 -17.475  -1.582  0.00  0.00     0.092 C 
BRANCH  23  24
ATOM     24  C   UNL d   1      24.252 -15.950  -1.437  0.00  0.00     0.113 C 
BRANCH  24  25
ATOM     25  C   UNL d   1      25.124 -15.439  -2.582  0.00  0.00     0.222 C 
ATOM     26  O   UNL d   1      24.621 -14.812  -3.520  0.00  0.00    -0.273 OA
ATOM     27  N   UNL d   1      26.478 -15.761  -2.510  0.00  0.00    -0.327 N 
ATOM     28  H   UNL d   1      26.756 -16.512  -1.890  0.00  0.00     0.169 HD
BRANCH  27  29
ATOM     29  C   UNL d   1      27.373 -15.424  -3.568  0.00  0.00     0.040 A 
ATOM     30  C   UNL d   1      26.915 -14.658  -4.646  0.00  0.00     0.030 A 
ATOM     31  C   UNL d   1      27.746 -14.359  -5.729  0.00  0.00     0.009 A 
ATOM     32  C   UNL d   1      29.060 -14.826  -5.764  0.00  0.00    -0.061 A 
ATOM     33  C   UNL d   1      29.930 -14.542  -6.956  0.00  0.00     0.048 C 
ATOM     34  C   UNL d   1      29.537 -15.574  -4.676  0.00  0.00     0.015 A 
ATOM     35  C   UNL d   1      28.711 -15.863  -3.563  0.00  0.00    -0.035 A 
ATOM     36  C   UNL d   1      29.247 -16.708  -2.444  0.00  0.00     0.050 C 
ENDBRANCH  27  29
ENDBRANCH  24  25
ENDBRANCH  23  24
ENDBRANCH  22  23
ENDBRANCH   3  22
TORSDOF 11
ENDMDL
MODEL 9
REMARK VINA RESULT:    -6.644      5.767      9.383
REMARK INTER + INTRA:         -14.216
REMARK INTER:                  -9.926
REMARK INTRA:                  -4.290
REMARK CONF_INDEPENDENT:        3.281
REMARK UNBOUND:                -4.290
REMARK  11 active torsions:
REMARK  status: ('A' for Active; 'I' for Inactive)
REMARK    1  A    between atoms: C_2  and  C_3 
REMARK    2  A    between atoms: C_3  and  C_4 
REMARK    3  A    between atoms: C_8  and  C_9 
REMARK    4  A    between atoms: N_10  and  N_11 
REMARK    5  A    between atoms: N_11  and  C_12 
REMARK    6  A    between atoms: C_14  and  S_15 
REMARK    7  A    between atoms: S_15  and  C_16 
REMARK    8  A    between atoms: C_16  and  C_17 
REMARK    9  A    between atoms: C_17  and  C_18 
REMARK       I    between atoms: C_18  and  N_20 
REMARK   10  A    between atoms: N_20  and  C_21 
REMARK   11  A    between atoms: C_31  and  O_32 
ROOT
ATOM      1  C   UNL d   1      27.877 -17.156   0.161  0.00  0.00     0.739 A 
ATOM      2  N   UNL d   1      26.647 -16.677   0.133  0.00  0.00    -0.034 NA
ATOM      3  C   UNL d   1      25.851 -17.792   0.153  0.00  0.00     0.226 A 
ATOM      4  N   UNL d   1      26.523 -18.950   0.229  0.00  0.00    -0.132 NA
ATOM      5  N   UNL d   1      27.799 -18.523   0.231  0.00  0.00    -0.103 N 
ATOM      6  H   UNL d   1      28.543 -19.197   0.359  0.00  0.00     0.208 HD
ENDROOT
BRANCH   1   7
ATOM      7  N   UNL d   1      29.077 -16.509   0.208  0.00  0.00    -0.106 N 
ATOM      8  H   UNL d   1      29.727 -16.690   0.973  0.00  0.00     0.208 HD
BRANCH   7   9
ATOM      9  N   UNL d   1      29.437 -15.662  -0.795  0.00  0.00    -0.171 NA
ATOM     10  C   UNL d   1      28.961 -15.838  -1.989  0.00  0.00     0.153 C 
BRANCH  10  11
ATOM     11  C   UNL d   1      29.398 -14.943  -3.100  0.00  0.00     0.017 A 
ATOM     12  C   UNL d   1      30.488 -14.081  -2.907  0.00  0.00     0.016 A 
ATOM     13  C   UNL d   1      30.903 -13.230  -3.936  0.00  0.00     0.002 A 
ATOM     14  C   UNL d   1      30.243 -13.244  -5.162  0.00  0.00     0.010 A 
ATOM     15  C   UNL d   1      29.177 -14.128  -5.397  0.00  0.00    -0.021 A 
ATOM     16  C   UNL d   1      28.736 -14.943  -4.341  0.00  0.00     0.084 A 
BRANCH  15  17
ATOM     17  C   UNL d   1      28.497 -14.174  -6.751  0.00  0.00     0.067 C 
BRANCH  17  18
ATOM     18  C   UNL d   1      28.587 -12.879  -7.521  0.00  0.00    -0.032 C 
ATOM     19  C   UNL d   1      27.798 -11.827  -7.282  0.00  0.00     0.007 C 
ENDBRANCH  17  18
ENDBRANCH  15  17
BRANCH  16  20
ATOM     20  O   UNL d   1      27.631 -15.724  -4.575  0.00  0.00    -0.359 OA
ATOM     21  H   UNL d   1      26.823 -15.171  -4.475  0.00  0.00     0.217 HD
ENDBRANCH  16  20
ENDBRANCH  10  11
ENDBRANCH   7   9
ENDBRANCH   1   7
BRANCH   3  22
ATOM     22  S   UNL d   1      24.094 -17.807   0.105  0.00  0.00    -0.087 SA
BRANCH  22  23
ATOM     23  C   UNL d   1      23.665 -16.753  -1.317  0.00  0.00     0.092 C 
BRANCH  23  24
ATOM     24  C   UNL d   1      24.779 -16.751  -2.395  0.00  0.00     0.113 C 
BRANCH  24  25
ATOM     25  C   UNL d   1      25.154 -15.317  -2.762  0.00  0.00     0.222 C 
ATOM     26  O   UNL d   1      24.780 -14.826  -3.832  0.00  0.00    -0.273 OA
ATOM     27  N   UNL d   1      25.960 -14.642  -1.847  0.00  0.00    -0.327 N 
ATOM     28  H   UNL d   1      26.463 -15.191  -1.160  0.00  0.00     0.169 HD
BRANCH  27  29
ATOM     29  C   UNL d   1      26.456 -13.334  -2.124  0.00  0.00     0.040 A 
ATOM     30  C   UNL d   1      26.378 -12.825  -3.426  0.00  0.00     0.030 A 
ATOM     31  C   UNL d   1      26.907 -11.572  -3.748  0.00  0.00     0.009 A 
ATOM     32  C   UNL d   1      27.536 -10.797  -2.774  0.00  0.00    -0.061 A 
ATOM     33  C   UNL d   1      28.146  -9.474  -3.142  0.00  0.00     0.048 C 
ATOM     34  C   UNL d   1      27.597 -11.288  -1.461  0.00  0.00     0.015 A 
ATOM     35  C   UNL d   1      27.043 -12.545  -1.118  0.00  0.00    -0.035 A 
ATOM     36  C   UNL d   1      27.176 -13.052   0.290  0.00  0.00     0.050 C 
ENDBRANCH  27  29
ENDBRANCH  24  25
ENDBRANCH  23  24
ENDBRANCH  22  23
ENDBRANCH   3  22
TORSDOF 11
ENDMDL
