MODEL 1
REMARK VINA RESULT:    -6.710      0.000      0.000
REMARK INTER + INTRA:          -9.429
REMARK INTER:                  -8.201
REMARK INTRA:                  -1.228
REMARK CONF_INDEPENDENT:        1.492
REMARK UNBOUND:                -1.228
REMARK  5 active torsions:
REMARK  status: ('A' for Active; 'I' for Inactive)
REMARK    1  A    between atoms: O_2  and  C_3 
REMARK    2  A    between atoms: C_8  and  C_9 
REMARK       I    between atoms: C_9  and  N_11 
REMARK    3  A    between atoms: N_11  and  C_12 
REMARK    4  A    between atoms: C_12  and  N_14 
REMARK    5  A    between atoms: N_14  and  C_15 
ROOT
ATOM      1  C   UNL d   1      24.485 -16.704  -1.334  0.00  0.00     0.055 A 
ATOM      2  C   UNL d   1      23.084 -16.562  -1.270  0.00  0.00     0.031 A 
ATOM      3  C   UNL d   1      22.314 -17.408  -0.448  0.00  0.00     0.002 A 
ATOM      4  C   UNL d   1      22.919 -18.446   0.256  0.00  0.00     0.002 A 
ATOM      5  C   UNL d   1      24.303 -18.575   0.231  0.00  0.00     0.025 A 
ATOM      6  C   UNL d   1      25.092 -17.688  -0.518  0.00  0.00     0.071 A 
ATOM      7  C   UNL d   1      26.514 -17.819  -0.408  0.00  0.00     0.102 C 
ATOM      8  N   UNL d   1      27.675 -17.934  -0.333  0.00  0.00    -0.191 NA
ENDROOT
BRANCH   1   9
ATOM      9  N   UNL d   1      25.250 -15.885  -2.251  0.00  0.00    -0.332 N 
ATOM     10  H   UNL d   1      25.340 -16.276  -3.185  0.00  0.00     0.168 HD
BRANCH   9  11
ATOM     11  C   UNL d   1      26.021 -14.766  -1.820  0.00  0.00     0.179 C 
ATOM     12  S   UNL d   1      26.404 -14.449  -0.208  0.00  0.00    -0.040 SA
BRANCH  11  13
ATOM     13  N   UNL d   1      26.514 -13.937  -2.840  0.00  0.00    -0.299 N 
ATOM     14  C   UNL d   1      26.114 -13.992  -4.198  0.00  0.00     0.260 C 
ATOM     15  O   UNL d   1      25.151 -14.636  -4.609  0.00  0.00    -0.267 OA
ATOM     16  H   UNL d   1      27.266 -13.299  -2.616  0.00  0.00     0.171 HD
BRANCH  14  17
ATOM     17  C   UNL d   1      26.883 -13.285  -5.268  0.00  0.00     0.065 A 
ATOM     18  C   UNL d   1      26.621 -11.894  -5.411  0.00  0.00     0.020 A 
ATOM     19  C   UNL d   1      27.310 -11.096  -6.324  0.00  0.00     0.001 A 
ATOM     20  C   UNL d   1      28.293 -11.676  -7.108  0.00  0.00     0.003 A 
ATOM     21  C   UNL d   1      28.495 -13.064  -7.054  0.00  0.00     0.038 A 
ATOM     22  C   UNL d   1      27.786 -13.882  -6.146  0.00  0.00     0.084 A 
BRANCH  22  23
ATOM     23  O   UNL d   1      28.152 -15.200  -6.095  0.00  0.00    -0.355 OA
ATOM     24  C   UNL d   1      28.932 -15.613  -4.969  0.00  0.00     0.210 C 
ENDBRANCH  22  23
ENDBRANCH  14  17
ENDBRANCH  11  13
ENDBRANCH   9  11
ENDBRANCH   1   9
TORSDOF 5
ENDMDL
MODEL 2
REMARK VINA RESULT:    -6.536      1.176      2.222
REMARK INTER + INTRA:          -9.304
REMARK INTER:                  -8.027
REMARK INTRA:                  -1.277
REMARK CONF_INDEPENDENT:        1.492
REMARK UNBOUND:                -1.277
REMARK  5 active torsions:
REMARK  status: ('A' for Active; 'I' for Inactive)
REMARK    1  A    between atoms: O_2  and  C_3 
REMARK    2  A    between atoms: C_8  and  C_9 
REMARK       I    between atoms: C_9  and  N_11 
REMARK    3  A    between atoms: N_11  and  C_12 
REMARK    4  A    between atoms: C_12  and  N_14 
REMARK    5  A    between atoms: N_14  and  C_15 
ROOT
ATOM      1  C   UNL d   1      25.810 -16.348  -1.020  0.00  0.00     0.055 A 
ATOM      2  C   UNL d   1      27.162 -16.708  -0.852  0.00  0.00     0.031 A 
ATOM      3  C   UNL d   1      27.514 -17.836  -0.085  0.00  0.00     0.002 A 
ATOM      4  C   UNL d   1      26.534 -18.568   0.582  0.00  0.00     0.002 A 
ATOM      5  C   UNL d   1      25.194 -18.245   0.396  0.00  0.00     0.025 A 
ATOM      6  C   UNL d   1      24.823 -17.173  -0.432  0.00  0.00     0.071 A 
ATOM      7  C   UNL d   1      23.423 -16.971  -0.658  0.00  0.00     0.102 C 
ATOM      8  N   UNL d   1      22.280 -16.794  -0.830  0.00  0.00    -0.191 NA
ENDROOT
BRANCH   1   9
ATOM      9  N   UNL d   1      25.472 -15.135  -1.736  0.00  0.00    -0.332 N 
ATOM     10  H   UNL d   1      24.755 -15.256  -2.448  0.00  0.00     0.168 HD
BRANCH   9  11
ATOM     11  C   UNL d   1      26.249 -13.945  -1.638  0.00  0.00     0.179 C 
ATOM     12  S   UNL d   1      26.655 -13.200  -0.178  0.00  0.00    -0.040 SA
BRANCH  11  13
ATOM     13  N   UNL d   1      26.728 -13.427  -2.851  0.00  0.00    -0.299 N 
ATOM     14  C   UNL d   1      26.251 -13.790  -4.135  0.00  0.00     0.260 C 
ATOM     15  O   UNL d   1      25.233 -14.451  -4.333  0.00  0.00    -0.267 OA
ATOM     16  H   UNL d   1      27.525 -12.804  -2.825  0.00  0.00     0.171 HD
BRANCH  14  17
ATOM     17  C   UNL d   1      26.996 -13.421  -5.379  0.00  0.00     0.065 A 
ATOM     18  C   UNL d   1      26.821 -12.088  -5.840  0.00  0.00     0.020 A 
ATOM     19  C   UNL d   1      27.503 -11.587  -6.950  0.00  0.00     0.001 A 
ATOM     20  C   UNL d   1      28.391 -12.414  -7.615  0.00  0.00     0.003 A 
ATOM     21  C   UNL d   1      28.501 -13.762  -7.238  0.00  0.00     0.038 A 
ATOM     22  C   UNL d   1      27.798 -14.281  -6.127  0.00  0.00     0.084 A 
BRANCH  22  23
ATOM     23  O   UNL d   1      28.076 -15.575  -5.778  0.00  0.00    -0.355 OA
ATOM     24  C   UNL d   1      29.433 -15.878  -5.444  0.00  0.00     0.210 C 
ENDBRANCH  22  23
ENDBRANCH  14  17
ENDBRANCH  11  13
ENDBRANCH   9  11
ENDBRANCH   1   9
TORSDOF 5
ENDMDL
MODEL 3
REMARK VINA RESULT:    -6.473      1.988      7.062
REMARK INTER + INTRA:          -9.852
REMARK INTER:                  -7.965
REMARK INTRA:                  -1.887
REMARK CONF_INDEPENDENT:        1.492
REMARK UNBOUND:                -1.887
REMARK  5 active torsions:
REMARK  status: ('A' for Active; 'I' for Inactive)
REMARK    1  A    between atoms: O_2  and  C_3 
REMARK    2  A    between atoms: C_8  and  C_9 
REMARK       I    between atoms: C_9  and  N_11 
REMARK    3  A    between atoms: N_11  and  C_12 
REMARK    4  A    between atoms: C_12  and  N_14 
REMARK    5  A    between atoms: N_14  and  C_15 
ROOT
ATOM      1  C   UNL d   1      26.190 -11.974  -5.176  0.00  0.00     0.055 A 
ATOM      2  C   UNL d   1      25.880 -10.652  -5.557  0.00  0.00     0.031 A 
ATOM      3  C   UNL d   1      26.515 -10.058  -6.666  0.00  0.00     0.002 A 
ATOM      4  C   UNL d   1      27.511 -10.742  -7.357  0.00  0.00     0.002 A 
ATOM      5  C   UNL d   1      27.800 -12.059  -7.016  0.00  0.00     0.025 A 
ATOM      6  C   UNL d   1      27.118 -12.693  -5.964  0.00  0.00     0.071 A 
ATOM      7  C   UNL d   1      27.395 -14.081  -5.743  0.00  0.00     0.102 C 
ATOM      8  N   UNL d   1      27.633 -15.209  -5.551  0.00  0.00    -0.191 NA
ENDROOT
BRANCH   1   9
ATOM      9  N   UNL d   1      25.594 -12.536  -3.982  0.00  0.00    -0.332 N 
ATOM     10  H   UNL d   1      24.578 -12.564  -3.995  0.00  0.00     0.168 HD
BRANCH   9  11
ATOM     11  C   UNL d   1      26.345 -12.786  -2.796  0.00  0.00     0.179 C 
ATOM     12  S   UNL d   1      27.354 -11.650  -2.061  0.00  0.00    -0.040 SA
BRANCH  11  13
ATOM     13  N   UNL d   1      26.158 -14.048  -2.212  0.00  0.00    -0.299 N 
ATOM     14  C   UNL d   1      24.977 -14.824  -2.312  0.00  0.00     0.260 C 
ATOM     15  O   UNL d   1      24.050 -14.576  -3.079  0.00  0.00    -0.267 OA
ATOM     16  H   UNL d   1      26.887 -14.409  -1.610  0.00  0.00     0.171 HD
BRANCH  14  17
ATOM     17  C   UNL d   1      24.747 -16.013  -1.433  0.00  0.00     0.065 A 
ATOM     18  C   UNL d   1      23.393 -16.415  -1.267  0.00  0.00     0.020 A 
ATOM     19  C   UNL d   1      23.035 -17.542  -0.528  0.00  0.00     0.001 A 
ATOM     20  C   UNL d   1      24.035 -18.305   0.051  0.00  0.00     0.003 A 
ATOM     21  C   UNL d   1      25.368 -17.868  -0.016  0.00  0.00     0.038 A 
ATOM     22  C   UNL d   1      25.735 -16.715  -0.746  0.00  0.00     0.084 A 
BRANCH  22  23
ATOM     23  O   UNL d   1      27.075 -16.455  -0.845  0.00  0.00    -0.355 OA
ATOM     24  C   UNL d   1      27.962 -17.364  -0.186  0.00  0.00     0.210 C 
ENDBRANCH  22  23
ENDBRANCH  14  17
ENDBRANCH  11  13
ENDBRANCH   9  11
ENDBRANCH   1   9
TORSDOF 5
ENDMDL
MODEL 4
REMARK VINA RESULT:    -6.463      4.866      6.979
REMARK INTER + INTRA:          -9.382
REMARK INTER:                  -7.954
REMARK INTRA:                  -1.428
REMARK CONF_INDEPENDENT:        1.492
REMARK UNBOUND:                -1.428
REMARK  5 active torsions:
REMARK  status: ('A' for Active; 'I' for Inactive)
REMARK    1  A    between atoms: O_2  and  C_3 
REMARK    2  A    between atoms: C_8  and  C_9 
REMARK       I    between atoms: C_9  and  N_11 
REMARK    3  A    between atoms: N_11  and  C_12 
REMARK    4  A    between atoms: C_12  and  N_14 
REMARK    5  A    between atoms: N_14  and  C_15 
ROOT
ATOM      1  C   UNL d   1      26.031 -16.524  -0.696  0.00  0.00     0.055 A 
ATOM      2  C   UNL d   1      25.939 -17.562   0.254  0.00  0.00     0.031 A 
ATOM      3  C   UNL d   1      24.851 -18.457   0.234  0.00  0.00     0.002 A 
ATOM      4  C   UNL d   1      23.813 -18.284  -0.677  0.00  0.00     0.002 A 
ATOM      5  C   UNL d   1      23.908 -17.287  -1.642  0.00  0.00     0.025 A 
ATOM      6  C   UNL d   1      25.025 -16.438  -1.687  0.00  0.00     0.071 A 
ATOM      7  C   UNL d   1      25.100 -15.508  -2.774  0.00  0.00     0.102 C 
ATOM      8  N   UNL d   1      25.155 -14.737  -3.651  0.00  0.00    -0.191 NA
ENDROOT
BRANCH   1   9
ATOM      9  N   UNL d   1      27.107 -15.560  -0.606  0.00  0.00    -0.332 N 
ATOM     10  H   UNL d   1      27.096 -14.851  -1.335  0.00  0.00     0.168 HD
BRANCH   9  11
ATOM     11  C   UNL d   1      28.223 -15.735   0.263  0.00  0.00     0.179 C 
ATOM     12  S   UNL d   1      29.610 -16.608  -0.145  0.00  0.00    -0.040 SA
BRANCH  11  13
ATOM     13  N   UNL d   1      28.140 -15.081   1.501  0.00  0.00    -0.299 N 
ATOM     14  C   UNL d   1      27.452 -13.864   1.734  0.00  0.00     0.260 C 
ATOM     15  O   UNL d   1      26.685 -13.340   0.930  0.00  0.00    -0.267 OA
ATOM     16  H   UNL d   1      28.670 -15.456   2.278  0.00  0.00     0.171 HD
BRANCH  14  17
ATOM     17  C   UNL d   1      27.648 -13.084   2.996  0.00  0.00     0.065 A 
ATOM     18  C   UNL d   1      27.342 -11.697   2.927  0.00  0.00     0.020 A 
ATOM     19  C   UNL d   1      27.418 -10.861   4.041  0.00  0.00     0.001 A 
ATOM     20  C   UNL d   1      27.788 -11.405   5.258  0.00  0.00     0.003 A 
ATOM     21  C   UNL d   1      28.192 -12.748   5.325  0.00  0.00     0.038 A 
ATOM     22  C   UNL d   1      28.137 -13.596   4.196  0.00  0.00     0.084 A 
BRANCH  22  23
ATOM     23  O   UNL d   1      28.436 -14.915   4.406  0.00  0.00    -0.355 OA
ATOM     24  C   UNL d   1      29.651 -15.200   5.106  0.00  0.00     0.210 C 
ENDBRANCH  22  23
ENDBRANCH  14  17
ENDBRANCH  11  13
ENDBRANCH   9  11
ENDBRANCH   1   9
TORSDOF 5
ENDMDL
MODEL 5
REMARK VINA RESULT:    -6.462      2.402      3.751
REMARK INTER + INTRA:          -9.345
REMARK INTER:                  -7.954
REMARK INTRA:                  -1.392
REMARK CONF_INDEPENDENT:        1.492
REMARK UNBOUND:                -1.392
REMARK  5 active torsions:
REMARK  status: ('A' for Active; 'I' for Inactive)
REMARK    1  A    between atoms: O_2  and  C_3 
REMARK    2  A    between atoms: C_8  and  C_9 
REMARK       I    between atoms: C_9  and  N_11 
REMARK    3  A    between atoms: N_11  and  C_12 
REMARK    4  A    between atoms: C_12  and  N_14 
REMARK    5  A    between atoms: N_14  and  C_15 
ROOT
ATOM      1  C   UNL d   1      25.658 -16.981  -1.493  0.00  0.00     0.055 A 
ATOM      2  C   UNL d   1      26.996 -16.743  -1.117  0.00  0.00     0.031 A 
ATOM      3  C   UNL d   1      27.500 -17.248   0.098  0.00  0.00     0.002 A 
ATOM      4  C   UNL d   1      26.663 -17.927   0.980  0.00  0.00     0.002 A 
ATOM      5  C   UNL d   1      25.352 -18.200   0.606  0.00  0.00     0.025 A 
ATOM      6  C   UNL d   1      24.858 -17.774  -0.638  0.00  0.00     0.071 A 
ATOM      7  C   UNL d   1      23.534 -18.186  -0.995  0.00  0.00     0.102 C 
ATOM      8  N   UNL d   1      22.446 -18.507  -1.282  0.00  0.00    -0.191 NA
ENDROOT
BRANCH   1   9
ATOM      9  N   UNL d   1      25.133 -16.378  -2.700  0.00  0.00    -0.332 N 
ATOM     10  H   UNL d   1      24.409 -16.926  -3.160  0.00  0.00     0.168 HD
BRANCH   9  11
ATOM     11  C   UNL d   1      25.748 -15.256  -3.328  0.00  0.00     0.179 C 
ATOM     12  S   UNL d   1      24.952 -13.804  -3.655  0.00  0.00    -0.040 SA
BRANCH  11  13
ATOM     13  N   UNL d   1      27.112 -15.396  -3.625  0.00  0.00    -0.299 N 
ATOM     14  C   UNL d   1      27.658 -15.457  -4.931  0.00  0.00     0.260 C 
ATOM     15  O   UNL d   1      27.030 -15.200  -5.956  0.00  0.00    -0.267 OA
ATOM     16  H   UNL d   1      27.757 -15.541  -2.858  0.00  0.00     0.171 HD
BRANCH  14  17
ATOM     17  C   UNL d   1      29.069 -15.894  -5.168  0.00  0.00     0.065 A 
ATOM     18  C   UNL d   1      29.591 -15.643  -6.467  0.00  0.00     0.020 A 
ATOM     19  C   UNL d   1      30.911 -15.940  -6.811  0.00  0.00     0.001 A 
ATOM     20  C   UNL d   1      31.744 -16.482  -5.848  0.00  0.00     0.003 A 
ATOM     21  C   UNL d   1      31.220 -16.831  -4.593  0.00  0.00     0.038 A 
ATOM     22  C   UNL d   1      29.879 -16.553  -4.245  0.00  0.00     0.084 A 
BRANCH  22  23
ATOM     23  O   UNL d   1      29.513 -16.823  -2.954  0.00  0.00    -0.355 OA
ATOM     24  C   UNL d   1      30.486 -17.468  -2.127  0.00  0.00     0.210 C 
ENDBRANCH  22  23
ENDBRANCH  14  17
ENDBRANCH  11  13
ENDBRANCH   9  11
ENDBRANCH   1   9
TORSDOF 5
ENDMDL
MODEL 6
REMARK VINA RESULT:    -6.215      1.749      3.098
REMARK INTER + INTRA:          -9.365
REMARK INTER:                  -7.707
REMARK INTRA:                  -1.659
REMARK CONF_INDEPENDENT:        1.492
REMARK UNBOUND:                -1.659
REMARK  5 active torsions:
REMARK  status: ('A' for Active; 'I' for Inactive)
REMARK    1  A    between atoms: O_2  and  C_3 
REMARK    2  A    between atoms: C_8  and  C_9 
REMARK       I    between atoms: C_9  and  N_11 
REMARK    3  A    between atoms: N_11  and  C_12 
REMARK    4  A    between atoms: C_12  and  N_14 
REMARK    5  A    between atoms: N_14  and  C_15 
ROOT
ATOM      1  C   UNL d   1      24.590 -16.630  -0.920  0.00  0.00     0.055 A 
ATOM      2  C   UNL d   1      23.224 -16.312  -1.066  0.00  0.00     0.031 A 
ATOM      3  C   UNL d   1      22.229 -17.227  -0.670  0.00  0.00     0.002 A 
ATOM      4  C   UNL d   1      22.579 -18.489  -0.198  0.00  0.00     0.002 A 
ATOM      5  C   UNL d   1      23.922 -18.802  -0.015  0.00  0.00     0.025 A 
ATOM      6  C   UNL d   1      24.925 -17.870  -0.328  0.00  0.00     0.071 A 
ATOM      7  C   UNL d   1      26.275 -18.227  -0.011  0.00  0.00     0.102 C 
ATOM      8  N   UNL d   1      27.380 -18.523   0.231  0.00  0.00    -0.191 NA
ENDROOT
BRANCH   1   9
ATOM      9  N   UNL d   1      25.598 -15.716  -1.415  0.00  0.00    -0.332 N 
ATOM     10  H   UNL d   1      26.220 -15.350  -0.697  0.00  0.00     0.168 HD
BRANCH   9  11
ATOM     11  C   UNL d   1      25.564 -15.176  -2.733  0.00  0.00     0.179 C 
ATOM     12  S   UNL d   1      24.405 -14.074  -3.272  0.00  0.00    -0.040 SA
BRANCH  11  13
ATOM     13  N   UNL d   1      26.608 -15.575  -3.582  0.00  0.00    -0.299 N 
ATOM     14  C   UNL d   1      27.907 -15.945  -3.155  0.00  0.00     0.260 C 
ATOM     15  O   UNL d   1      28.217 -16.150  -1.983  0.00  0.00    -0.267 OA
ATOM     16  H   UNL d   1      26.458 -15.525  -4.581  0.00  0.00     0.171 HD
BRANCH  14  17
ATOM     17  C   UNL d   1      29.041 -16.075  -4.123  0.00  0.00     0.065 A 
ATOM     18  C   UNL d   1      30.253 -16.602  -3.598  0.00  0.00     0.020 A 
ATOM     19  C   UNL d   1      31.371 -16.837  -4.398  0.00  0.00     0.001 A 
ATOM     20  C   UNL d   1      31.292 -16.563  -5.753  0.00  0.00     0.003 A 
ATOM     21  C   UNL d   1      30.140 -15.948  -6.270  0.00  0.00     0.038 A 
ATOM     22  C   UNL d   1      29.011 -15.687  -5.461  0.00  0.00     0.084 A 
BRANCH  22  23
ATOM     23  O   UNL d   1      27.902 -15.200  -6.097  0.00  0.00    -0.355 OA
ATOM     24  C   UNL d   1      27.779 -13.778  -6.188  0.00  0.00     0.210 C 
ENDBRANCH  22  23
ENDBRANCH  14  17
ENDBRANCH  11  13
ENDBRANCH   9  11
ENDBRANCH   1   9
TORSDOF 5
ENDMDL
MODEL 7
REMARK VINA RESULT:    -6.209      2.430      6.750
REMARK INTER + INTRA:          -9.843
REMARK INTER:                  -7.700
REMARK INTRA:                  -2.143
REMARK CONF_INDEPENDENT:        1.492
REMARK UNBOUND:                -2.143
REMARK  5 active torsions:
REMARK  status: ('A' for Active; 'I' for Inactive)
REMARK    1  A    between atoms: O_2  and  C_3 
REMARK    2  A    between atoms: C_8  and  C_9 
REMARK       I    between atoms: C_9  and  N_11 
REMARK    3  A    between atoms: N_11  and  C_12 
REMARK    4  A    between atoms: C_12  and  N_14 
REMARK    5  A    between atoms: N_14  and  C_15 
ROOT
ATOM      1  C   UNL d   1      25.902 -12.116  -4.790  0.00  0.00     0.055 A 
ATOM      2  C   UNL d   1      25.896 -11.238  -5.893  0.00  0.00     0.031 A 
ATOM      3  C   UNL d   1      26.129  -9.860  -5.713  0.00  0.00     0.002 A 
ATOM      4  C   UNL d   1      26.295  -9.335  -4.435  0.00  0.00     0.002 A 
ATOM      5  C   UNL d   1      26.339 -10.194  -3.342  0.00  0.00     0.025 A 
ATOM      6  C   UNL d   1      26.190 -11.580  -3.514  0.00  0.00     0.071 A 
ATOM      7  C   UNL d   1      26.355 -12.407  -2.356  0.00  0.00     0.102 C 
ATOM      8  N   UNL d   1      26.472 -13.083  -1.409  0.00  0.00    -0.191 NA
ENDROOT
BRANCH   1   9
ATOM      9  N   UNL d   1      25.572 -13.513  -4.982  0.00  0.00    -0.332 N 
ATOM     10  H   UNL d   1      24.574 -13.706  -5.023  0.00  0.00     0.168 HD
BRANCH   9  11
ATOM     11  C   UNL d   1      26.539 -14.553  -4.865  0.00  0.00     0.179 C 
ATOM     12  S   UNL d   1      27.964 -14.622  -5.768  0.00  0.00    -0.040 SA
BRANCH  11  13
ATOM     13  N   UNL d   1      26.273 -15.526  -3.890  0.00  0.00    -0.299 N 
ATOM     14  C   UNL d   1      25.155 -15.521  -3.020  0.00  0.00     0.260 C 
ATOM     15  O   UNL d   1      24.186 -14.776  -3.144  0.00  0.00    -0.267 OA
ATOM     16  H   UNL d   1      26.963 -16.250  -3.735  0.00  0.00     0.171 HD
BRANCH  14  17
ATOM     17  C   UNL d   1      25.090 -16.420  -1.825  0.00  0.00     0.065 A 
ATOM     18  C   UNL d   1      23.803 -16.603  -1.250  0.00  0.00     0.020 A 
ATOM     19  C   UNL d   1      23.583 -17.462  -0.173  0.00  0.00     0.001 A 
ATOM     20  C   UNL d   1      24.653 -18.173   0.342  0.00  0.00     0.003 A 
ATOM     21  C   UNL d   1      25.947 -17.929  -0.145  0.00  0.00     0.038 A 
ATOM     22  C   UNL d   1      26.180 -17.045  -1.222  0.00  0.00     0.084 A 
BRANCH  22  23
ATOM     23  O   UNL d   1      27.463 -16.980  -1.693  0.00  0.00    -0.355 OA
ATOM     24  C   UNL d   1      28.492 -16.712  -0.737  0.00  0.00     0.210 C 
ENDBRANCH  22  23
ENDBRANCH  14  17
ENDBRANCH  11  13
ENDBRANCH   9  11
ENDBRANCH   1   9
TORSDOF 5
ENDMDL
MODEL 8
REMARK VINA RESULT:    -5.981      1.898      3.598
REMARK INTER + INTRA:          -9.381
REMARK INTER:                  -7.473
REMARK INTRA:                  -1.908
REMARK CONF_INDEPENDENT:        1.492
REMARK UNBOUND:                -1.908
REMARK  5 active torsions:
REMARK  status: ('A' for Active; 'I' for Inactive)
REMARK    1  A    between atoms: O_2  and  C_3 
REMARK    2  A    between atoms: C_8  and  C_9 
REMARK       I    between atoms: C_9  and  N_11 
REMARK    3  A    between atoms: N_11  and  C_12 
REMARK    4  A    between atoms: C_12  and  N_14 
REMARK    5  A    between atoms: N_14  and  C_15 
ROOT
ATOM      1  C   UNL d   1      25.682 -17.356  -0.799  0.00  0.00     0.055 A 
ATOM      2  C   UNL d   1      25.178 -18.167   0.238  0.00  0.00     0.031 A 
ATOM      3  C   UNL d   1      23.795 -18.211   0.505  0.00  0.00     0.002 A 
ATOM      4  C   UNL d   1      22.914 -17.398  -0.203  0.00  0.00     0.002 A 
ATOM      5  C   UNL d   1      23.394 -16.621  -1.253  0.00  0.00     0.025 A 
ATOM      6  C   UNL d   1      24.758 -16.629  -1.585  0.00  0.00     0.071 A 
ATOM      7  C   UNL d   1      25.156 -15.887  -2.743  0.00  0.00     0.102 C 
ATOM      8  N   UNL d   1      25.486 -15.268  -3.679  0.00  0.00    -0.191 NA
ENDROOT
BRANCH   1   9
ATOM      9  N   UNL d   1      27.113 -17.254  -1.001  0.00  0.00    -0.332 N 
ATOM     10  H   UNL d   1      27.641 -18.055  -0.663  0.00  0.00     0.168 HD
BRANCH   9  11
ATOM     11  C   UNL d   1      27.747 -16.040  -1.396  0.00  0.00     0.179 C 
ATOM     12  S   UNL d   1      28.084 -14.765  -0.342  0.00  0.00    -0.040 SA
BRANCH  11  13
ATOM     13  N   UNL d   1      28.144 -15.969  -2.740  0.00  0.00    -0.299 N 
ATOM     14  C   UNL d   1      29.287 -16.604  -3.285  0.00  0.00     0.260 C 
ATOM     15  O   UNL d   1      29.957 -17.448  -2.693  0.00  0.00    -0.267 OA
ATOM     16  H   UNL d   1      27.625 -15.362  -3.360  0.00  0.00     0.171 HD
BRANCH  14  17
ATOM     17  C   UNL d   1      29.804 -16.251  -4.644  0.00  0.00     0.065 A 
ATOM     18  C   UNL d   1      31.153 -16.612  -4.913  0.00  0.00     0.020 A 
ATOM     19  C   UNL d   1      31.746 -16.402  -6.158  0.00  0.00     0.001 A 
ATOM     20  C   UNL d   1      30.990 -15.837  -7.170  0.00  0.00     0.003 A 
ATOM     21  C   UNL d   1      29.691 -15.381  -6.894  0.00  0.00     0.038 A 
ATOM     22  C   UNL d   1      29.090 -15.572  -5.629  0.00  0.00     0.084 A 
BRANCH  22  23
ATOM     23  O   UNL d   1      27.779 -15.199  -5.513  0.00  0.00    -0.355 OA
ATOM     24  C   UNL d   1      27.482 -13.811  -5.686  0.00  0.00     0.210 C 
ENDBRANCH  22  23
ENDBRANCH  14  17
ENDBRANCH  11  13
ENDBRANCH   9  11
ENDBRANCH   1   9
TORSDOF 5
ENDMDL
MODEL 9
REMARK VINA RESULT:    -5.957      2.618      7.149
REMARK INTER + INTRA:          -9.297
REMARK INTER:                  -7.448
REMARK INTRA:                  -1.849
REMARK CONF_INDEPENDENT:        1.492
REMARK UNBOUND:                -1.849
REMARK  5 active torsions:
REMARK  status: ('A' for Active; 'I' for Inactive)
REMARK    1  A    between atoms: O_2  and  C_3 
REMARK    2  A    between atoms: C_8  and  C_9 
REMARK       I    between atoms: C_9  and  N_11 
REMARK    3  A    between atoms: N_11  and  C_12 
REMARK    4  A    between atoms: C_12  and  N_14 
REMARK    5  A    between atoms: N_14  and  C_15 
ROOT
ATOM      1  C   UNL d   1      25.914 -11.782  -4.487  0.00  0.00     0.055 A 
ATOM      2  C   UNL d   1      25.992 -11.476  -3.113  0.00  0.00     0.031 A 
ATOM      3  C   UNL d   1      26.413 -10.200  -2.686  0.00  0.00     0.002 A 
ATOM      4  C   UNL d   1      26.829  -9.249  -3.614  0.00  0.00     0.002 A 
ATOM      5  C   UNL d   1      26.723  -9.525  -4.972  0.00  0.00     0.025 A 
ATOM      6  C   UNL d   1      26.227 -10.762  -5.416  0.00  0.00     0.071 A 
ATOM      7  C   UNL d   1      26.047 -10.931  -6.827  0.00  0.00     0.102 C 
ATOM      8  N   UNL d   1      25.915 -11.076  -7.979  0.00  0.00    -0.191 NA
ENDROOT
BRANCH   1   9
ATOM      9  N   UNL d   1      25.566 -13.124  -4.906  0.00  0.00    -0.332 N 
ATOM     10  H   UNL d   1      24.568 -13.278  -5.031  0.00  0.00     0.168 HD
BRANCH   9  11
ATOM     11  C   UNL d   1      26.502 -14.199  -4.893  0.00  0.00     0.179 C 
ATOM     12  S   UNL d   1      27.866 -14.274  -5.884  0.00  0.00    -0.040 SA
BRANCH  11  13
ATOM     13  N   UNL d   1      26.262 -15.205  -3.945  0.00  0.00    -0.299 N 
ATOM     14  C   UNL d   1      25.154 -15.243  -3.062  0.00  0.00     0.260 C 
ATOM     15  O   UNL d   1      24.173 -14.509  -3.152  0.00  0.00    -0.267 OA
ATOM     16  H   UNL d   1      26.963 -15.923  -3.821  0.00  0.00     0.171 HD
BRANCH  14  17
ATOM     17  C   UNL d   1      25.117 -16.179  -1.896  0.00  0.00     0.065 A 
ATOM     18  C   UNL d   1      23.847 -16.362  -1.281  0.00  0.00     0.020 A 
ATOM     19  C   UNL d   1      23.651 -17.253  -0.225  0.00  0.00     0.001 A 
ATOM     20  C   UNL d   1      24.728 -17.995   0.229  0.00  0.00     0.003 A 
ATOM     21  C   UNL d   1      26.008 -17.754  -0.295  0.00  0.00     0.038 A 
ATOM     22  C   UNL d   1      26.217 -16.839  -1.351  0.00  0.00     0.084 A 
BRANCH  22  23
ATOM     23  O   UNL d   1      27.484 -16.777  -1.865  0.00  0.00    -0.355 OA
ATOM     24  C   UNL d   1      28.488 -16.174  -1.043  0.00  0.00     0.210 C 
ENDBRANCH  22  23
ENDBRANCH  14  17
ENDBRANCH  11  13
ENDBRANCH   9  11
ENDBRANCH   1   9
TORSDOF 5
ENDMDL
