MODEL 1
REMARK VINA RESULT:    -8.721      0.000      0.000
REMARK INTER + INTRA:         -11.284
REMARK INTER:                 -10.511
REMARK INTRA:                  -0.773
REMARK CONF_INDEPENDENT:        1.790
REMARK UNBOUND:                -0.773
REMARK  6 active torsions:
REMARK  status: ('A' for Active; 'I' for Inactive)
REMARK    1  A    between atoms: C_2  and  N_3 
REMARK    2  A    between atoms: C_2  and  C_20 
REMARK    3  A    between atoms: N_3  and  C_4 
REMARK    4  A    between atoms: C_7  and  O_8 
REMARK    5  A    between atoms: O_8  and  C_9 
REMARK    6  A    between atoms: C_9  and  C_10 
REMARK       I    between atoms: C_20  and  N_22 
REMARK       I    between atoms: N_22  and  C_23 
REMARK       I    between atoms: C_23  and  N_24 
ROOT
ATOM      1  C   UNL d   1      25.235 -17.232  -0.367  0.00  0.00     0.031 A 
ATOM      2  C   UNL d   1      24.361 -16.167  -0.622  0.00  0.00     0.032 A 
ATOM      3  C   UNL d   1      22.976 -16.332  -0.779  0.00  0.00     0.042 A 
ATOM      4  C   UNL d   1      22.414 -17.595  -0.705  0.00  0.00     0.107 A 
ATOM      5  C   UNL d   1      23.269 -18.669  -0.446  0.00  0.00     0.151 A 
ATOM      6  F   UNL d   1      22.809 -19.926  -0.362  0.00  0.00    -0.203 F 
ATOM      7  C   UNL d   1      24.647 -18.493  -0.272  0.00  0.00     0.074 A 
ENDROOT
BRANCH   1   8
ATOM      8  N   UNL d   1      26.609 -17.119  -0.200  0.00  0.00    -0.377 N 
ATOM      9  H   UNL d   1      27.045 -17.851   0.353  0.00  0.00     0.160 HD
BRANCH   8  10
ATOM     10  C   UNL d   1      27.481 -16.054  -0.735  0.00  0.00     0.170 C 
ATOM     11  C   UNL d   1      27.172 -14.685  -0.134  0.00  0.00     0.042 C 
BRANCH  10  12
ATOM     12  C   UNL d   1      27.312 -15.869  -2.274  0.00  0.00     0.247 C 
ATOM     13  O   UNL d   1      28.148 -16.322  -3.064  0.00  0.00    -0.271 OA
ATOM     14  N   UNL d   1      26.178 -15.219  -2.728  0.00  0.00    -0.278 N 
ATOM     15  C   UNL d   1      25.850 -15.001  -4.046  0.00  0.00     0.320 C 
ATOM     16  H   UNL d   1      25.491 -14.872  -2.073  0.00  0.00     0.173 HD
ATOM     17  N   UNL d   1      26.715 -15.458  -4.977  0.00  0.00    -0.352 N 
ATOM     18  O   UNL d   1      24.817 -14.415  -4.368  0.00  0.00    -0.247 OA
ATOM     19  H   UNL d   1      27.560 -15.949  -4.690  0.00  0.00     0.160 HD
ATOM     20  H   UNL d   1      26.538 -15.331  -5.963  0.00  0.00     0.160 HD
ENDBRANCH  10  12
ENDBRANCH   8  10
ENDBRANCH   1   8
BRANCH   4  21
ATOM     21  O   UNL d   1      21.061 -17.642  -0.919  0.00  0.00    -0.344 OA
BRANCH  21  22
ATOM     22  C   UNL d   1      20.558 -18.935  -1.235  0.00  0.00     0.214 C 
BRANCH  22  23
ATOM     23  C   UNL d   1      20.001 -19.607  -0.010  0.00  0.00    -0.031 A 
ATOM     24  C   UNL d   1      20.510 -19.332   1.267  0.00  0.00     0.009 A 
ATOM     25  C   UNL d   1      19.914 -19.899   2.397  0.00  0.00     0.004 A 
ATOM     26  C   UNL d   1      18.819 -20.752   2.254  0.00  0.00     0.042 A 
ATOM     27  C   UNL d   1      18.334 -21.038   0.984  0.00  0.00     0.117 A 
ATOM     28  F   UNL d   1      17.278 -21.851   0.843  0.00  0.00    -0.206 F 
ATOM     29  C   UNL d   1      18.915 -20.481  -0.144  0.00  0.00     0.051 A 
ENDBRANCH  22  23
ENDBRANCH  21  22
ENDBRANCH   4  21
TORSDOF 6
ENDMDL
MODEL 2
REMARK VINA RESULT:    -8.326      1.498      1.938
REMARK INTER + INTRA:         -10.632
REMARK INTER:                 -10.116
REMARK INTRA:                  -0.517
REMARK CONF_INDEPENDENT:        1.790
REMARK UNBOUND:                -0.517
REMARK  6 active torsions:
REMARK  status: ('A' for Active; 'I' for Inactive)
REMARK    1  A    between atoms: C_2  and  N_3 
REMARK    2  A    between atoms: C_2  and  C_20 
REMARK    3  A    between atoms: N_3  and  C_4 
REMARK    4  A    between atoms: C_7  and  O_8 
REMARK    5  A    between atoms: O_8  and  C_9 
REMARK    6  A    between atoms: C_9  and  C_10 
REMARK       I    between atoms: C_20  and  N_22 
REMARK       I    between atoms: N_22  and  C_23 
REMARK       I    between atoms: C_23  and  N_24 
ROOT
ATOM      1  C   UNL d   1      25.989 -16.616  -0.403  0.00  0.00     0.031 A 
ATOM      2  C   UNL d   1      26.030 -17.994  -0.154  0.00  0.00     0.032 A 
ATOM      3  C   UNL d   1      24.896 -18.819  -0.217  0.00  0.00     0.042 A 
ATOM      4  C   UNL d   1      23.658 -18.277  -0.518  0.00  0.00     0.107 A 
ATOM      5  C   UNL d   1      23.599 -16.905  -0.774  0.00  0.00     0.151 A 
ATOM      6  F   UNL d   1      22.440 -16.297  -1.068  0.00  0.00    -0.203 F 
ATOM      7  C   UNL d   1      24.738 -16.093  -0.727  0.00  0.00     0.074 A 
ENDROOT
BRANCH   1   8
ATOM      8  N   UNL d   1      27.082 -15.761  -0.357  0.00  0.00    -0.377 N 
ATOM      9  H   UNL d   1      27.958 -16.185  -0.062  0.00  0.00     0.160 HD
BRANCH   8  10
ATOM     10  C   UNL d   1      27.096 -14.321  -0.683  0.00  0.00     0.170 C 
ATOM     11  C   UNL d   1      26.517 -13.460   0.437  0.00  0.00     0.042 C 
BRANCH  10  12
ATOM     12  C   UNL d   1      26.229 -13.992  -1.937  0.00  0.00     0.247 C 
ATOM     13  O   UNL d   1      25.607 -12.927  -2.018  0.00  0.00    -0.271 OA
ATOM     14  N   UNL d   1      26.211 -14.910  -2.972  0.00  0.00    -0.278 N 
ATOM     15  C   UNL d   1      25.535 -14.768  -4.161  0.00  0.00     0.320 C 
ATOM     16  H   UNL d   1      26.741 -15.767  -2.904  0.00  0.00     0.173 HD
ATOM     17  N   UNL d   1      24.821 -13.633  -4.330  0.00  0.00    -0.352 N 
ATOM     18  O   UNL d   1      25.573 -15.633  -5.036  0.00  0.00    -0.247 OA
ATOM     19  H   UNL d   1      24.810 -12.925  -3.597  0.00  0.00     0.160 HD
ATOM     20  H   UNL d   1      24.299 -13.464  -5.177  0.00  0.00     0.160 HD
ENDBRANCH  10  12
ENDBRANCH   8  10
ENDBRANCH   1   8
BRANCH   4  21
ATOM     21  O   UNL d   1      22.617 -19.167  -0.507  0.00  0.00    -0.344 OA
BRANCH  21  22
ATOM     22  C   UNL d   1      21.327 -18.566  -0.514  0.00  0.00     0.214 C 
BRANCH  22  23
ATOM     23  C   UNL d   1      20.351 -19.384   0.286  0.00  0.00    -0.031 A 
ATOM     24  C   UNL d   1      20.406 -19.420   1.686  0.00  0.00     0.009 A 
ATOM     25  C   UNL d   1      19.431 -20.113   2.410  0.00  0.00     0.004 A 
ATOM     26  C   UNL d   1      18.407 -20.781   1.737  0.00  0.00     0.042 A 
ATOM     27  C   UNL d   1      18.370 -20.759   0.349  0.00  0.00     0.117 A 
ATOM     28  F   UNL d   1      17.384 -21.393  -0.300  0.00  0.00    -0.206 F 
ATOM     29  C   UNL d   1      19.330 -20.075  -0.379  0.00  0.00     0.051 A 
ENDBRANCH  22  23
ENDBRANCH  21  22
ENDBRANCH   4  21
TORSDOF 6
ENDMDL
MODEL 3
REMARK VINA RESULT:    -8.314      2.435      3.580
REMARK INTER + INTRA:         -10.918
REMARK INTER:                 -10.104
REMARK INTRA:                  -0.814
REMARK CONF_INDEPENDENT:        1.790
REMARK UNBOUND:                -0.814
REMARK  6 active torsions:
REMARK  status: ('A' for Active; 'I' for Inactive)
REMARK    1  A    between atoms: C_2  and  N_3 
REMARK    2  A    between atoms: C_2  and  C_20 
REMARK    3  A    between atoms: N_3  and  C_4 
REMARK    4  A    between atoms: C_7  and  O_8 
REMARK    5  A    between atoms: O_8  and  C_9 
REMARK    6  A    between atoms: C_9  and  C_10 
REMARK       I    between atoms: C_20  and  N_22 
REMARK       I    between atoms: N_22  and  C_23 
REMARK       I    between atoms: C_23  and  N_24 
ROOT
ATOM      1  C   UNL d   1      25.582 -17.285  -0.449  0.00  0.00     0.031 A 
ATOM      2  C   UNL d   1      24.739 -16.210  -0.763  0.00  0.00     0.032 A 
ATOM      3  C   UNL d   1      23.344 -16.332  -0.862  0.00  0.00     0.042 A 
ATOM      4  C   UNL d   1      22.739 -17.562  -0.665  0.00  0.00     0.107 A 
ATOM      5  C   UNL d   1      23.562 -18.644  -0.347  0.00  0.00     0.151 A 
ATOM      6  F   UNL d   1      23.060 -19.871  -0.145  0.00  0.00    -0.203 F 
ATOM      7  C   UNL d   1      24.951 -18.509  -0.233  0.00  0.00     0.074 A 
ENDROOT
BRANCH   1   8
ATOM      8  N   UNL d   1      26.963 -17.212  -0.337  0.00  0.00    -0.377 N 
ATOM      9  H   UNL d   1      27.439 -18.102  -0.210  0.00  0.00     0.160 HD
BRANCH   8  10
ATOM     10  C   UNL d   1      27.793 -15.992  -0.378  0.00  0.00     0.170 C 
ATOM     11  C   UNL d   1      29.285 -16.291  -0.240  0.00  0.00     0.042 C 
BRANCH  10  12
ATOM     12  C   UNL d   1      27.466 -15.015   0.792  0.00  0.00     0.247 C 
ATOM     13  O   UNL d   1      26.609 -14.134   0.664  0.00  0.00    -0.271 OA
ATOM     14  N   UNL d   1      28.135 -15.192   1.991  0.00  0.00    -0.278 N 
ATOM     15  C   UNL d   1      27.946 -14.450   3.134  0.00  0.00     0.320 C 
ATOM     16  H   UNL d   1      28.817 -15.929   2.091  0.00  0.00     0.173 HD
ATOM     17  N   UNL d   1      27.030 -13.459   3.078  0.00  0.00    -0.352 N 
ATOM     18  O   UNL d   1      28.581 -14.674   4.164  0.00  0.00    -0.247 OA
ATOM     19  H   UNL d   1      26.508 -13.296   2.218  0.00  0.00     0.160 HD
ATOM     20  H   UNL d   1      26.842 -12.874   3.878  0.00  0.00     0.160 HD
ENDBRANCH  10  12
ENDBRANCH   8  10
ENDBRANCH   1   8
BRANCH   4  21
ATOM     21  O   UNL d   1      21.378 -17.572  -0.831  0.00  0.00    -0.344 OA
BRANCH  21  22
ATOM     22  C   UNL d   1      20.847 -18.817  -1.270  0.00  0.00     0.214 C 
BRANCH  22  23
ATOM     23  C   UNL d   1      20.033 -19.464  -0.185  0.00  0.00    -0.031 A 
ATOM     24  C   UNL d   1      18.847 -20.154  -0.476  0.00  0.00     0.009 A 
ATOM     25  C   UNL d   1      18.159 -20.826   0.539  0.00  0.00     0.004 A 
ATOM     26  C   UNL d   1      18.644 -20.799   1.847  0.00  0.00     0.042 A 
ATOM     27  C   UNL d   1      19.807 -20.096   2.133  0.00  0.00     0.117 A 
ATOM     28  F   UNL d   1      20.280 -20.075   3.385  0.00  0.00    -0.206 F 
ATOM     29  C   UNL d   1      20.500 -19.427   1.135  0.00  0.00     0.051 A 
ENDBRANCH  22  23
ENDBRANCH  21  22
ENDBRANCH   4  21
TORSDOF 6
ENDMDL
MODEL 4
REMARK VINA RESULT:    -8.257      1.912      2.494
REMARK INTER + INTRA:         -10.761
REMARK INTER:                 -10.046
REMARK INTRA:                  -0.715
REMARK CONF_INDEPENDENT:        1.790
REMARK UNBOUND:                -0.715
REMARK  6 active torsions:
REMARK  status: ('A' for Active; 'I' for Inactive)
REMARK    1  A    between atoms: C_2  and  N_3 
REMARK    2  A    between atoms: C_2  and  C_20 
REMARK    3  A    between atoms: N_3  and  C_4 
REMARK    4  A    between atoms: C_7  and  O_8 
REMARK    5  A    between atoms: O_8  and  C_9 
REMARK    6  A    between atoms: C_9  and  C_10 
REMARK       I    between atoms: C_20  and  N_22 
REMARK       I    between atoms: N_22  and  C_23 
REMARK       I    between atoms: C_23  and  N_24 
ROOT
ATOM      1  C   UNL d   1      25.951 -16.644  -1.401  0.00  0.00     0.031 A 
ATOM      2  C   UNL d   1      25.992 -17.811  -0.626  0.00  0.00     0.032 A 
ATOM      3  C   UNL d   1      24.849 -18.403  -0.068  0.00  0.00     0.042 A 
ATOM      4  C   UNL d   1      23.605 -17.822  -0.253  0.00  0.00     0.107 A 
ATOM      5  C   UNL d   1      23.543 -16.661  -1.027  0.00  0.00     0.151 A 
ATOM      6  F   UNL d   1      22.381 -16.031  -1.253  0.00  0.00    -0.203 F 
ATOM      7  C   UNL d   1      24.687 -16.088  -1.595  0.00  0.00     0.074 A 
ENDROOT
BRANCH   1   8
ATOM      8  N   UNL d   1      27.052 -16.025  -1.976  0.00  0.00    -0.377 N 
ATOM      9  H   UNL d   1      27.841 -15.869  -1.354  0.00  0.00     0.160 HD
BRANCH   8  10
ATOM     10  C   UNL d   1      27.185 -15.575  -3.376  0.00  0.00     0.170 C 
ATOM     11  C   UNL d   1      28.626 -15.236  -3.750  0.00  0.00     0.042 C 
BRANCH  10  12
ATOM     12  C   UNL d   1      26.376 -14.273  -3.657  0.00  0.00     0.247 C 
ATOM     13  O   UNL d   1      25.185 -14.322  -3.984  0.00  0.00    -0.271 OA
ATOM     14  N   UNL d   1      27.021 -13.059  -3.489  0.00  0.00    -0.278 N 
ATOM     15  C   UNL d   1      26.454 -11.818  -3.656  0.00  0.00     0.320 C 
ATOM     16  H   UNL d   1      27.988 -13.031  -3.200  0.00  0.00     0.173 HD
ATOM     17  N   UNL d   1      25.154 -11.780  -4.022  0.00  0.00    -0.352 N 
ATOM     18  O   UNL d   1      27.097 -10.783  -3.483  0.00  0.00    -0.247 OA
ATOM     19  H   UNL d   1      24.636 -12.648  -4.151  0.00  0.00     0.160 HD
ATOM     20  H   UNL d   1      24.675 -10.904  -4.164  0.00  0.00     0.160 HD
ENDBRANCH  10  12
ENDBRANCH   8  10
ENDBRANCH   1   8
BRANCH   4  21
ATOM     21  O   UNL d   1      22.567 -18.460   0.375  0.00  0.00    -0.344 OA
BRANCH  21  22
ATOM     22  C   UNL d   1      21.391 -18.591  -0.415  0.00  0.00     0.214 C 
BRANCH  22  23
ATOM     23  C   UNL d   1      20.354 -19.412   0.300  0.00  0.00    -0.031 A 
ATOM     24  C   UNL d   1      20.349 -19.523   1.698  0.00  0.00     0.009 A 
ATOM     25  C   UNL d   1      19.321 -20.216   2.344  0.00  0.00     0.004 A 
ATOM     26  C   UNL d   1      18.304 -20.810   1.596  0.00  0.00     0.042 A 
ATOM     27  C   UNL d   1      18.326 -20.715   0.210  0.00  0.00     0.117 A 
ATOM     28  F   UNL d   1      17.348 -21.278  -0.511  0.00  0.00    -0.206 F 
ATOM     29  C   UNL d   1      19.340 -20.030  -0.441  0.00  0.00     0.051 A 
ENDBRANCH  22  23
ENDBRANCH  21  22
ENDBRANCH   4  21
TORSDOF 6
ENDMDL
MODEL 5
REMARK VINA RESULT:    -7.903      2.042      2.543
REMARK INTER + INTRA:         -10.439
REMARK INTER:                  -9.693
REMARK INTRA:                  -0.746
REMARK CONF_INDEPENDENT:        1.790
REMARK UNBOUND:                -0.746
REMARK  6 active torsions:
REMARK  status: ('A' for Active; 'I' for Inactive)
REMARK    1  A    between atoms: C_2  and  N_3 
REMARK    2  A    between atoms: C_2  and  C_20 
REMARK    3  A    between atoms: N_3  and  C_4 
REMARK    4  A    between atoms: C_7  and  O_8 
REMARK    5  A    between atoms: O_8  and  C_9 
REMARK    6  A    between atoms: C_9  and  C_10 
REMARK       I    between atoms: C_20  and  N_22 
REMARK       I    between atoms: N_22  and  C_23 
REMARK       I    between atoms: C_23  and  N_24 
ROOT
ATOM      1  C   UNL d   1      25.569 -15.964  -1.906  0.00  0.00     0.031 A 
ATOM      2  C   UNL d   1      24.217 -15.600  -1.847  0.00  0.00     0.032 A 
ATOM      3  C   UNL d   1      23.261 -16.318  -1.113  0.00  0.00     0.042 A 
ATOM      4  C   UNL d   1      23.630 -17.457  -0.418  0.00  0.00     0.107 A 
ATOM      5  C   UNL d   1      24.974 -17.833  -0.462  0.00  0.00     0.151 A 
ATOM      6  F   UNL d   1      25.417 -18.925   0.179  0.00  0.00    -0.203 F 
ATOM      7  C   UNL d   1      25.925 -17.100  -1.181  0.00  0.00     0.074 A 
ENDROOT
BRANCH   1   8
ATOM      8  N   UNL d   1      26.551 -15.284  -2.614  0.00  0.00    -0.377 N 
ATOM      9  H   UNL d   1      26.357 -14.304  -2.801  0.00  0.00     0.160 HD
BRANCH   8  10
ATOM     10  C   UNL d   1      27.825 -15.838  -3.116  0.00  0.00     0.170 C 
ATOM     11  C   UNL d   1      29.039 -15.290  -2.368  0.00  0.00     0.042 C 
BRANCH  10  12
ATOM     12  C   UNL d   1      28.075 -15.478  -4.613  0.00  0.00     0.247 C 
ATOM     13  O   UNL d   1      27.131 -15.298  -5.390  0.00  0.00    -0.271 OA
ATOM     14  N   UNL d   1      29.385 -15.328  -5.033  0.00  0.00    -0.278 N 
ATOM     15  C   UNL d   1      29.788 -14.979  -6.301  0.00  0.00     0.320 C 
ATOM     16  H   UNL d   1      30.148 -15.456  -4.383  0.00  0.00     0.173 HD
ATOM     17  N   UNL d   1      28.817 -14.770  -7.217  0.00  0.00    -0.352 N 
ATOM     18  O   UNL d   1      30.977 -14.861  -6.594  0.00  0.00    -0.247 OA
ATOM     19  H   UNL d   1      27.838 -14.863  -6.952  0.00  0.00     0.160 HD
ATOM     20  H   UNL d   1      29.040 -14.514  -8.167  0.00  0.00     0.160 HD
ENDBRANCH  10  12
ENDBRANCH   8  10
ENDBRANCH   1   8
BRANCH   4  21
ATOM     21  O   UNL d   1      22.605 -18.102   0.224  0.00  0.00    -0.344 OA
BRANCH  21  22
ATOM     22  C   UNL d   1      21.754 -18.857  -0.631  0.00  0.00     0.214 C 
BRANCH  22  23
ATOM     23  C   UNL d   1      20.648 -19.506   0.152  0.00  0.00    -0.031 A 
ATOM     24  C   UNL d   1      20.651 -19.508   1.554  0.00  0.00     0.009 A 
ATOM     25  C   UNL d   1      19.564 -20.036   2.258  0.00  0.00     0.004 A 
ATOM     26  C   UNL d   1      18.481 -20.577   1.565  0.00  0.00     0.042 A 
ATOM     27  C   UNL d   1      18.493 -20.592   0.176  0.00  0.00     0.117 A 
ATOM     28  F   UNL d   1      17.452 -21.102  -0.493  0.00  0.00    -0.206 F 
ATOM     29  C   UNL d   1      19.564 -20.069  -0.533  0.00  0.00     0.051 A 
ENDBRANCH  22  23
ENDBRANCH  21  22
ENDBRANCH   4  21
TORSDOF 6
ENDMDL
MODEL 6
REMARK VINA RESULT:    -7.678      4.201      9.184
REMARK INTER + INTRA:         -10.593
REMARK INTER:                  -9.468
REMARK INTRA:                  -1.125
REMARK CONF_INDEPENDENT:        1.790
REMARK UNBOUND:                -1.125
REMARK  6 active torsions:
REMARK  status: ('A' for Active; 'I' for Inactive)
REMARK    1  A    between atoms: C_2  and  N_3 
REMARK    2  A    between atoms: C_2  and  C_20 
REMARK    3  A    between atoms: N_3  and  C_4 
REMARK    4  A    between atoms: C_7  and  O_8 
REMARK    5  A    between atoms: O_8  and  C_9 
REMARK    6  A    between atoms: C_9  and  C_10 
REMARK       I    between atoms: C_20  and  N_22 
REMARK       I    between atoms: N_22  and  C_23 
REMARK       I    between atoms: C_23  and  N_24 
ROOT
ATOM      1  C   UNL d   1      24.652 -16.572  -1.226  0.00  0.00     0.031 A 
ATOM      2  C   UNL d   1      25.786 -16.918  -0.477  0.00  0.00     0.032 A 
ATOM      3  C   UNL d   1      27.092 -16.578  -0.860  0.00  0.00     0.042 A 
ATOM      4  C   UNL d   1      27.312 -15.885  -2.039  0.00  0.00     0.107 A 
ATOM      5  C   UNL d   1      26.194 -15.528  -2.796  0.00  0.00     0.151 A 
ATOM      6  F   UNL d   1      26.317 -14.860  -3.953  0.00  0.00    -0.203 F 
ATOM      7  C   UNL d   1      24.894 -15.855  -2.397  0.00  0.00     0.074 A 
ENDROOT
BRANCH   1   8
ATOM      8  N   UNL d   1      23.343 -16.882  -0.886  0.00  0.00    -0.377 N 
ATOM      9  H   UNL d   1      22.644 -16.200  -1.168  0.00  0.00     0.160 HD
BRANCH   8  10
ATOM     10  C   UNL d   1      22.875 -18.082  -0.163  0.00  0.00     0.170 C 
ATOM     11  C   UNL d   1      23.670 -19.334  -0.527  0.00  0.00     0.042 C 
BRANCH  10  12
ATOM     12  C   UNL d   1      21.392 -18.431  -0.497  0.00  0.00     0.247 C 
ATOM     13  O   UNL d   1      20.730 -17.724  -1.264  0.00  0.00    -0.271 OA
ATOM     14  N   UNL d   1      20.855 -19.579   0.060  0.00  0.00    -0.278 N 
ATOM     15  C   UNL d   1      19.584 -20.057  -0.154  0.00  0.00     0.320 C 
ATOM     16  H   UNL d   1      21.414 -20.161   0.668  0.00  0.00     0.173 HD
ATOM     17  N   UNL d   1      18.788 -19.339  -0.975  0.00  0.00    -0.352 N 
ATOM     18  O   UNL d   1      19.182 -21.092   0.378  0.00  0.00    -0.247 OA
ATOM     19  H   UNL d   1      19.142 -18.490  -1.414  0.00  0.00     0.160 HD
ATOM     20  H   UNL d   1      17.842 -19.630  -1.175  0.00  0.00     0.160 HD
ENDBRANCH  10  12
ENDBRANCH   8  10
ENDBRANCH   1   8
BRANCH   4  21
ATOM     21  O   UNL d   1      28.629 -15.647  -2.335  0.00  0.00    -0.344 OA
BRANCH  21  22
ATOM     22  C   UNL d   1      29.365 -16.803  -2.720  0.00  0.00     0.214 C 
BRANCH  22  23
ATOM     23  C   UNL d   1      29.701 -16.761  -4.184  0.00  0.00    -0.031 A 
ATOM     24  C   UNL d   1      29.393 -15.642  -4.971  0.00  0.00     0.009 A 
ATOM     25  C   UNL d   1      29.799 -15.590  -6.308  0.00  0.00     0.004 A 
ATOM     26  C   UNL d   1      30.500 -16.660  -6.865  0.00  0.00     0.042 A 
ATOM     27  C   UNL d   1      30.782 -17.775  -6.087  0.00  0.00     0.117 A 
ATOM     28  F   UNL d   1      31.461 -18.801  -6.617  0.00  0.00    -0.206 F 
ATOM     29  C   UNL d   1      30.386 -17.837  -4.760  0.00  0.00     0.051 A 
ENDBRANCH  22  23
ENDBRANCH  21  22
ENDBRANCH   4  21
TORSDOF 6
ENDMDL
MODEL 7
REMARK VINA RESULT:    -7.542      3.938      8.988
REMARK INTER + INTRA:         -10.420
REMARK INTER:                  -9.332
REMARK INTRA:                  -1.088
REMARK CONF_INDEPENDENT:        1.790
REMARK UNBOUND:                -1.088
REMARK  6 active torsions:
REMARK  status: ('A' for Active; 'I' for Inactive)
REMARK    1  A    between atoms: C_2  and  N_3 
REMARK    2  A    between atoms: C_2  and  C_20 
REMARK    3  A    between atoms: N_3  and  C_4 
REMARK    4  A    between atoms: C_7  and  O_8 
REMARK    5  A    between atoms: O_8  and  C_9 
REMARK    6  A    between atoms: C_9  and  C_10 
REMARK       I    between atoms: C_20  and  N_22 
REMARK       I    between atoms: N_22  and  C_23 
REMARK       I    between atoms: C_23  and  N_24 
ROOT
ATOM      1  C   UNL d   1      24.024 -16.713  -1.006  0.00  0.00     0.031 A 
ATOM      2  C   UNL d   1      24.349 -15.799  -2.018  0.00  0.00     0.032 A 
ATOM      3  C   UNL d   1      25.651 -15.319  -2.228  0.00  0.00     0.042 A 
ATOM      4  C   UNL d   1      26.685 -15.730  -1.405  0.00  0.00     0.107 A 
ATOM      5  C   UNL d   1      26.381 -16.645  -0.394  0.00  0.00     0.151 A 
ATOM      6  F   UNL d   1      27.321 -17.093   0.452  0.00  0.00    -0.203 F 
ATOM      7  C   UNL d   1      25.083 -17.133  -0.203  0.00  0.00     0.074 A 
ENDROOT
BRANCH   1   8
ATOM      8  N   UNL d   1      22.755 -17.219  -0.762  0.00  0.00    -0.377 N 
ATOM      9  H   UNL d   1      21.984 -16.646  -1.095  0.00  0.00     0.160 HD
BRANCH   8  10
ATOM     10  C   UNL d   1      22.421 -18.481  -0.073  0.00  0.00     0.170 C 
ATOM     11  C   UNL d   1      23.303 -19.645  -0.520  0.00  0.00     0.042 C 
BRANCH  10  12
ATOM     12  C   UNL d   1      20.961 -18.944  -0.363  0.00  0.00     0.247 C 
ATOM     13  O   UNL d   1      20.279 -18.389  -1.231  0.00  0.00    -0.271 OA
ATOM     14  N   UNL d   1      20.467 -20.021   0.353  0.00  0.00    -0.278 N 
ATOM     15  C   UNL d   1      19.222 -20.583   0.203  0.00  0.00     0.320 C 
ATOM     16  H   UNL d   1      21.042 -20.480   1.045  0.00  0.00     0.173 HD
ATOM     17  N   UNL d   1      18.406 -20.031  -0.722  0.00  0.00    -0.352 N 
ATOM     18  O   UNL d   1      18.859 -21.546   0.879  0.00  0.00    -0.247 OA
ATOM     19  H   UNL d   1      18.729 -19.241  -1.278  0.00  0.00     0.160 HD
ATOM     20  H   UNL d   1      17.478 -20.392  -0.884  0.00  0.00     0.160 HD
ENDBRANCH  10  12
ENDBRANCH   8  10
ENDBRANCH   1   8
BRANCH   4  21
ATOM     21  O   UNL d   1      27.903 -15.163  -1.675  0.00  0.00    -0.344 OA
BRANCH  21  22
ATOM     22  C   UNL d   1      28.830 -16.032  -2.316  0.00  0.00     0.214 C 
BRANCH  22  23
ATOM     23  C   UNL d   1      28.881 -15.764  -3.794  0.00  0.00    -0.031 A 
ATOM     24  C   UNL d   1      28.140 -14.724  -4.373  0.00  0.00     0.009 A 
ATOM     25  C   UNL d   1      28.277 -14.438  -5.734  0.00  0.00     0.004 A 
ATOM     26  C   UNL d   1      29.140 -15.198  -6.523  0.00  0.00     0.042 A 
ATOM     27  C   UNL d   1      29.855 -16.241  -5.949  0.00  0.00     0.117 A 
ATOM     28  F   UNL d   1      30.691 -16.968  -6.702  0.00  0.00    -0.206 F 
ATOM     29  C   UNL d   1      29.729 -16.534  -4.600  0.00  0.00     0.051 A 
ENDBRANCH  22  23
ENDBRANCH  21  22
ENDBRANCH   4  21
TORSDOF 6
ENDMDL
MODEL 8
REMARK VINA RESULT:    -7.144      3.702      8.265
REMARK INTER + INTRA:         -10.356
REMARK INTER:                  -8.933
REMARK INTRA:                  -1.422
REMARK CONF_INDEPENDENT:        1.790
REMARK UNBOUND:                -1.422
REMARK  6 active torsions:
REMARK  status: ('A' for Active; 'I' for Inactive)
REMARK    1  A    between atoms: C_2  and  N_3 
REMARK    2  A    between atoms: C_2  and  C_20 
REMARK    3  A    between atoms: N_3  and  C_4 
REMARK    4  A    between atoms: C_7  and  O_8 
REMARK    5  A    between atoms: O_8  and  C_9 
REMARK    6  A    between atoms: C_9  and  C_10 
REMARK       I    between atoms: C_20  and  N_22 
REMARK       I    between atoms: N_22  and  C_23 
REMARK       I    between atoms: C_23  and  N_24 
ROOT
ATOM      1  C   UNL d   1      24.727 -16.597  -1.052  0.00  0.00     0.031 A 
ATOM      2  C   UNL d   1      25.790 -17.096  -0.287  0.00  0.00     0.032 A 
ATOM      3  C   UNL d   1      27.099 -16.599  -0.377  0.00  0.00     0.042 A 
ATOM      4  C   UNL d   1      27.397 -15.581  -1.267  0.00  0.00     0.107 A 
ATOM      5  C   UNL d   1      26.349 -15.067  -2.035  0.00  0.00     0.151 A 
ATOM      6  F   UNL d   1      26.549 -14.084  -2.925  0.00  0.00    -0.203 F 
ATOM      7  C   UNL d   1      25.042 -15.557  -1.926  0.00  0.00     0.074 A 
ENDROOT
BRANCH   1   8
ATOM      8  N   UNL d   1      23.417 -17.053  -0.996  0.00  0.00    -0.377 N 
ATOM      9  H   UNL d   1      22.748 -16.533  -1.559  0.00  0.00     0.160 HD
BRANCH   8  10
ATOM     10  C   UNL d   1      22.909 -18.194  -0.210  0.00  0.00     0.170 C 
ATOM     11  C   UNL d   1      23.645 -19.496  -0.521  0.00  0.00     0.042 C 
BRANCH  10  12
ATOM     12  C   UNL d   1      21.408 -18.495  -0.508  0.00  0.00     0.247 C 
ATOM     13  O   UNL d   1      20.755 -17.774  -1.270  0.00  0.00    -0.271 OA
ATOM     14  N   UNL d   1      20.843 -19.616   0.074  0.00  0.00    -0.278 N 
ATOM     15  C   UNL d   1      19.552 -20.052  -0.106  0.00  0.00     0.320 C 
ATOM     16  H   UNL d   1      21.394 -20.210   0.678  0.00  0.00     0.173 HD
ATOM     17  N   UNL d   1      18.764 -19.315  -0.920  0.00  0.00    -0.352 N 
ATOM     18  O   UNL d   1      19.125 -21.065   0.447  0.00  0.00    -0.247 OA
ATOM     19  H   UNL d   1      19.138 -18.485  -1.377  0.00  0.00     0.160 HD
ATOM     20  H   UNL d   1      17.805 -19.575  -1.096  0.00  0.00     0.160 HD
ENDBRANCH  10  12
ENDBRANCH   8  10
ENDBRANCH   1   8
BRANCH   4  21
ATOM     21  O   UNL d   1      28.715 -15.206  -1.302  0.00  0.00    -0.344 OA
BRANCH  21  22
ATOM     22  C   UNL d   1      28.967 -13.891  -0.821  0.00  0.00     0.214 C 
BRANCH  22  23
ATOM     23  C   UNL d   1      28.342 -13.685   0.530  0.00  0.00    -0.031 A 
ATOM     24  C   UNL d   1      28.725 -14.458   1.636  0.00  0.00     0.009 A 
ATOM     25  C   UNL d   1      28.197 -14.184   2.901  0.00  0.00     0.004 A 
ATOM     26  C   UNL d   1      27.275 -13.149   3.062  0.00  0.00     0.042 A 
ATOM     27  C   UNL d   1      26.883 -12.401   1.959  0.00  0.00     0.117 A 
ATOM     28  F   UNL d   1      26.005 -11.402   2.112  0.00  0.00    -0.206 F 
ATOM     29  C   UNL d   1      27.401 -12.662   0.700  0.00  0.00     0.051 A 
ENDBRANCH  22  23
ENDBRANCH  21  22
ENDBRANCH   4  21
TORSDOF 6
ENDMDL
MODEL 9
REMARK VINA RESULT:    -7.099      3.430      8.106
REMARK INTER + INTRA:         -10.278
REMARK INTER:                  -8.889
REMARK INTRA:                  -1.389
REMARK CONF_INDEPENDENT:        1.790
REMARK UNBOUND:                -1.389
REMARK  6 active torsions:
REMARK  status: ('A' for Active; 'I' for Inactive)
REMARK    1  A    between atoms: C_2  and  N_3 
REMARK    2  A    between atoms: C_2  and  C_20 
REMARK    3  A    between atoms: N_3  and  C_4 
REMARK    4  A    between atoms: C_7  and  O_8 
REMARK    5  A    between atoms: O_8  and  C_9 
REMARK    6  A    between atoms: C_9  and  C_10 
REMARK       I    between atoms: C_20  and  N_22 
REMARK       I    between atoms: N_22  and  C_23 
REMARK       I    between atoms: C_23  and  N_24 
ROOT
ATOM      1  C   UNL d   1      24.768 -16.525  -1.223  0.00  0.00     0.031 A 
ATOM      2  C   UNL d   1      25.222 -15.500  -2.065  0.00  0.00     0.032 A 
ATOM      3  C   UNL d   1      26.567 -15.104  -2.135  0.00  0.00     0.042 A 
ATOM      4  C   UNL d   1      27.515 -15.719  -1.335  0.00  0.00     0.107 A 
ATOM      5  C   UNL d   1      27.082 -16.746  -0.493  0.00  0.00     0.151 A 
ATOM      6  F   UNL d   1      27.933 -17.392   0.318  0.00  0.00    -0.203 F 
ATOM      7  C   UNL d   1      25.742 -17.147  -0.443  0.00  0.00     0.074 A 
ENDROOT
BRANCH   1   8
ATOM      8  N   UNL d   1      23.452 -16.953  -1.122  0.00  0.00    -0.377 N 
ATOM      9  H   UNL d   1      22.782 -16.450  -1.698  0.00  0.00     0.160 HD
BRANCH   8  10
ATOM     10  C   UNL d   1      22.939 -18.046  -0.271  0.00  0.00     0.170 C 
ATOM     11  C   UNL d   1      23.657 -19.371  -0.520  0.00  0.00     0.042 C 
BRANCH  10  12
ATOM     12  C   UNL d   1      21.432 -18.344  -0.539  0.00  0.00     0.247 C 
ATOM     13  O   UNL d   1      20.758 -17.609  -1.270  0.00  0.00    -0.271 OA
ATOM     14  N   UNL d   1      20.884 -19.479   0.033  0.00  0.00    -0.278 N 
ATOM     15  C   UNL d   1      19.589 -19.914  -0.125  0.00  0.00     0.320 C 
ATOM     16  H   UNL d   1      21.450 -20.084   0.611  0.00  0.00     0.173 HD
ATOM     17  N   UNL d   1      18.780 -19.163  -0.904  0.00  0.00    -0.352 N 
ATOM     18  O   UNL d   1      19.179 -20.940   0.417  0.00  0.00    -0.247 OA
ATOM     19  H   UNL d   1      19.141 -18.322  -1.352  0.00  0.00     0.160 HD
ATOM     20  H   UNL d   1      17.817 -19.422  -1.062  0.00  0.00     0.160 HD
ENDBRANCH  10  12
ENDBRANCH   8  10
ENDBRANCH   1   8
BRANCH   4  21
ATOM     21  O   UNL d   1      28.786 -15.221  -1.454  0.00  0.00    -0.344 OA
BRANCH  21  22
ATOM     22  C   UNL d   1      29.420 -14.918  -0.216  0.00  0.00     0.214 C 
BRANCH  22  23
ATOM     23  C   UNL d   1      28.539 -14.048   0.637  0.00  0.00    -0.031 A 
ATOM     24  C   UNL d   1      27.947 -12.885   0.125  0.00  0.00     0.009 A 
ATOM     25  C   UNL d   1      27.059 -12.145   0.911  0.00  0.00     0.004 A 
ATOM     26  C   UNL d   1      26.772 -12.555   2.213  0.00  0.00     0.042 A 
ATOM     27  C   UNL d   1      27.379 -13.696   2.723  0.00  0.00     0.117 A 
ATOM     28  F   UNL d   1      27.100 -14.097   3.970  0.00  0.00    -0.206 F 
ATOM     29  C   UNL d   1      28.260 -14.439   1.953  0.00  0.00     0.051 A 
ENDBRANCH  22  23
ENDBRANCH  21  22
ENDBRANCH   4  21
TORSDOF 6
ENDMDL
