MODEL 1
REMARK VINA RESULT:    -8.920      0.000      0.000
REMARK INTER + INTRA:         -11.872
REMARK INTER:                 -10.412
REMARK INTRA:                  -1.460
REMARK CONF_INDEPENDENT:        1.492
REMARK UNBOUND:                -1.460
REMARK  5 active torsions:
REMARK  status: ('A' for Active; 'I' for Inactive)
REMARK       I    between atoms: C_2  and  N_3 
REMARK    1  A    between atoms: C_2  and  C_16 
REMARK    2  A    between atoms: N_3  and  N_4 
REMARK    3  A    between atoms: C_5  and  C_6 
REMARK    4  A    between atoms: C_19  and  O_20 
REMARK    5  A    between atoms: C_21  and  O_22 
ROOT
ATOM      1  O   UNL d   1      21.100 -17.641  -1.256  0.00  0.00    -0.266 OA
ATOM      2  C   UNL d   1      21.404 -18.597  -0.539  0.00  0.00     0.271 C 
ATOM      3  N   UNL d   1      22.715 -19.008  -0.266  0.00  0.00    -0.243 N 
ATOM      4  H   UNL d   1      22.903 -19.855   0.259  0.00  0.00     0.192 HD
ENDROOT
BRANCH   3   5
ATOM      5  N   UNL d   1      23.772 -18.280  -0.787  0.00  0.00    -0.183 NA
ATOM      6  C   UNL d   1      23.669 -16.987  -0.847  0.00  0.00     0.150 C 
BRANCH   6   7
ATOM      7  C   UNL d   1      24.774 -16.140  -1.394  0.00  0.00    -0.016 A 
ATOM      8  C   UNL d   1      26.076 -16.302  -0.921  0.00  0.00     0.014 A 
ATOM      9  C   UNL d   1      27.120 -15.526  -1.443  0.00  0.00     0.013 A 
ATOM     10  C   UNL d   1      26.888 -14.576  -2.452  0.00  0.00    -0.026 A 
ATOM     11  C   UNL d   1      27.941 -13.812  -2.992  0.00  0.00     0.012 A 
ATOM     12  C   UNL d   1      25.570 -14.391  -2.931  0.00  0.00    -0.025 A 
ATOM     13  C   UNL d   1      27.706 -12.865  -3.990  0.00  0.00     0.001 A 
ATOM     14  C   UNL d   1      26.412 -12.666  -4.456  0.00  0.00     0.001 A 
ATOM     15  C   UNL d   1      25.353 -13.418  -3.929  0.00  0.00     0.012 A 
ATOM     16  C   UNL d   1      24.522 -15.186  -2.395  0.00  0.00     0.025 A 
ENDBRANCH   6   7
ENDBRANCH   3   5
BRANCH   2  17
ATOM     17  C   UNL d   1      20.283 -19.386   0.069  0.00  0.00     0.036 A 
ATOM     18  C   UNL d   1      20.305 -19.694   1.447  0.00  0.00     0.020 A 
ATOM     19  C   UNL d   1      19.302 -20.492   2.033  0.00  0.00     0.040 A 
ATOM     20  C   UNL d   1      18.283 -20.994   1.232  0.00  0.00     0.098 A 
ATOM     21  C   UNL d   1      18.272 -20.706  -0.133  0.00  0.00     0.099 A 
ATOM     22  C   UNL d   1      19.261 -19.917  -0.722  0.00  0.00     0.056 A 
BRANCH  20  23
ATOM     23  O   UNL d   1      17.278 -21.777   1.730  0.00  0.00    -0.358 OA
ATOM     24  H   UNL d   1      16.788 -22.178   0.989  0.00  0.00     0.217 HD
ENDBRANCH  20  23
BRANCH  21  25
ATOM     25  O   UNL d   1      17.280 -21.200  -0.934  0.00  0.00    -0.358 OA
ATOM     26  H   UNL d   1      16.887 -21.944  -0.435  0.00  0.00     0.217 HD
ENDBRANCH  21  25
ENDBRANCH   2  17
TORSDOF 5
ENDMDL
MODEL 2
REMARK VINA RESULT:    -8.506      1.031      1.638
REMARK INTER + INTRA:         -11.102
REMARK INTER:                  -9.998
REMARK INTRA:                  -1.105
REMARK CONF_INDEPENDENT:        1.492
REMARK UNBOUND:                -1.105
REMARK  5 active torsions:
REMARK  status: ('A' for Active; 'I' for Inactive)
REMARK       I    between atoms: C_2  and  N_3 
REMARK    1  A    between atoms: C_2  and  C_16 
REMARK    2  A    between atoms: N_3  and  N_4 
REMARK    3  A    between atoms: C_5  and  C_6 
REMARK    4  A    between atoms: C_19  and  O_20 
REMARK    5  A    between atoms: C_21  and  O_22 
ROOT
ATOM      1  O   UNL d   1      22.125 -18.956  -1.754  0.00  0.00    -0.266 OA
ATOM      2  C   UNL d   1      21.688 -18.580  -0.664  0.00  0.00     0.271 C 
ATOM      3  N   UNL d   1      22.157 -17.466   0.045  0.00  0.00    -0.243 N 
ATOM      4  H   UNL d   1      21.820 -17.257   0.979  0.00  0.00     0.192 HD
ENDROOT
BRANCH   3   5
ATOM      5  N   UNL d   1      23.151 -16.681  -0.514  0.00  0.00    -0.183 NA
ATOM      6  C   UNL d   1      24.248 -17.253  -0.910  0.00  0.00     0.150 C 
BRANCH   6   7
ATOM      7  C   UNL d   1      25.361 -16.466  -1.526  0.00  0.00    -0.016 A 
ATOM      8  C   UNL d   1      26.677 -16.683  -1.118  0.00  0.00     0.014 A 
ATOM      9  C   UNL d   1      27.727 -15.964  -1.705  0.00  0.00     0.013 A 
ATOM     10  C   UNL d   1      27.488 -15.019  -2.716  0.00  0.00    -0.026 A 
ATOM     11  C   UNL d   1      28.546 -14.312  -3.321  0.00  0.00     0.012 A 
ATOM     12  C   UNL d   1      26.157 -14.778  -3.129  0.00  0.00    -0.025 A 
ATOM     13  C   UNL d   1      28.304 -13.369  -4.321  0.00  0.00     0.001 A 
ATOM     14  C   UNL d   1      26.997 -13.115  -4.723  0.00  0.00     0.001 A 
ATOM     15  C   UNL d   1      25.934 -13.809  -4.131  0.00  0.00     0.012 A 
ATOM     16  C   UNL d   1      25.102 -15.515  -2.528  0.00  0.00     0.025 A 
ENDBRANCH   6   7
ENDBRANCH   3   5
BRANCH   2  17
ATOM     17  C   UNL d   1      20.587 -19.389  -0.046  0.00  0.00     0.036 A 
ATOM     18  C   UNL d   1      19.460 -19.750  -0.817  0.00  0.00     0.020 A 
ATOM     19  C   UNL d   1      18.379 -20.450  -0.246  0.00  0.00     0.040 A 
ATOM     20  C   UNL d   1      18.421 -20.776   1.104  0.00  0.00     0.098 A 
ATOM     21  C   UNL d   1      19.526 -20.403   1.871  0.00  0.00     0.099 A 
ATOM     22  C   UNL d   1      20.601 -19.710   1.314  0.00  0.00     0.056 A 
BRANCH  20  23
ATOM     23  O   UNL d   1      17.407 -21.452   1.727  0.00  0.00    -0.358 OA
ATOM     24  H   UNL d   1      17.286 -22.316   1.294  0.00  0.00     0.217 HD
ENDBRANCH  20  23
BRANCH  21  25
ATOM     25  O   UNL d   1      19.576 -20.710   3.203  0.00  0.00    -0.358 OA
ATOM     26  H   UNL d   1      18.769 -21.233   3.382  0.00  0.00     0.217 HD
ENDBRANCH  21  25
ENDBRANCH   2  17
TORSDOF 5
ENDMDL
MODEL 3
REMARK VINA RESULT:    -8.316      1.519      2.595
REMARK INTER + INTRA:         -11.328
REMARK INTER:                  -9.807
REMARK INTRA:                  -1.520
REMARK CONF_INDEPENDENT:        1.492
REMARK UNBOUND:                -1.520
REMARK  5 active torsions:
REMARK  status: ('A' for Active; 'I' for Inactive)
REMARK       I    between atoms: C_2  and  N_3 
REMARK    1  A    between atoms: C_2  and  C_16 
REMARK    2  A    between atoms: N_3  and  N_4 
REMARK    3  A    between atoms: C_5  and  C_6 
REMARK    4  A    between atoms: C_19  and  O_20 
REMARK    5  A    between atoms: C_21  and  O_22 
ROOT
ATOM      1  O   UNL d   1      21.123 -17.568  -1.032  0.00  0.00    -0.266 OA
ATOM      2  C   UNL d   1      21.409 -18.598  -0.415  0.00  0.00     0.271 C 
ATOM      3  N   UNL d   1      22.709 -19.086  -0.230  0.00  0.00    -0.243 N 
ATOM      4  H   UNL d   1      22.877 -19.984   0.208  0.00  0.00     0.192 HD
ENDROOT
BRANCH   3   5
ATOM      5  N   UNL d   1      23.779 -18.357  -0.724  0.00  0.00    -0.183 NA
ATOM      6  C   UNL d   1      24.574 -17.769   0.119  0.00  0.00     0.150 C 
BRANCH   6   7
ATOM      7  C   UNL d   1      25.750 -16.970  -0.345  0.00  0.00    -0.016 A 
ATOM      8  C   UNL d   1      25.553 -15.746  -0.985  0.00  0.00     0.014 A 
ATOM      9  C   UNL d   1      26.652 -14.982  -1.403  0.00  0.00     0.013 A 
ATOM     10  C   UNL d   1      27.969 -15.420  -1.187  0.00  0.00    -0.026 A 
ATOM     11  C   UNL d   1      29.073 -14.642  -1.589  0.00  0.00     0.012 A 
ATOM     12  C   UNL d   1      28.183 -16.666  -0.553  0.00  0.00    -0.025 A 
ATOM     13  C   UNL d   1      30.380 -15.083  -1.378  0.00  0.00     0.001 A 
ATOM     14  C   UNL d   1      30.600 -16.313  -0.768  0.00  0.00     0.001 A 
ATOM     15  C   UNL d   1      29.513 -17.099  -0.364  0.00  0.00     0.012 A 
ATOM     16  C   UNL d   1      27.061 -17.428  -0.131  0.00  0.00     0.025 A 
ENDBRANCH   6   7
ENDBRANCH   3   5
BRANCH   2  17
ATOM     17  C   UNL d   1      20.276 -19.393   0.161  0.00  0.00     0.036 A 
ATOM     18  C   UNL d   1      20.275 -19.726   1.533  0.00  0.00     0.020 A 
ATOM     19  C   UNL d   1      19.259 -20.529   2.088  0.00  0.00     0.040 A 
ATOM     20  C   UNL d   1      18.251 -21.012   1.263  0.00  0.00     0.098 A 
ATOM     21  C   UNL d   1      18.262 -20.699  -0.097  0.00  0.00     0.099 A 
ATOM     22  C   UNL d   1      19.263 -19.904  -0.656  0.00  0.00     0.056 A 
BRANCH  20  23
ATOM     23  O   UNL d   1      17.234 -21.800   1.731  0.00  0.00    -0.358 OA
ATOM     24  H   UNL d   1      16.775 -22.210   0.977  0.00  0.00     0.217 HD
ENDBRANCH  20  23
BRANCH  21  25
ATOM     25  O   UNL d   1      17.280 -21.174  -0.922  0.00  0.00    -0.358 OA
ATOM     26  H   UNL d   1      16.897 -21.945  -0.457  0.00  0.00     0.217 HD
ENDBRANCH  21  25
ENDBRANCH   2  17
TORSDOF 5
ENDMDL
MODEL 4
REMARK VINA RESULT:    -7.874      1.353      2.551
REMARK INTER + INTRA:         -10.471
REMARK INTER:                  -9.366
REMARK INTRA:                  -1.105
REMARK CONF_INDEPENDENT:        1.492
REMARK UNBOUND:                -1.105
REMARK  5 active torsions:
REMARK  status: ('A' for Active; 'I' for Inactive)
REMARK       I    between atoms: C_2  and  N_3 
REMARK    1  A    between atoms: C_2  and  C_16 
REMARK    2  A    between atoms: N_3  and  N_4 
REMARK    3  A    between atoms: C_5  and  C_6 
REMARK    4  A    between atoms: C_19  and  O_20 
REMARK    5  A    between atoms: C_21  and  O_22 
ROOT
ATOM      1  O   UNL d   1      22.216 -18.969  -1.788  0.00  0.00    -0.266 OA
ATOM      2  C   UNL d   1      21.777 -18.589  -0.699  0.00  0.00     0.271 C 
ATOM      3  N   UNL d   1      22.263 -17.491   0.022  0.00  0.00    -0.243 N 
ATOM      4  H   UNL d   1      21.922 -17.280   0.953  0.00  0.00     0.192 HD
ENDROOT
BRANCH   3   5
ATOM      5  N   UNL d   1      23.282 -16.726  -0.521  0.00  0.00    -0.183 NA
ATOM      6  C   UNL d   1      24.384 -17.315  -0.875  0.00  0.00     0.150 C 
BRANCH   6   7
ATOM      7  C   UNL d   1      25.523 -16.550  -1.472  0.00  0.00    -0.016 A 
ATOM      8  C   UNL d   1      25.385 -15.965  -2.730  0.00  0.00     0.014 A 
ATOM      9  C   UNL d   1      26.440 -15.229  -3.287  0.00  0.00     0.013 A 
ATOM     10  C   UNL d   1      27.652 -15.057  -2.599  0.00  0.00    -0.026 A 
ATOM     11  C   UNL d   1      28.705 -14.300  -3.150  0.00  0.00     0.012 A 
ATOM     12  C   UNL d   1      27.811 -15.658  -1.328  0.00  0.00    -0.025 A 
ATOM     13  C   UNL d   1      29.910 -14.137  -2.465  0.00  0.00     0.001 A 
ATOM     14  C   UNL d   1      30.080 -14.736  -1.222  0.00  0.00     0.001 A 
ATOM     15  C   UNL d   1      29.043 -15.493  -0.661  0.00  0.00     0.012 A 
ATOM     16  C   UNL d   1      26.733 -16.398  -0.774  0.00  0.00     0.025 A 
ENDBRANCH   6   7
ENDBRANCH   3   5
BRANCH   2  17
ATOM     17  C   UNL d   1      20.650 -19.376  -0.099  0.00  0.00     0.036 A 
ATOM     18  C   UNL d   1      19.522 -19.701  -0.883  0.00  0.00     0.020 A 
ATOM     19  C   UNL d   1      18.419 -20.379  -0.328  0.00  0.00     0.040 A 
ATOM     20  C   UNL d   1      18.441 -20.719   1.019  0.00  0.00     0.098 A 
ATOM     21  C   UNL d   1      19.548 -20.382   1.799  0.00  0.00     0.099 A 
ATOM     22  C   UNL d   1      20.645 -19.710   1.258  0.00  0.00     0.056 A 
BRANCH  20  23
ATOM     23  O   UNL d   1      17.406 -21.376   1.628  0.00  0.00    -0.358 OA
ATOM     24  H   UNL d   1      17.147 -22.139   1.081  0.00  0.00     0.217 HD
ENDBRANCH  20  23
BRANCH  21  25
ATOM     25  O   UNL d   1      19.580 -20.703   3.128  0.00  0.00    -0.358 OA
ATOM     26  H   UNL d   1      18.791 -21.260   3.282  0.00  0.00     0.217 HD
ENDBRANCH  21  25
ENDBRANCH   2  17
TORSDOF 5
ENDMDL
MODEL 5
REMARK VINA RESULT:    -7.176      3.787      9.721
REMARK INTER + INTRA:          -9.713
REMARK INTER:                  -8.667
REMARK INTRA:                  -1.046
REMARK CONF_INDEPENDENT:        1.492
REMARK UNBOUND:                -1.046
REMARK  5 active torsions:
REMARK  status: ('A' for Active; 'I' for Inactive)
REMARK       I    between atoms: C_2  and  N_3 
REMARK    1  A    between atoms: C_2  and  C_16 
REMARK    2  A    between atoms: N_3  and  N_4 
REMARK    3  A    between atoms: C_5  and  C_6 
REMARK    4  A    between atoms: C_19  and  O_20 
REMARK    5  A    between atoms: C_21  and  O_22 
ROOT
ATOM      1  O   UNL d   1      26.404 -18.547   0.242  0.00  0.00    -0.266 OA
ATOM      2  C   UNL d   1      26.323 -17.364  -0.095  0.00  0.00     0.271 C 
ATOM      3  N   UNL d   1      25.125 -16.649  -0.225  0.00  0.00    -0.243 N 
ATOM      4  H   UNL d   1      25.113 -15.704  -0.592  0.00  0.00     0.192 HD
ENDROOT
BRANCH   3   5
ATOM      5  N   UNL d   1      23.929 -17.275   0.087  0.00  0.00    -0.183 NA
ATOM      6  C   UNL d   1      23.298 -17.915  -0.851  0.00  0.00     0.150 C 
BRANCH   6   7
ATOM      7  C   UNL d   1      22.004 -18.617  -0.583  0.00  0.00    -0.016 A 
ATOM      8  C   UNL d   1      21.176 -18.979  -1.645  0.00  0.00     0.014 A 
ATOM      9  C   UNL d   1      19.972 -19.656  -1.404  0.00  0.00     0.013 A 
ATOM     10  C   UNL d   1      19.572 -19.989  -0.099  0.00  0.00    -0.026 A 
ATOM     11  C   UNL d   1      18.373 -20.688   0.142  0.00  0.00     0.012 A 
ATOM     12  C   UNL d   1      20.396 -19.614   0.988  0.00  0.00    -0.025 A 
ATOM     13  C   UNL d   1      17.976 -21.012   1.440  0.00  0.00     0.001 A 
ATOM     14  C   UNL d   1      18.771 -20.635   2.515  0.00  0.00     0.001 A 
ATOM     15  C   UNL d   1      19.967 -19.939   2.293  0.00  0.00     0.012 A 
ATOM     16  C   UNL d   1      21.614 -18.932   0.729  0.00  0.00     0.025 A 
ENDBRANCH   6   7
ENDBRANCH   3   5
BRANCH   2  17
ATOM     17  C   UNL d   1      27.602 -16.647  -0.407  0.00  0.00     0.036 A 
ATOM     18  C   UNL d   1      27.963 -16.401  -1.751  0.00  0.00     0.020 A 
ATOM     19  C   UNL d   1      29.190 -15.792  -2.077  0.00  0.00     0.040 A 
ATOM     20  C   UNL d   1      30.064 -15.440  -1.055  0.00  0.00     0.098 A 
ATOM     21  C   UNL d   1      29.716 -15.699   0.271  0.00  0.00     0.099 A 
ATOM     22  C   UNL d   1      28.503 -16.302   0.604  0.00  0.00     0.056 A 
BRANCH  20  23
ATOM     23  O   UNL d   1      31.273 -14.847  -1.296  0.00  0.00    -0.358 OA
ATOM     24  H   UNL d   1      31.837 -14.939  -0.507  0.00  0.00     0.217 HD
ENDBRANCH  20  23
BRANCH  21  25
ATOM     25  O   UNL d   1      30.570 -15.365   1.286  0.00  0.00    -0.358 OA
ATOM     26  H   UNL d   1      30.021 -15.347   2.095  0.00  0.00     0.217 HD
ENDBRANCH  21  25
ENDBRANCH   2  17
TORSDOF 5
ENDMDL
MODEL 6
REMARK VINA RESULT:    -6.555      6.417      9.450
REMARK INTER + INTRA:          -9.642
REMARK INTER:                  -8.047
REMARK INTRA:                  -1.595
REMARK CONF_INDEPENDENT:        1.492
REMARK UNBOUND:                -1.595
REMARK  5 active torsions:
REMARK  status: ('A' for Active; 'I' for Inactive)
REMARK       I    between atoms: C_2  and  N_3 
REMARK    1  A    between atoms: C_2  and  C_16 
REMARK    2  A    between atoms: N_3  and  N_4 
REMARK    3  A    between atoms: C_5  and  C_6 
REMARK    4  A    between atoms: C_19  and  O_20 
REMARK    5  A    between atoms: C_21  and  O_22 
ROOT
ATOM      1  O   UNL d   1      26.652 -15.878   0.533  0.00  0.00    -0.266 OA
ATOM      2  C   UNL d   1      26.787 -14.857  -0.146  0.00  0.00     0.271 C 
ATOM      3  N   UNL d   1      26.979 -13.570   0.373  0.00  0.00    -0.243 N 
ATOM      4  H   UNL d   1      26.994 -12.756  -0.231  0.00  0.00     0.192 HD
ENDROOT
BRANCH   3   5
ATOM      5  N   UNL d   1      27.075 -13.403   1.745  0.00  0.00    -0.183 NA
ATOM      6  C   UNL d   1      28.095 -13.915   2.365  0.00  0.00     0.150 C 
BRANCH   6   7
ATOM      7  C   UNL d   1      28.264 -13.769   3.844  0.00  0.00    -0.016 A 
ATOM      8  C   UNL d   1      28.354 -14.904   4.650  0.00  0.00     0.014 A 
ATOM      9  C   UNL d   1      28.534 -14.775   6.035  0.00  0.00     0.013 A 
ATOM     10  C   UNL d   1      28.632 -13.513   6.643  0.00  0.00    -0.026 A 
ATOM     11  C   UNL d   1      28.834 -13.384   8.031  0.00  0.00     0.012 A 
ATOM     12  C   UNL d   1      28.528 -12.354   5.839  0.00  0.00    -0.025 A 
ATOM     13  C   UNL d   1      28.925 -12.129   8.633  0.00  0.00     0.001 A 
ATOM     14  C   UNL d   1      28.809 -10.984   7.853  0.00  0.00     0.001 A 
ATOM     15  C   UNL d   1      28.608 -11.094   6.471  0.00  0.00     0.012 A 
ATOM     16  C   UNL d   1      28.349 -12.498   4.437  0.00  0.00     0.025 A 
ENDBRANCH   6   7
ENDBRANCH   3   5
BRANCH   2  17
ATOM     17  C   UNL d   1      26.721 -15.007  -1.636  0.00  0.00     0.036 A 
ATOM     18  C   UNL d   1      27.876 -15.384  -2.357  0.00  0.00     0.020 A 
ATOM     19  C   UNL d   1      27.862 -15.466  -3.764  0.00  0.00     0.040 A 
ATOM     20  C   UNL d   1      26.694 -15.156  -4.449  0.00  0.00     0.098 A 
ATOM     21  C   UNL d   1      25.559 -14.765  -3.738  0.00  0.00     0.099 A 
ATOM     22  C   UNL d   1      25.562 -14.681  -2.345  0.00  0.00     0.056 A 
BRANCH  20  23
ATOM     23  O   UNL d   1      26.608 -15.211  -5.814  0.00  0.00    -0.358 OA
ATOM     24  H   UNL d   1      25.690 -15.024  -6.084  0.00  0.00     0.217 HD
ENDBRANCH  20  23
BRANCH  21  25
ATOM     25  O   UNL d   1      24.404 -14.449  -4.400  0.00  0.00    -0.358 OA
ATOM     26  H   UNL d   1      24.674 -14.264  -5.322  0.00  0.00     0.217 HD
ENDBRANCH  21  25
ENDBRANCH   2  17
TORSDOF 5
ENDMDL
MODEL 7
REMARK VINA RESULT:    -6.548      6.839     10.121
REMARK INTER + INTRA:          -9.555
REMARK INTER:                  -8.040
REMARK INTRA:                  -1.515
REMARK CONF_INDEPENDENT:        1.492
REMARK UNBOUND:                -1.515
REMARK  5 active torsions:
REMARK  status: ('A' for Active; 'I' for Inactive)
REMARK       I    between atoms: C_2  and  N_3 
REMARK    1  A    between atoms: C_2  and  C_16 
REMARK    2  A    between atoms: N_3  and  N_4 
REMARK    3  A    between atoms: C_5  and  C_6 
REMARK    4  A    between atoms: C_19  and  O_20 
REMARK    5  A    between atoms: C_21  and  O_22 
ROOT
ATOM      1  O   UNL d   1      27.090 -15.047  -0.008  0.00  0.00    -0.266 OA
ATOM      2  C   UNL d   1      26.783 -13.860  -0.136  0.00  0.00     0.271 C 
ATOM      3  N   UNL d   1      26.667 -12.945   0.920  0.00  0.00    -0.243 N 
ATOM      4  H   UNL d   1      26.324 -12.004   0.765  0.00  0.00     0.192 HD
ENDROOT
BRANCH   3   5
ATOM      5  N   UNL d   1      26.957 -13.362   2.208  0.00  0.00    -0.183 NA
ATOM      6  C   UNL d   1      27.744 -12.631   2.938  0.00  0.00     0.150 C 
BRANCH   6   7
ATOM      7  C   UNL d   1      28.096 -13.019   4.339  0.00  0.00    -0.016 A 
ATOM      8  C   UNL d   1      28.407 -14.346   4.637  0.00  0.00     0.014 A 
ATOM      9  C   UNL d   1      28.757 -14.714   5.943  0.00  0.00     0.013 A 
ATOM     10  C   UNL d   1      28.810 -13.766   6.978  0.00  0.00    -0.026 A 
ATOM     11  C   UNL d   1      29.184 -14.132   8.287  0.00  0.00     0.012 A 
ATOM     12  C   UNL d   1      28.483 -12.420   6.693  0.00  0.00    -0.025 A 
ATOM     13  C   UNL d   1      29.229 -13.189   9.314  0.00  0.00     0.001 A 
ATOM     14  C   UNL d   1      28.894 -11.866   9.046  0.00  0.00     0.001 A 
ATOM     15  C   UNL d   1      28.521 -11.486   7.750  0.00  0.00     0.012 A 
ATOM     16  C   UNL d   1      28.132 -12.060   5.365  0.00  0.00     0.025 A 
ENDBRANCH   6   7
ENDBRANCH   3   5
BRANCH   2  17
ATOM     17  C   UNL d   1      26.495 -13.367  -1.522  0.00  0.00     0.036 A 
ATOM     18  C   UNL d   1      27.137 -12.206  -2.004  0.00  0.00     0.020 A 
ATOM     19  C   UNL d   1      26.836 -11.680  -3.276  0.00  0.00     0.040 A 
ATOM     20  C   UNL d   1      25.878 -12.311  -4.060  0.00  0.00     0.098 A 
ATOM     21  C   UNL d   1      25.229 -13.448  -3.576  0.00  0.00     0.099 A 
ATOM     22  C   UNL d   1      25.521 -13.976  -2.318  0.00  0.00     0.056 A 
BRANCH  20  23
ATOM     23  O   UNL d   1      25.531 -11.857  -5.304  0.00  0.00    -0.358 OA
ATOM     24  H   UNL d   1      24.689 -12.267  -5.570  0.00  0.00     0.217 HD
ENDBRANCH  20  23
BRANCH  21  25
ATOM     25  O   UNL d   1      24.278 -14.075  -4.334  0.00  0.00    -0.358 OA
ATOM     26  H   UNL d   1      24.032 -13.433  -5.029  0.00  0.00     0.217 HD
ENDBRANCH  21  25
ENDBRANCH   2  17
TORSDOF 5
ENDMDL
MODEL 8
REMARK VINA RESULT:    -6.309      7.791     10.161
REMARK INTER + INTRA:          -9.352
REMARK INTER:                  -7.801
REMARK INTRA:                  -1.551
REMARK CONF_INDEPENDENT:        1.492
REMARK UNBOUND:                -1.551
REMARK  5 active torsions:
REMARK  status: ('A' for Active; 'I' for Inactive)
REMARK       I    between atoms: C_2  and  N_3 
REMARK    1  A    between atoms: C_2  and  C_16 
REMARK    2  A    between atoms: N_3  and  N_4 
REMARK    3  A    between atoms: C_5  and  C_6 
REMARK    4  A    between atoms: C_19  and  O_20 
REMARK    5  A    between atoms: C_21  and  O_22 
ROOT
ATOM      1  O   UNL d   1      28.107 -15.108   5.450  0.00  0.00    -0.266 OA
ATOM      2  C   UNL d   1      28.024 -13.882   5.548  0.00  0.00     0.271 C 
ATOM      3  N   UNL d   1      27.519 -13.031   4.555  0.00  0.00    -0.243 N 
ATOM      4  H   UNL d   1      27.558 -12.023   4.656  0.00  0.00     0.192 HD
ENDROOT
BRANCH   3   5
ATOM      5  N   UNL d   1      27.026 -13.581   3.384  0.00  0.00    -0.183 NA
ATOM      6  C   UNL d   1      27.868 -13.965   2.473  0.00  0.00     0.150 C 
BRANCH   6   7
ATOM      7  C   UNL d   1      27.405 -14.571   1.186  0.00  0.00    -0.016 A 
ATOM      8  C   UNL d   1      27.428 -15.956   1.020  0.00  0.00     0.014 A 
ATOM      9  C   UNL d   1      26.976 -16.533  -0.175  0.00  0.00     0.013 A 
ATOM     10  C   UNL d   1      26.487 -15.740  -1.227  0.00  0.00    -0.026 A 
ATOM     11  C   UNL d   1      26.012 -16.321  -2.420  0.00  0.00     0.012 A 
ATOM     12  C   UNL d   1      26.472 -14.334  -1.078  0.00  0.00    -0.025 A 
ATOM     13  C   UNL d   1      25.533 -15.531  -3.466  0.00  0.00     0.001 A 
ATOM     14  C   UNL d   1      25.529 -14.147  -3.333  0.00  0.00     0.001 A 
ATOM     15  C   UNL d   1      25.998 -13.553  -2.154  0.00  0.00     0.012 A 
ATOM     16  C   UNL d   1      26.930 -13.763   0.139  0.00  0.00     0.025 A 
ENDBRANCH   6   7
ENDBRANCH   3   5
BRANCH   2  17
ATOM     17  C   UNL d   1      28.518 -13.257   6.819  0.00  0.00     0.036 A 
ATOM     18  C   UNL d   1      28.905 -14.076   7.902  0.00  0.00     0.020 A 
ATOM     19  C   UNL d   1      29.308 -13.517   9.131  0.00  0.00     0.040 A 
ATOM     20  C   UNL d   1      29.309 -12.136   9.279  0.00  0.00     0.098 A 
ATOM     21  C   UNL d   1      28.909 -11.327   8.215  0.00  0.00     0.099 A 
ATOM     22  C   UNL d   1      28.508 -11.870   6.994  0.00  0.00     0.056 A 
BRANCH  20  23
ATOM     23  O   UNL d   1      29.685 -11.523  10.443  0.00  0.00    -0.358 OA
ATOM     24  H   UNL d   1      29.379 -10.598  10.431  0.00  0.00     0.217 HD
ENDBRANCH  20  23
BRANCH  21  25
ATOM     25  O   UNL d   1      28.897  -9.966   8.349  0.00  0.00    -0.358 OA
ATOM     26  H   UNL d   1      28.909  -9.797   9.312  0.00  0.00     0.217 HD
ENDBRANCH  21  25
ENDBRANCH   2  17
TORSDOF 5
ENDMDL
MODEL 9
REMARK VINA RESULT:    -6.267      9.831     10.946
REMARK INTER + INTRA:          -9.228
REMARK INTER:                  -7.758
REMARK INTRA:                  -1.470
REMARK CONF_INDEPENDENT:        1.492
REMARK UNBOUND:                -1.470
REMARK  5 active torsions:
REMARK  status: ('A' for Active; 'I' for Inactive)
REMARK       I    between atoms: C_2  and  N_3 
REMARK    1  A    between atoms: C_2  and  C_16 
REMARK    2  A    between atoms: N_3  and  N_4 
REMARK    3  A    between atoms: C_5  and  C_6 
REMARK    4  A    between atoms: C_19  and  O_20 
REMARK    5  A    between atoms: C_21  and  O_22 
ROOT
ATOM      1  O   UNL d   1      33.561 -20.833   1.196  0.00  0.00    -0.266 OA
ATOM      2  C   UNL d   1      32.359 -20.854   1.471  0.00  0.00     0.271 C 
ATOM      3  N   UNL d   1      31.322 -20.740   0.536  0.00  0.00    -0.243 N 
ATOM      4  H   UNL d   1      30.354 -20.674   0.829  0.00  0.00     0.192 HD
ENDROOT
BRANCH   3   5
ATOM      5  N   UNL d   1      31.635 -20.641  -0.810  0.00  0.00    -0.183 NA
ATOM      6  C   UNL d   1      31.195 -21.554  -1.621  0.00  0.00     0.150 C 
BRANCH   6   7
ATOM      7  C   UNL d   1      31.491 -21.506  -3.087  0.00  0.00    -0.016 A 
ATOM      8  C   UNL d   1      32.453 -22.358  -3.631  0.00  0.00     0.014 A 
ATOM      9  C   UNL d   1      32.722 -22.333  -5.006  0.00  0.00     0.013 A 
ATOM     10  C   UNL d   1      32.034 -21.464  -5.868  0.00  0.00    -0.026 A 
ATOM     11  C   UNL d   1      32.289 -21.455  -7.254  0.00  0.00     0.012 A 
ATOM     12  C   UNL d   1      31.066 -20.585  -5.328  0.00  0.00    -0.025 A 
ATOM     13  C   UNL d   1      31.607 -20.585  -8.107  0.00  0.00     0.001 A 
ATOM     14  C   UNL d   1      30.665 -19.708  -7.582  0.00  0.00     0.001 A 
ATOM     15  C   UNL d   1      30.400 -19.704  -6.206  0.00  0.00     0.012 A 
ATOM     16  C   UNL d   1      30.801 -20.622  -3.933  0.00  0.00     0.025 A 
ENDBRANCH   6   7
ENDBRANCH   3   5
BRANCH   2  17
ATOM     17  C   UNL d   1      31.985 -20.995   2.916  0.00  0.00     0.036 A 
ATOM     18  C   UNL d   1      32.911 -20.639   3.921  0.00  0.00     0.020 A 
ATOM     19  C   UNL d   1      32.613 -20.824   5.286  0.00  0.00     0.040 A 
ATOM     20  C   UNL d   1      31.391 -21.380   5.643  0.00  0.00     0.098 A 
ATOM     21  C   UNL d   1      30.483 -21.749   4.649  0.00  0.00     0.099 A 
ATOM     22  C   UNL d   1      30.769 -21.570   3.295  0.00  0.00     0.056 A 
BRANCH  20  23
ATOM     23  O   UNL d   1      31.034 -21.592   6.947  0.00  0.00    -0.358 OA
ATOM     24  H   UNL d   1      30.301 -22.233   6.977  0.00  0.00     0.217 HD
ENDBRANCH  20  23
BRANCH  21  25
ATOM     25  O   UNL d   1      29.280 -22.305   4.986  0.00  0.00    -0.358 OA
ATOM     26  H   UNL d   1      29.413 -22.702   5.870  0.00  0.00     0.217 HD
ENDBRANCH  21  25
ENDBRANCH   2  17
TORSDOF 5
ENDMDL
