MODEL 1
REMARK VINA RESULT:    -9.139      0.000      0.000
REMARK INTER + INTRA:         -11.805
REMARK INTER:                 -10.928
REMARK INTRA:                  -0.877
REMARK CONF_INDEPENDENT:        1.790
REMARK UNBOUND:                -0.877
REMARK  6 active torsions:
REMARK  status: ('A' for Active; 'I' for Inactive)
REMARK    1  A    between atoms: O_2  and  C_3 
REMARK    2  A    between atoms: C_3  and  C_5 
REMARK    3  A    between atoms: C_7  and  N_8 
REMARK       I    between atoms: N_8  and  C_9 
REMARK    4  A    between atoms: C_9  and  C_11 
REMARK    5  A    between atoms: C_11  and  N_13 
REMARK       I    between atoms: N_13  and  C_14 
REMARK       I    between atoms: C_14  and  N_16 
REMARK    6  A    between atoms: N_16  and  C_17 
ROOT
ATOM      1  N   UNL d   1      25.366 -16.464  -2.679  0.00  0.00    -0.325 N 
ATOM      2  C   UNL d   1      25.206 -16.562  -1.278  0.00  0.00     0.244 C 
ATOM      3  O   UNL d   1      25.258 -15.610  -0.493  0.00  0.00    -0.271 OA
ATOM      4  H   UNL d   1      25.275 -17.307  -3.238  0.00  0.00     0.169 HD
ENDROOT
BRANCH   2   5
ATOM      5  C   UNL d   1      24.941 -17.968  -0.654  0.00  0.00     0.174 C 
ATOM      6  C   UNL d   1      26.156 -18.413   0.153  0.00  0.00     0.042 C 
BRANCH   5   7
ATOM      7  N   UNL d   1      23.728 -17.917   0.223  0.00  0.00    -0.330 N 
ATOM      8  C   UNL d   1      22.629 -18.710  -0.020  0.00  0.00     0.321 C 
ATOM      9  O   UNL d   1      22.615 -19.473  -0.983  0.00  0.00    -0.247 OA
ATOM     10  N   UNL d   1      21.579 -18.582   0.874  0.00  0.00    -0.309 N 
ATOM     11  H   UNL d   1      21.520 -17.754   1.449  0.00  0.00     0.170 HD
ATOM     12  H   UNL d   1      23.743 -17.238   0.978  0.00  0.00     0.165 HD
BRANCH  10  13
ATOM     13  C   UNL d   1      20.408 -19.392   0.764  0.00  0.00     0.036 A 
ATOM     14  C   UNL d   1      19.719 -19.517  -0.448  0.00  0.00     0.029 A 
ATOM     15  C   UNL d   1      18.549 -20.294  -0.526  0.00  0.00     0.002 A 
ATOM     16  C   UNL d   1      18.074 -20.971   0.597  0.00  0.00     0.000 A 
ATOM     17  C   UNL d   1      18.744 -20.840   1.808  0.00  0.00     0.002 A 
ATOM     18  C   UNL d   1      19.901 -20.058   1.888  0.00  0.00     0.029 A 
ENDBRANCH  10  13
ENDBRANCH   5   7
ENDBRANCH   2   5
BRANCH   1  19
ATOM     19  C   UNL d   1      25.653 -15.246  -3.399  0.00  0.00     0.035 A 
ATOM     20  C   UNL d   1      26.601 -15.182  -4.453  0.00  0.00     0.049 A 
ATOM     21  C   UNL d   1      26.868 -13.954  -5.146  0.00  0.00     0.063 A 
ATOM     22  C   UNL d   1      26.147 -12.804  -4.803  0.00  0.00     0.050 A 
ATOM     23  C   UNL d   1      25.224 -12.866  -3.766  0.00  0.00     0.027 A 
ATOM     24 CL   UNL d   1      26.257 -11.290  -5.628  0.00  0.00    -0.083 Cl
ATOM     25  C   UNL d   1      24.994 -14.059  -3.081  0.00  0.00     0.031 A 
BRANCH  21  26
ATOM     26  C   UNL d   1      27.849 -13.935  -6.272  0.00  0.00     0.294 C 
ATOM     27  O   UNL d   1      28.118 -12.911  -6.894  0.00  0.00    -0.259 OA
BRANCH  26  28
ATOM     28  O   UNL d   1      28.342 -15.172  -6.542  0.00  0.00    -0.322 OA
ATOM     29  C   UNL d   1      29.775 -15.282  -6.593  0.00  0.00     0.213 C 
ENDBRANCH  26  28
ENDBRANCH  21  26
ENDBRANCH   1  19
TORSDOF 6
ENDMDL
MODEL 2
REMARK VINA RESULT:    -8.347      1.875      2.806
REMARK INTER + INTRA:         -11.109
REMARK INTER:                 -10.137
REMARK INTRA:                  -0.972
REMARK CONF_INDEPENDENT:        1.790
REMARK UNBOUND:                -0.972
REMARK  6 active torsions:
REMARK  status: ('A' for Active; 'I' for Inactive)
REMARK    1  A    between atoms: O_2  and  C_3 
REMARK    2  A    between atoms: C_3  and  C_5 
REMARK    3  A    between atoms: C_7  and  N_8 
REMARK       I    between atoms: N_8  and  C_9 
REMARK    4  A    between atoms: C_9  and  C_11 
REMARK    5  A    between atoms: C_11  and  N_13 
REMARK       I    between atoms: N_13  and  C_14 
REMARK       I    between atoms: C_14  and  N_16 
REMARK    6  A    between atoms: N_16  and  C_17 
ROOT
ATOM      1  N   UNL d   1      26.106 -16.267  -2.353  0.00  0.00    -0.325 N 
ATOM      2  C   UNL d   1      24.927 -16.652  -1.677  0.00  0.00     0.244 C 
ATOM      3  O   UNL d   1      23.852 -16.045  -1.731  0.00  0.00    -0.271 OA
ATOM      4  H   UNL d   1      26.930 -16.855  -2.266  0.00  0.00     0.169 HD
ENDROOT
BRANCH   2   5
ATOM      5  C   UNL d   1      24.959 -17.938  -0.793  0.00  0.00     0.174 C 
ATOM      6  C   UNL d   1      26.279 -18.011  -0.035  0.00  0.00     0.042 C 
BRANCH   5   7
ATOM      7  N   UNL d   1      23.811 -17.925   0.169  0.00  0.00    -0.330 N 
ATOM      8  C   UNL d   1      22.668 -18.657  -0.065  0.00  0.00     0.321 C 
ATOM      9  O   UNL d   1      22.558 -19.330  -1.087  0.00  0.00    -0.247 OA
ATOM     10  N   UNL d   1      21.686 -18.575   0.910  0.00  0.00    -0.309 N 
ATOM     11  H   UNL d   1      21.699 -17.800   1.558  0.00  0.00     0.170 HD
ATOM     12  H   UNL d   1      23.903 -17.318   0.977  0.00  0.00     0.165 HD
BRANCH  10  13
ATOM     13  C   UNL d   1      20.479 -19.333   0.813  0.00  0.00     0.036 A 
ATOM     14  C   UNL d   1      19.985 -20.058   1.904  0.00  0.00     0.029 A 
ATOM     15  C   UNL d   1      18.812 -20.824   1.777  0.00  0.00     0.002 A 
ATOM     16  C   UNL d   1      18.112 -20.852   0.571  0.00  0.00     0.000 A 
ATOM     17  C   UNL d   1      18.605 -20.146  -0.520  0.00  0.00     0.002 A 
ATOM     18  C   UNL d   1      19.778 -19.394  -0.398  0.00  0.00     0.029 A 
ENDBRANCH  10  13
ENDBRANCH   5   7
ENDBRANCH   2   5
BRANCH   1  19
ATOM     19  C   UNL d   1      26.247 -15.088  -3.175  0.00  0.00     0.035 A 
ATOM     20  C   UNL d   1      26.168 -13.772  -2.649  0.00  0.00     0.049 A 
ATOM     21  C   UNL d   1      26.305 -12.620  -3.494  0.00  0.00     0.063 A 
ATOM     22  C   UNL d   1      26.563 -12.798  -4.858  0.00  0.00     0.050 A 
ATOM     23  C   UNL d   1      26.632 -14.087  -5.373  0.00  0.00     0.027 A 
ATOM     24 CL   UNL d   1      26.884 -11.520  -5.975  0.00  0.00    -0.083 Cl
ATOM     25  C   UNL d   1      26.469 -15.199  -4.547  0.00  0.00     0.031 A 
BRANCH  21  26
ATOM     26  C   UNL d   1      26.251 -11.251  -2.898  0.00  0.00     0.294 C 
ATOM     27  O   UNL d   1      27.044 -10.875  -2.040  0.00  0.00    -0.259 OA
BRANCH  26  28
ATOM     28  O   UNL d   1      25.206 -10.526  -3.375  0.00  0.00    -0.322 OA
ATOM     29  C   UNL d   1      25.526  -9.223  -3.890  0.00  0.00     0.213 C 
ENDBRANCH  26  28
ENDBRANCH  21  26
ENDBRANCH   1  19
TORSDOF 6
ENDMDL
MODEL 3
REMARK VINA RESULT:    -7.805      4.733      6.587
REMARK INTER + INTRA:         -10.136
REMARK INTER:                  -9.595
REMARK INTRA:                  -0.541
REMARK CONF_INDEPENDENT:        1.790
REMARK UNBOUND:                -0.541
REMARK  6 active torsions:
REMARK  status: ('A' for Active; 'I' for Inactive)
REMARK    1  A    between atoms: O_2  and  C_3 
REMARK    2  A    between atoms: C_3  and  C_5 
REMARK    3  A    between atoms: C_7  and  N_8 
REMARK       I    between atoms: N_8  and  C_9 
REMARK    4  A    between atoms: C_9  and  C_11 
REMARK    5  A    between atoms: C_11  and  N_13 
REMARK       I    between atoms: N_13  and  C_14 
REMARK       I    between atoms: C_14  and  N_16 
REMARK    6  A    between atoms: N_16  and  C_17 
ROOT
ATOM      1  N   UNL d   1      27.517 -15.635   1.128  0.00  0.00    -0.325 N 
ATOM      2  C   UNL d   1      26.516 -16.000   0.199  0.00  0.00     0.244 C 
ATOM      3  O   UNL d   1      25.532 -15.310  -0.086  0.00  0.00    -0.271 OA
ATOM      4  H   UNL d   1      28.303 -16.264   1.266  0.00  0.00     0.169 HD
ENDROOT
BRANCH   2   5
ATOM      5  C   UNL d   1      26.644 -17.371  -0.536  0.00  0.00     0.174 C 
ATOM      6  C   UNL d   1      26.996 -18.464   0.466  0.00  0.00     0.042 C 
BRANCH   5   7
ATOM      7  N   UNL d   1      25.359 -17.699  -1.231  0.00  0.00    -0.330 N 
ATOM      8  C   UNL d   1      24.260 -18.154  -0.536  0.00  0.00     0.321 C 
ATOM      9  O   UNL d   1      24.318 -18.316   0.680  0.00  0.00    -0.247 OA
ATOM     10  N   UNL d   1      23.126 -18.405  -1.291  0.00  0.00    -0.309 N 
ATOM     11  H   UNL d   1      23.218 -18.541  -2.288  0.00  0.00     0.170 HD
ATOM     12  H   UNL d   1      25.354 -17.611  -2.242  0.00  0.00     0.165 HD
BRANCH  10  13
ATOM     13  C   UNL d   1      21.905 -18.823  -0.680  0.00  0.00     0.036 A 
ATOM     14  C   UNL d   1      21.770 -18.881   0.713  0.00  0.00     0.029 A 
ATOM     15  C   UNL d   1      20.568 -19.327   1.293  0.00  0.00     0.002 A 
ATOM     16  C   UNL d   1      19.488 -19.692   0.491  0.00  0.00     0.000 A 
ATOM     17  C   UNL d   1      19.620 -19.651  -0.892  0.00  0.00     0.002 A 
ATOM     18  C   UNL d   1      20.818 -19.219  -1.470  0.00  0.00     0.029 A 
ENDBRANCH  10  13
ENDBRANCH   5   7
ENDBRANCH   2   5
BRANCH   1  19
ATOM     19  C   UNL d   1      27.522 -14.423   1.912  0.00  0.00     0.035 A 
ATOM     20  C   UNL d   1      27.756 -14.416   3.312  0.00  0.00     0.049 A 
ATOM     21  C   UNL d   1      27.748 -13.194   4.065  0.00  0.00     0.063 A 
ATOM     22  C   UNL d   1      27.545 -11.980   3.398  0.00  0.00     0.050 A 
ATOM     23  C   UNL d   1      27.308 -11.990   2.028  0.00  0.00     0.027 A 
ATOM     24 CL   UNL d   1      27.639 -10.422   4.138  0.00  0.00    -0.083 Cl
ATOM     25  C   UNL d   1      27.290 -13.186   1.312  0.00  0.00     0.031 A 
BRANCH  21  26
ATOM     26  C   UNL d   1      28.033 -13.224   5.531  0.00  0.00     0.294 C 
ATOM     27  O   UNL d   1      27.795 -12.271   6.267  0.00  0.00    -0.259 OA
BRANCH  26  28
ATOM     28  O   UNL d   1      28.623 -14.385   5.914  0.00  0.00    -0.322 OA
ATOM     29  C   UNL d   1      30.030 -14.498   5.642  0.00  0.00     0.213 C 
ENDBRANCH  26  28
ENDBRANCH  21  26
ENDBRANCH   1  19
TORSDOF 6
ENDMDL
MODEL 4
REMARK VINA RESULT:    -7.499      3.500      9.423
REMARK INTER + INTRA:         -10.544
REMARK INTER:                  -9.289
REMARK INTRA:                  -1.255
REMARK CONF_INDEPENDENT:        1.790
REMARK UNBOUND:                -1.255
REMARK  6 active torsions:
REMARK  status: ('A' for Active; 'I' for Inactive)
REMARK    1  A    between atoms: O_2  and  C_3 
REMARK    2  A    between atoms: C_3  and  C_5 
REMARK    3  A    between atoms: C_7  and  N_8 
REMARK       I    between atoms: N_8  and  C_9 
REMARK    4  A    between atoms: C_9  and  C_11 
REMARK    5  A    between atoms: C_11  and  N_13 
REMARK       I    between atoms: N_13  and  C_14 
REMARK       I    between atoms: C_14  and  N_16 
REMARK    6  A    between atoms: N_16  and  C_17 
ROOT
ATOM      1  N   UNL d   1      26.883 -14.563  -3.485  0.00  0.00    -0.325 N 
ATOM      2  C   UNL d   1      25.862 -13.928  -4.227  0.00  0.00     0.244 C 
ATOM      3  O   UNL d   1      24.651 -14.063  -4.020  0.00  0.00    -0.271 OA
ATOM      4  H   UNL d   1      27.851 -14.359  -3.718  0.00  0.00     0.169 HD
ENDROOT
BRANCH   2   5
ATOM      5  C   UNL d   1      26.269 -12.977  -5.395  0.00  0.00     0.174 C 
ATOM      6  C   UNL d   1      25.947 -11.534  -5.024  0.00  0.00     0.042 C 
BRANCH   5   7
ATOM      7  N   UNL d   1      27.731 -13.122  -5.686  0.00  0.00    -0.330 N 
ATOM      8  C   UNL d   1      28.306 -14.358  -5.888  0.00  0.00     0.321 C 
ATOM      9  O   UNL d   1      27.627 -15.378  -5.816  0.00  0.00    -0.247 OA
ATOM     10  N   UNL d   1      29.664 -14.356  -6.166  0.00  0.00    -0.309 N 
ATOM     11  H   UNL d   1      30.215 -13.546  -5.923  0.00  0.00     0.170 HD
ATOM     12  H   UNL d   1      28.281 -12.269  -5.684  0.00  0.00     0.165 HD
BRANCH  10  13
ATOM     13  C   UNL d   1      30.363 -15.567  -6.452  0.00  0.00     0.036 A 
ATOM     14  C   UNL d   1      31.377 -15.612  -7.418  0.00  0.00     0.029 A 
ATOM     15  C   UNL d   1      32.031 -16.824  -7.708  0.00  0.00     0.002 A 
ATOM     16  C   UNL d   1      31.697 -17.990  -7.020  0.00  0.00     0.000 A 
ATOM     17  C   UNL d   1      30.682 -17.956  -6.071  0.00  0.00     0.002 A 
ATOM     18  C   UNL d   1      30.023 -16.754  -5.791  0.00  0.00     0.029 A 
ENDBRANCH  10  13
ENDBRANCH   5   7
ENDBRANCH   2   5
BRANCH   1  19
ATOM     19  C   UNL d   1      26.669 -15.496  -2.404  0.00  0.00     0.035 A 
ATOM     20  C   UNL d   1      25.379 -15.959  -2.034  0.00  0.00     0.049 A 
ATOM     21  C   UNL d   1      25.198 -16.881  -0.949  0.00  0.00     0.063 A 
ATOM     22  C   UNL d   1      26.322 -17.365  -0.268  0.00  0.00     0.050 A 
ATOM     23  C   UNL d   1      27.583 -16.905  -0.627  0.00  0.00     0.027 A 
ATOM     24 CL   UNL d   1      26.280 -18.575   0.964  0.00  0.00    -0.083 Cl
ATOM     25  C   UNL d   1      27.743 -15.987  -1.664  0.00  0.00     0.031 A 
BRANCH  21  26
ATOM     26  C   UNL d   1      23.828 -17.371  -0.613  0.00  0.00     0.294 C 
ATOM     27  O   UNL d   1      22.964 -16.638  -0.141  0.00  0.00    -0.259 OA
BRANCH  26  28
ATOM     28  O   UNL d   1      23.692 -18.704  -0.838  0.00  0.00    -0.322 OA
ATOM     29  C   UNL d   1      22.395 -19.260  -0.564  0.00  0.00     0.213 C 
ENDBRANCH  26  28
ENDBRANCH  21  26
ENDBRANCH   1  19
TORSDOF 6
ENDMDL
MODEL 5
REMARK VINA RESULT:    -7.481      3.652      6.185
REMARK INTER + INTRA:         -10.283
REMARK INTER:                  -9.271
REMARK INTRA:                  -1.012
REMARK CONF_INDEPENDENT:        1.790
REMARK UNBOUND:                -1.012
REMARK  6 active torsions:
REMARK  status: ('A' for Active; 'I' for Inactive)
REMARK    1  A    between atoms: O_2  and  C_3 
REMARK    2  A    between atoms: C_3  and  C_5 
REMARK    3  A    between atoms: C_7  and  N_8 
REMARK       I    between atoms: N_8  and  C_9 
REMARK    4  A    between atoms: C_9  and  C_11 
REMARK    5  A    between atoms: C_11  and  N_13 
REMARK       I    between atoms: N_13  and  C_14 
REMARK       I    between atoms: C_14  and  N_16 
REMARK    6  A    between atoms: N_16  and  C_17 
ROOT
ATOM      1  N   UNL d   1      29.007 -15.346  -4.466  0.00  0.00    -0.325 N 
ATOM      2  C   UNL d   1      27.741 -14.826  -4.821  0.00  0.00     0.244 C 
ATOM      3  O   UNL d   1      27.062 -15.212  -5.778  0.00  0.00    -0.271 OA
ATOM      4  H   UNL d   1      29.468 -14.978  -3.639  0.00  0.00     0.169 HD
ENDROOT
BRANCH   2   5
ATOM      5  C   UNL d   1      27.134 -13.682  -3.950  0.00  0.00     0.174 C 
ATOM      6  C   UNL d   1      25.903 -13.105  -4.640  0.00  0.00     0.042 C 
BRANCH   5   7
ATOM      7  N   UNL d   1      26.768 -14.209  -2.597  0.00  0.00    -0.330 N 
ATOM      8  C   UNL d   1      25.777 -15.152  -2.434  0.00  0.00     0.321 C 
ATOM      9  O   UNL d   1      25.154 -15.572  -3.406  0.00  0.00    -0.247 OA
ATOM     10  N   UNL d   1      25.547 -15.571  -1.134  0.00  0.00    -0.309 N 
ATOM     11  H   UNL d   1      25.864 -14.995  -0.367  0.00  0.00     0.170 HD
ATOM     12  H   UNL d   1      27.258 -13.805  -1.805  0.00  0.00     0.165 HD
BRANCH  10  13
ATOM     13  C   UNL d   1      24.587 -16.587  -0.841  0.00  0.00     0.036 A 
ATOM     14  C   UNL d   1      23.212 -16.328  -0.896  0.00  0.00     0.029 A 
ATOM     15  C   UNL d   1      22.284 -17.335  -0.571  0.00  0.00     0.002 A 
ATOM     16  C   UNL d   1      22.721 -18.611  -0.216  0.00  0.00     0.000 A 
ATOM     17  C   UNL d   1      24.085 -18.871  -0.145  0.00  0.00     0.002 A 
ATOM     18  C   UNL d   1      25.007 -17.867  -0.456  0.00  0.00     0.029 A 
ENDBRANCH  10  13
ENDBRANCH   5   7
ENDBRANCH   2   5
BRANCH   1  19
ATOM     19  C   UNL d   1      29.716 -16.375  -5.190  0.00  0.00     0.035 A 
ATOM     20  C   UNL d   1      30.027 -17.638  -4.621  0.00  0.00     0.049 A 
ATOM     21  C   UNL d   1      30.738 -18.637  -5.365  0.00  0.00     0.063 A 
ATOM     22  C   UNL d   1      31.097 -18.377  -6.693  0.00  0.00     0.050 A 
ATOM     23  C   UNL d   1      30.798 -17.138  -7.245  0.00  0.00     0.027 A 
ATOM     24 CL   UNL d   1      31.834 -19.522  -7.756  0.00  0.00    -0.083 Cl
ATOM     25  C   UNL d   1      30.131 -16.163  -6.503  0.00  0.00     0.031 A 
BRANCH  21  26
ATOM     26  C   UNL d   1      31.017 -19.967  -4.743  0.00  0.00     0.294 C 
ATOM     27  O   UNL d   1      30.387 -20.978  -5.041  0.00  0.00    -0.259 OA
BRANCH  26  28
ATOM     28  O   UNL d   1      31.987 -19.896  -3.795  0.00  0.00    -0.322 OA
ATOM     29  C   UNL d   1      31.535 -19.855  -2.431  0.00  0.00     0.213 C 
ENDBRANCH  26  28
ENDBRANCH  21  26
ENDBRANCH   1  19
TORSDOF 6
ENDMDL
MODEL 6
REMARK VINA RESULT:    -7.445      8.273     11.011
REMARK INTER + INTRA:         -10.129
REMARK INTER:                  -9.235
REMARK INTRA:                  -0.894
REMARK CONF_INDEPENDENT:        1.790
REMARK UNBOUND:                -0.894
REMARK  6 active torsions:
REMARK  status: ('A' for Active; 'I' for Inactive)
REMARK    1  A    between atoms: O_2  and  C_3 
REMARK    2  A    between atoms: C_3  and  C_5 
REMARK    3  A    between atoms: C_7  and  N_8 
REMARK       I    between atoms: N_8  and  C_9 
REMARK    4  A    between atoms: C_9  and  C_11 
REMARK    5  A    between atoms: C_11  and  N_13 
REMARK       I    between atoms: N_13  and  C_14 
REMARK       I    between atoms: C_14  and  N_16 
REMARK    6  A    between atoms: N_16  and  C_17 
ROOT
ATOM      1  N   UNL d   1      30.043 -13.488   5.015  0.00  0.00    -0.325 N 
ATOM      2  C   UNL d   1      29.166 -13.394   3.910  0.00  0.00     0.244 C 
ATOM      3  O   UNL d   1      27.944 -13.227   3.991  0.00  0.00    -0.271 OA
ATOM      4  H   UNL d   1      31.037 -13.594   4.837  0.00  0.00     0.169 HD
ENDROOT
BRANCH   2   5
ATOM      5  C   UNL d   1      29.762 -13.502   2.472  0.00  0.00     0.174 C 
ATOM      6  C   UNL d   1      31.277 -13.340   2.527  0.00  0.00     0.042 C 
BRANCH   5   7
ATOM      7  N   UNL d   1      29.405 -14.825   1.869  0.00  0.00    -0.330 N 
ATOM      8  C   UNL d   1      28.156 -15.062   1.340  0.00  0.00     0.321 C 
ATOM      9  O   UNL d   1      27.294 -14.187   1.366  0.00  0.00    -0.247 OA
ATOM     10  N   UNL d   1      27.957 -16.321   0.796  0.00  0.00    -0.309 N 
ATOM     11  H   UNL d   1      28.574 -17.075   1.061  0.00  0.00     0.170 HD
ATOM     12  H   UNL d   1      30.116 -15.549   1.910  0.00  0.00     0.165 HD
BRANCH  10  13
ATOM     13  C   UNL d   1      26.725 -16.669   0.163  0.00  0.00     0.036 A 
ATOM     14  C   UNL d   1      26.141 -15.838  -0.801  0.00  0.00     0.029 A 
ATOM     15  C   UNL d   1      24.910 -16.185  -1.388  0.00  0.00     0.002 A 
ATOM     16  C   UNL d   1      24.268 -17.372  -1.036  0.00  0.00     0.000 A 
ATOM     17  C   UNL d   1      24.834 -18.194  -0.069  0.00  0.00     0.002 A 
ATOM     18  C   UNL d   1      26.052 -17.844   0.523  0.00  0.00     0.029 A 
ENDBRANCH  10  13
ENDBRANCH   5   7
ENDBRANCH   2   5
BRANCH   1  19
ATOM     19  C   UNL d   1      29.642 -13.445   6.401  0.00  0.00     0.035 A 
ATOM     20  C   UNL d   1      30.308 -14.181   7.416  0.00  0.00     0.049 A 
ATOM     21  C   UNL d   1      29.880 -14.122   8.785  0.00  0.00     0.063 A 
ATOM     22  C   UNL d   1      28.811 -13.288   9.132  0.00  0.00     0.050 A 
ATOM     23  C   UNL d   1      28.155 -12.575   8.137  0.00  0.00     0.027 A 
ATOM     24 CL   UNL d   1      28.266 -13.007  10.748  0.00  0.00    -0.083 Cl
ATOM     25  C   UNL d   1      28.562 -12.662   6.806  0.00  0.00     0.031 A 
BRANCH  21  26
ATOM     26  C   UNL d   1      30.628 -14.884   9.829  0.00  0.00     0.294 C 
ATOM     27  O   UNL d   1      30.154 -15.867  10.393  0.00  0.00    -0.259 OA
BRANCH  26  28
ATOM     28  O   UNL d   1      31.837 -14.328  10.102  0.00  0.00    -0.322 OA
ATOM     29  C   UNL d   1      32.974 -15.200   9.980  0.00  0.00     0.213 C 
ENDBRANCH  26  28
ENDBRANCH  21  26
ENDBRANCH   1  19
TORSDOF 6
ENDMDL
MODEL 7
REMARK VINA RESULT:    -7.228      1.435      1.644
REMARK INTER + INTRA:         -10.336
REMARK INTER:                  -9.017
REMARK INTRA:                  -1.319
REMARK CONF_INDEPENDENT:        1.790
REMARK UNBOUND:                -1.319
REMARK  6 active torsions:
REMARK  status: ('A' for Active; 'I' for Inactive)
REMARK    1  A    between atoms: O_2  and  C_3 
REMARK    2  A    between atoms: C_3  and  C_5 
REMARK    3  A    between atoms: C_7  and  N_8 
REMARK       I    between atoms: N_8  and  C_9 
REMARK    4  A    between atoms: C_9  and  C_11 
REMARK    5  A    between atoms: C_11  and  N_13 
REMARK       I    between atoms: N_13  and  C_14 
REMARK       I    between atoms: C_14  and  N_16 
REMARK    6  A    between atoms: N_16  and  C_17 
ROOT
ATOM      1  N   UNL d   1      26.561 -15.877  -2.969  0.00  0.00    -0.325 N 
ATOM      2  C   UNL d   1      25.225 -15.881  -2.509  0.00  0.00     0.244 C 
ATOM      3  O   UNL d   1      24.385 -15.014  -2.771  0.00  0.00    -0.271 OA
ATOM      4  H   UNL d   1      27.163 -16.656  -2.720  0.00  0.00     0.169 HD
ENDROOT
BRANCH   2   5
ATOM      5  C   UNL d   1      24.751 -17.061  -1.603  0.00  0.00     0.174 C 
ATOM      6  C   UNL d   1      25.363 -16.924  -0.214  0.00  0.00     0.042 C 
BRANCH   5   7
ATOM      7  N   UNL d   1      23.256 -17.066  -1.512  0.00  0.00    -0.330 N 
ATOM      8  C   UNL d   1      22.575 -18.098  -0.906  0.00  0.00     0.321 C 
ATOM      9  O   UNL d   1      23.186 -19.055  -0.437  0.00  0.00    -0.247 OA
ATOM     10  N   UNL d   1      21.195 -17.976  -0.870  0.00  0.00    -0.309 N 
ATOM     11  H   UNL d   1      20.740 -17.343  -1.513  0.00  0.00     0.170 HD
ATOM     12  H   UNL d   1      22.772 -16.292  -1.956  0.00  0.00     0.165 HD
BRANCH  10  13
ATOM     13  C   UNL d   1      20.381 -18.950  -0.217  0.00  0.00     0.036 A 
ATOM     14  C   UNL d   1      19.273 -19.520  -0.857  0.00  0.00     0.029 A 
ATOM     15  C   UNL d   1      18.465 -20.454  -0.183  0.00  0.00     0.002 A 
ATOM     16  C   UNL d   1      18.770 -20.844   1.120  0.00  0.00     0.000 A 
ATOM     17  C   UNL d   1      19.859 -20.271   1.767  0.00  0.00     0.002 A 
ATOM     18  C   UNL d   1      20.656 -19.333   1.101  0.00  0.00     0.029 A 
ENDBRANCH  10  13
ENDBRANCH   5   7
ENDBRANCH   2   5
BRANCH   1  19
ATOM     19  C   UNL d   1      27.158 -14.842  -3.780  0.00  0.00     0.035 A 
ATOM     20  C   UNL d   1      27.963 -15.124  -4.915  0.00  0.00     0.049 A 
ATOM     21  C   UNL d   1      28.547 -14.072  -5.697  0.00  0.00     0.063 A 
ATOM     22  C   UNL d   1      28.284 -12.740  -5.358  0.00  0.00     0.050 A 
ATOM     23  C   UNL d   1      27.502 -12.465  -4.242  0.00  0.00     0.027 A 
ATOM     24 CL   UNL d   1      28.802 -11.370  -6.274  0.00  0.00    -0.083 Cl
ATOM     25  C   UNL d   1      26.963 -13.496  -3.473  0.00  0.00     0.031 A 
BRANCH  21  26
ATOM     26  C   UNL d   1      29.360 -14.409  -6.904  0.00  0.00     0.294 C 
ATOM     27  O   UNL d   1      29.689 -13.565  -7.733  0.00  0.00    -0.259 OA
BRANCH  26  28
ATOM     28  O   UNL d   1      29.627 -15.738  -6.987  0.00  0.00    -0.322 OA
ATOM     29  C   UNL d   1      30.833 -16.180  -6.342  0.00  0.00     0.213 C 
ENDBRANCH  26  28
ENDBRANCH  21  26
ENDBRANCH   1  19
TORSDOF 6
ENDMDL
MODEL 8
REMARK VINA RESULT:    -7.187      1.763      2.816
REMARK INTER + INTRA:         -10.420
REMARK INTER:                  -8.977
REMARK INTRA:                  -1.443
REMARK CONF_INDEPENDENT:        1.790
REMARK UNBOUND:                -1.443
REMARK  6 active torsions:
REMARK  status: ('A' for Active; 'I' for Inactive)
REMARK    1  A    between atoms: O_2  and  C_3 
REMARK    2  A    between atoms: C_3  and  C_5 
REMARK    3  A    between atoms: C_7  and  N_8 
REMARK       I    between atoms: N_8  and  C_9 
REMARK    4  A    between atoms: C_9  and  C_11 
REMARK    5  A    between atoms: C_11  and  N_13 
REMARK       I    between atoms: N_13  and  C_14 
REMARK       I    between atoms: C_14  and  N_16 
REMARK    6  A    between atoms: N_16  and  C_17 
ROOT
ATOM      1  N   UNL d   1      26.554 -15.964  -3.036  0.00  0.00    -0.325 N 
ATOM      2  C   UNL d   1      25.239 -15.910  -2.520  0.00  0.00     0.244 C 
ATOM      3  O   UNL d   1      24.419 -15.021  -2.768  0.00  0.00    -0.271 OA
ATOM      4  H   UNL d   1      27.139 -16.758  -2.794  0.00  0.00     0.169 HD
ENDROOT
BRANCH   2   5
ATOM      5  C   UNL d   1      24.765 -17.051  -1.566  0.00  0.00     0.174 C 
ATOM      6  C   UNL d   1      25.349 -16.837  -0.174  0.00  0.00     0.042 C 
BRANCH   5   7
ATOM      7  N   UNL d   1      23.269 -17.074  -1.502  0.00  0.00    -0.330 N 
ATOM      8  C   UNL d   1      22.591 -18.092  -0.868  0.00  0.00     0.321 C 
ATOM      9  O   UNL d   1      23.207 -19.021  -0.351  0.00  0.00    -0.247 OA
ATOM     10  N   UNL d   1      21.209 -17.989  -0.863  0.00  0.00    -0.309 N 
ATOM     11  H   UNL d   1      20.758 -17.388  -1.538  0.00  0.00     0.170 HD
ATOM     12  H   UNL d   1      22.783 -16.326  -1.985  0.00  0.00     0.165 HD
BRANCH  10  13
ATOM     13  C   UNL d   1      20.396 -18.949  -0.187  0.00  0.00     0.036 A 
ATOM     14  C   UNL d   1      20.678 -19.348   1.125  0.00  0.00     0.029 A 
ATOM     15  C   UNL d   1      19.883 -20.320   1.759  0.00  0.00     0.002 A 
ATOM     16  C   UNL d   1      18.789 -20.879   1.100  0.00  0.00     0.000 A 
ATOM     17  C   UNL d   1      18.512 -20.498  -0.207  0.00  0.00     0.002 A 
ATOM     18  C   UNL d   1      19.309 -19.541  -0.843  0.00  0.00     0.029 A 
ENDBRANCH  10  13
ENDBRANCH   5   7
ENDBRANCH   2   5
BRANCH   1  19
ATOM     19  C   UNL d   1      27.150 -14.970  -3.897  0.00  0.00     0.035 A 
ATOM     20  C   UNL d   1      26.506 -13.745  -4.216  0.00  0.00     0.049 A 
ATOM     21  C   UNL d   1      27.123 -12.780  -5.081  0.00  0.00     0.063 A 
ATOM     22  C   UNL d   1      28.403 -13.033  -5.587  0.00  0.00     0.050 A 
ATOM     23  C   UNL d   1      29.029 -14.236  -5.280  0.00  0.00     0.027 A 
ATOM     24 CL   UNL d   1      29.329 -11.918  -6.527  0.00  0.00    -0.083 Cl
ATOM     25  C   UNL d   1      28.407 -15.178  -4.462  0.00  0.00     0.031 A 
BRANCH  21  26
ATOM     26  C   UNL d   1      26.429 -11.488  -5.365  0.00  0.00     0.294 C 
ATOM     27  O   UNL d   1      25.784 -11.300  -6.393  0.00  0.00    -0.259 OA
BRANCH  26  28
ATOM     28  O   UNL d   1      26.648 -10.564  -4.394  0.00  0.00    -0.322 OA
ATOM     29  C   UNL d   1      25.525  -9.738  -4.044  0.00  0.00     0.213 C 
ENDBRANCH  26  28
ENDBRANCH  21  26
ENDBRANCH   1  19
TORSDOF 6
ENDMDL
MODEL 9
REMARK VINA RESULT:    -6.877      5.630      8.405
REMARK INTER + INTRA:         -10.278
REMARK INTER:                  -8.667
REMARK INTRA:                  -1.612
REMARK CONF_INDEPENDENT:        1.790
REMARK UNBOUND:                -1.612
REMARK  6 active torsions:
REMARK  status: ('A' for Active; 'I' for Inactive)
REMARK    1  A    between atoms: O_2  and  C_3 
REMARK    2  A    between atoms: C_3  and  C_5 
REMARK    3  A    between atoms: C_7  and  N_8 
REMARK       I    between atoms: N_8  and  C_9 
REMARK    4  A    between atoms: C_9  and  C_11 
REMARK    5  A    between atoms: C_11  and  N_13 
REMARK       I    between atoms: N_13  and  C_14 
REMARK       I    between atoms: C_14  and  N_16 
REMARK    6  A    between atoms: N_16  and  C_17 
ROOT
ATOM      1  N   UNL d   1      29.068 -15.993   0.396  0.00  0.00    -0.325 N 
ATOM      2  C   UNL d   1      30.138 -15.697  -0.478  0.00  0.00     0.244 C 
ATOM      3  O   UNL d   1      30.073 -15.731  -1.711  0.00  0.00    -0.271 OA
ATOM      4  H   UNL d   1      29.219 -15.903   1.397  0.00  0.00     0.169 HD
ENDROOT
BRANCH   2   5
ATOM      5  C   UNL d   1      31.513 -15.290   0.137  0.00  0.00     0.174 C 
ATOM      6  C   UNL d   1      31.880 -13.878  -0.305  0.00  0.00     0.042 C 
BRANCH   5   7
ATOM      7  N   UNL d   1      31.446 -15.363   1.632  0.00  0.00    -0.330 N 
ATOM      8  C   UNL d   1      30.560 -14.591   2.351  0.00  0.00     0.321 C 
ATOM      9  O   UNL d   1      29.810 -13.807   1.776  0.00  0.00    -0.247 OA
ATOM     10  N   UNL d   1      30.584 -14.764   3.726  0.00  0.00    -0.309 N 
ATOM     11  H   UNL d   1      31.397 -15.182   4.156  0.00  0.00     0.170 HD
ATOM     12  H   UNL d   1      32.114 -15.977   2.087  0.00  0.00     0.165 HD
BRANCH  10  13
ATOM     13  C   UNL d   1      29.674 -14.067   4.577  0.00  0.00     0.036 A 
ATOM     14  C   UNL d   1      30.116 -13.074   5.459  0.00  0.00     0.029 A 
ATOM     15  C   UNL d   1      29.207 -12.422   6.312  0.00  0.00     0.002 A 
ATOM     16  C   UNL d   1      27.849 -12.739   6.273  0.00  0.00     0.000 A 
ATOM     17  C   UNL d   1      27.405 -13.735   5.411  0.00  0.00     0.002 A 
ATOM     18  C   UNL d   1      28.311 -14.391   4.571  0.00  0.00     0.029 A 
ENDBRANCH  10  13
ENDBRANCH   5   7
ENDBRANCH   2   5
BRANCH   1  19
ATOM     19  C   UNL d   1      27.751 -16.419  -0.016  0.00  0.00     0.035 A 
ATOM     20  C   UNL d   1      27.031 -15.783  -1.061  0.00  0.00     0.049 A 
ATOM     21  C   UNL d   1      25.720 -16.227  -1.443  0.00  0.00     0.063 A 
ATOM     22  C   UNL d   1      25.158 -17.335  -0.798  0.00  0.00     0.050 A 
ATOM     23  C   UNL d   1      25.861 -17.950   0.230  0.00  0.00     0.027 A 
ATOM     24 CL   UNL d   1      23.655 -18.068  -1.232  0.00  0.00    -0.083 Cl
ATOM     25  C   UNL d   1      27.121 -17.493   0.611  0.00  0.00     0.031 A 
BRANCH  21  26
ATOM     26  C   UNL d   1      25.009 -15.554  -2.571  0.00  0.00     0.294 C 
ATOM     27  O   UNL d   1      24.037 -14.825  -2.395  0.00  0.00    -0.259 OA
BRANCH  26  28
ATOM     28  O   UNL d   1      25.530 -15.892  -3.779  0.00  0.00    -0.322 OA
ATOM     29  C   UNL d   1      26.124 -14.821  -4.532  0.00  0.00     0.213 C 
ENDBRANCH  26  28
ENDBRANCH  21  26
ENDBRANCH   1  19
TORSDOF 6
ENDMDL
