MODEL 1
REMARK VINA RESULT:    -8.503      0.000      0.000
REMARK INTER + INTRA:         -11.516
REMARK INTER:                 -10.293
REMARK INTRA:                  -1.222
REMARK CONF_INDEPENDENT:        1.790
REMARK UNBOUND:                -1.222
REMARK  6 active torsions:
REMARK  status: ('A' for Active; 'I' for Inactive)
REMARK    1  A    between atoms: C_8  and  N_9 
REMARK       I    between atoms: N_9  and  C_10 
REMARK    2  A    between atoms: C_12  and  C_10 
REMARK    3  A    between atoms: C_15  and  C_16 
REMARK    4  A    between atoms: C_16  and  N_17 
REMARK    5  A    between atoms: N_17  and  C_18 
REMARK    6  A    between atoms: C_19  and  O_20 
ROOT
ATOM      1  C   UNL d   1      28.697 -13.610   4.224  0.00  0.00     0.078 C 
ATOM      2  C   UNL d   1      29.343 -14.450   3.128  0.00  0.00     0.014 C 
ATOM      3  C   UNL d   1      28.863 -14.033   1.755  0.00  0.00     0.007 C 
ATOM      4  C   UNL d   1      27.334 -14.104   1.633  0.00  0.00     0.003 C 
ATOM      5  C   UNL d   1      26.703 -13.248   2.747  0.00  0.00     0.007 C 
ATOM      6  C   UNL d   1      27.168 -13.701   4.123  0.00  0.00     0.014 C 
ENDROOT
BRANCH   4   7
ATOM      7  C   UNL d   1      26.791 -13.631   0.276  0.00  0.00     0.124 C 
BRANCH   7   8
ATOM      8  N   UNL d   1      26.590 -14.728  -0.686  0.00  0.00    -0.385 N 
ATOM      9  H   UNL d   1      26.888 -14.444  -1.621  0.00  0.00     0.159 HD
BRANCH   8  10
ATOM     10  C   UNL d   1      26.774 -15.994  -0.391  0.00  0.00     0.097 A 
ATOM     11  C   UNL d   1      27.815 -16.789   0.013  0.00  0.00     0.147 A 
ATOM     12  C   UNL d   1      26.948 -17.983  -0.004  0.00  0.00     0.236 A 
ATOM     13  O   UNL d   1      26.988 -19.169   0.231  0.00  0.00    -0.283 OA
ATOM     14  C   UNL d   1      25.852 -17.151  -0.491  0.00  0.00     0.113 A 
ATOM     15  N   UNL d   1      24.648 -17.394  -0.881  0.00  0.00    -0.372 N 
ATOM     16  C   UNL d   1      23.950 -18.726  -0.857  0.00  0.00     0.149 C 
ATOM     17  C   UNL d   1      23.748 -16.322  -1.426  0.00  0.00     0.149 C 
ATOM     18  C   UNL d   1      22.677 -18.559  -0.019  0.00  0.00     0.187 C 
ATOM     19  O   UNL d   1      21.852 -17.496  -0.521  0.00  0.00    -0.388 OA
ATOM     20  C   UNL d   1      22.531 -16.235  -0.512  0.00  0.00     0.187 C 
BRANCH  11  21
ATOM     21  O   UNL d   1      29.048 -16.591   0.315  0.00  0.00    -0.355 OA
ATOM     22  H   UNL d   1      29.282 -16.993   1.175  0.00  0.00     0.218 HD
ENDBRANCH  11  21
ENDBRANCH   8  10
ENDBRANCH   7   8
ENDBRANCH   4   7
BRANCH   1  23
ATOM     23  C   UNL d   1      29.206 -14.147   5.543  0.00  0.00     0.222 C 
ATOM     24  N   UNL d   1      28.735 -13.477   6.655  0.00  0.00    -0.356 N 
ATOM     25  H   UNL d   1      28.044 -12.744   6.559  0.00  0.00     0.162 HD
ATOM     26  O   UNL d   1      30.025 -15.059   5.589  0.00  0.00    -0.273 OA
BRANCH  24  27
ATOM     27  C   UNL d   1      29.090 -13.918   8.001  0.00  0.00     0.088 C 
ATOM     28  C   UNL d   1      30.614 -13.943   8.190  0.00  0.00     0.025 C 
ATOM     29  C   UNL d   1      30.981 -14.444   9.585  0.00  0.00     0.002 C 
ATOM     30  C   UNL d   1      30.327 -13.602  10.681  0.00  0.00     0.005 C 
ATOM     31  C   UNL d   1      28.806 -13.544  10.496  0.00  0.00    -0.013 C 
ATOM     32  C   UNL d   1      28.442 -13.024   9.087  0.00  0.00     0.008 C 
ATOM     33  C   UNL d   1      28.155 -12.685  11.579  0.00  0.00     0.010 C 
ATOM     34  C   UNL d   1      28.846 -11.551   8.889  0.00  0.00     0.012 C 
ENDBRANCH  24  27
ENDBRANCH   1  23
TORSDOF 6
ENDMDL
MODEL 2
REMARK VINA RESULT:    -8.353      6.910     10.952
REMARK INTER + INTRA:         -11.272
REMARK INTER:                 -10.143
REMARK INTRA:                  -1.129
REMARK CONF_INDEPENDENT:        1.790
REMARK UNBOUND:                -1.129
REMARK  6 active torsions:
REMARK  status: ('A' for Active; 'I' for Inactive)
REMARK    1  A    between atoms: C_8  and  N_9 
REMARK       I    between atoms: N_9  and  C_10 
REMARK    2  A    between atoms: C_12  and  C_10 
REMARK    3  A    between atoms: C_15  and  C_16 
REMARK    4  A    between atoms: C_16  and  N_17 
REMARK    5  A    between atoms: N_17  and  C_18 
REMARK    6  A    between atoms: C_19  and  O_20 
ROOT
ATOM      1  C   UNL d   1      25.544 -13.571  -4.058  0.00  0.00     0.078 C 
ATOM      2  C   UNL d   1      25.759 -12.544  -2.953  0.00  0.00     0.014 C 
ATOM      3  C   UNL d   1      25.531 -11.134  -3.455  0.00  0.00     0.007 C 
ATOM      4  C   UNL d   1      26.423 -10.799  -4.658  0.00  0.00     0.003 C 
ATOM      5  C   UNL d   1      26.188 -11.847  -5.763  0.00  0.00     0.007 C 
ATOM      6  C   UNL d   1      26.456 -13.255  -5.253  0.00  0.00     0.014 C 
ENDROOT
BRANCH   4   7
ATOM      7  C   UNL d   1      26.184  -9.399  -5.245  0.00  0.00     0.124 C 
BRANCH   7   8
ATOM      8  N   UNL d   1      24.763  -9.107  -5.497  0.00  0.00    -0.385 N 
ATOM      9  H   UNL d   1      24.175  -9.875  -5.166  0.00  0.00     0.159 HD
BRANCH   8  10
ATOM     10  C   UNL d   1      24.240  -7.907  -5.397  0.00  0.00     0.097 A 
ATOM     11  C   UNL d   1      23.425  -7.102  -6.150  0.00  0.00     0.147 A 
ATOM     12  C   UNL d   1      23.524  -6.019  -5.152  0.00  0.00     0.236 A 
ATOM     13  O   UNL d   1      23.113  -4.901  -4.945  0.00  0.00    -0.283 OA
ATOM     14  C   UNL d   1      24.440  -6.850  -4.376  0.00  0.00     0.113 A 
ATOM     15  N   UNL d   1      25.135  -6.660  -3.309  0.00  0.00    -0.372 N 
ATOM     16  C   UNL d   1      25.125  -5.432  -2.439  0.00  0.00     0.149 C 
ATOM     17  C   UNL d   1      26.083  -7.695  -2.772  0.00  0.00     0.149 C 
ATOM     18  C   UNL d   1      24.747  -5.881  -1.022  0.00  0.00     0.187 C 
ATOM     19  O   UNL d   1      25.629  -6.907  -0.543  0.00  0.00    -0.388 OA
ATOM     20  C   UNL d   1      25.605  -8.074  -1.374  0.00  0.00     0.187 C 
BRANCH  11  21
ATOM     21  O   UNL d   1      22.796  -7.229  -7.263  0.00  0.00    -0.355 OA
ATOM     22  H   UNL d   1      21.943  -7.692  -7.149  0.00  0.00     0.218 HD
ENDBRANCH  11  21
ENDBRANCH   8  10
ENDBRANCH   7   8
ENDBRANCH   4   7
BRANCH   1  23
ATOM     23  C   UNL d   1      25.851 -14.926  -3.460  0.00  0.00     0.222 C 
ATOM     24  N   UNL d   1      25.065 -15.265  -2.376  0.00  0.00    -0.356 N 
ATOM     25  H   UNL d   1      24.303 -14.665  -2.086  0.00  0.00     0.162 HD
ATOM     26  O   UNL d   1      26.774 -15.616  -3.878  0.00  0.00    -0.273 OA
BRANCH  24  27
ATOM     27  C   UNL d   1      25.202 -16.566  -1.729  0.00  0.00     0.088 C 
ATOM     28  C   UNL d   1      26.004 -16.453  -0.424  0.00  0.00     0.025 C 
ATOM     29  C   UNL d   1      26.180 -17.824   0.227  0.00  0.00     0.002 C 
ATOM     30  C   UNL d   1      24.837 -18.504   0.489  0.00  0.00     0.005 C 
ATOM     31  C   UNL d   1      24.009 -18.605  -0.798  0.00  0.00    -0.013 C 
ATOM     32  C   UNL d   1      23.824 -17.214  -1.445  0.00  0.00     0.008 C 
ATOM     33  C   UNL d   1      22.659 -19.267  -0.531  0.00  0.00     0.010 C 
ATOM     34  C   UNL d   1      22.957 -16.282  -0.578  0.00  0.00     0.012 C 
ENDBRANCH  24  27
ENDBRANCH   1  23
TORSDOF 6
ENDMDL
MODEL 3
REMARK VINA RESULT:    -8.306      5.832     10.644
REMARK INTER + INTRA:         -11.286
REMARK INTER:                 -10.095
REMARK INTRA:                  -1.190
REMARK CONF_INDEPENDENT:        1.790
REMARK UNBOUND:                -1.190
REMARK  6 active torsions:
REMARK  status: ('A' for Active; 'I' for Inactive)
REMARK    1  A    between atoms: C_8  and  N_9 
REMARK       I    between atoms: N_9  and  C_10 
REMARK    2  A    between atoms: C_12  and  C_10 
REMARK    3  A    between atoms: C_15  and  C_16 
REMARK    4  A    between atoms: C_16  and  N_17 
REMARK    5  A    between atoms: N_17  and  C_18 
REMARK    6  A    between atoms: C_19  and  O_20 
ROOT
ATOM      1  C   UNL d   1      28.966 -14.916  -5.220  0.00  0.00     0.078 C 
ATOM      2  C   UNL d   1      27.523 -14.835  -5.702  0.00  0.00     0.014 C 
ATOM      3  C   UNL d   1      26.613 -14.266  -4.634  0.00  0.00     0.007 C 
ATOM      4  C   UNL d   1      26.682 -15.072  -3.329  0.00  0.00     0.003 C 
ATOM      5  C   UNL d   1      28.148 -15.140  -2.860  0.00  0.00     0.007 C 
ATOM      6  C   UNL d   1      29.043 -15.745  -3.930  0.00  0.00     0.014 C 
ENDROOT
BRANCH   4   7
ATOM      7  C   UNL d   1      25.823 -14.498  -2.193  0.00  0.00     0.124 C 
BRANCH   7   8
ATOM      8  N   UNL d   1      26.410 -14.702  -0.858  0.00  0.00    -0.385 N 
ATOM      9  H   UNL d   1      26.081 -13.986  -0.208  0.00  0.00     0.159 HD
BRANCH   8  10
ATOM     10  C   UNL d   1      26.628 -15.887  -0.335  0.00  0.00     0.097 A 
ATOM     11  C   UNL d   1      27.673 -16.541   0.266  0.00  0.00     0.147 A 
ATOM     12  C   UNL d   1      26.862 -17.766   0.406  0.00  0.00     0.236 A 
ATOM     13  O   UNL d   1      26.937 -18.890   0.848  0.00  0.00    -0.283 OA
ATOM     14  C   UNL d   1      25.767 -17.093  -0.286  0.00  0.00     0.113 A 
ATOM     15  N   UNL d   1      24.606 -17.466  -0.700  0.00  0.00    -0.372 N 
ATOM     16  C   UNL d   1      23.967 -18.811  -0.486  0.00  0.00     0.149 C 
ATOM     17  C   UNL d   1      23.700 -16.555  -1.480  0.00  0.00     0.149 C 
ATOM     18  C   UNL d   1      22.632 -18.572   0.230  0.00  0.00     0.187 C 
ATOM     19  O   UNL d   1      21.799 -17.659  -0.501  0.00  0.00    -0.388 OA
ATOM     20  C   UNL d   1      22.419 -16.379  -0.673  0.00  0.00     0.187 C 
BRANCH  11  21
ATOM     21  O   UNL d   1      28.871 -16.227   0.605  0.00  0.00    -0.355 OA
ATOM     22  H   UNL d   1      29.234 -16.839   1.274  0.00  0.00     0.218 HD
ENDBRANCH  11  21
ENDBRANCH   8  10
ENDBRANCH   7   8
ENDBRANCH   4   7
BRANCH   1  23
ATOM     23  C   UNL d   1      29.766 -15.544  -6.340  0.00  0.00     0.222 C 
ATOM     24  N   UNL d   1      30.043 -16.885  -6.165  0.00  0.00    -0.356 N 
ATOM     25  H   UNL d   1      29.657 -17.391  -5.377  0.00  0.00     0.162 HD
ATOM     26  O   UNL d   1      30.181 -14.877  -7.282  0.00  0.00    -0.273 OA
BRANCH  24  27
ATOM     27  C   UNL d   1      30.755 -17.643  -7.189  0.00  0.00     0.088 C 
ATOM     28  C   UNL d   1      32.187 -17.119  -7.370  0.00  0.00     0.025 C 
ATOM     29  C   UNL d   1      32.913 -17.889  -8.471  0.00  0.00     0.002 C 
ATOM     30  C   UNL d   1      32.931 -19.392  -8.197  0.00  0.00     0.005 C 
ATOM     31  C   UNL d   1      31.511 -19.932  -7.989  0.00  0.00    -0.013 C 
ATOM     32  C   UNL d   1      30.787 -19.157  -6.864  0.00  0.00     0.008 C 
ATOM     33  C   UNL d   1      31.531 -21.430  -7.694  0.00  0.00     0.010 C 
ATOM     34  C   UNL d   1      31.428 -19.402  -5.485  0.00  0.00     0.012 C 
ENDBRANCH  24  27
ENDBRANCH   1  23
TORSDOF 6
ENDMDL
MODEL 4
REMARK VINA RESULT:    -8.075      5.613      9.788
REMARK INTER + INTRA:         -11.618
REMARK INTER:                  -9.865
REMARK INTRA:                  -1.754
REMARK CONF_INDEPENDENT:        1.790
REMARK UNBOUND:                -1.754
REMARK  6 active torsions:
REMARK  status: ('A' for Active; 'I' for Inactive)
REMARK    1  A    between atoms: C_8  and  N_9 
REMARK       I    between atoms: N_9  and  C_10 
REMARK    2  A    between atoms: C_12  and  C_10 
REMARK    3  A    between atoms: C_15  and  C_16 
REMARK    4  A    between atoms: C_16  and  N_17 
REMARK    5  A    between atoms: N_17  and  C_18 
REMARK    6  A    between atoms: C_19  and  O_20 
ROOT
ATOM      1  C   UNL d   1      25.515 -13.534  -4.124  0.00  0.00     0.078 C 
ATOM      2  C   UNL d   1      25.524 -12.706  -2.845  0.00  0.00     0.014 C 
ATOM      3  C   UNL d   1      25.564 -11.223  -3.145  0.00  0.00     0.007 C 
ATOM      4  C   UNL d   1      26.767 -10.843  -4.019  0.00  0.00     0.003 C 
ATOM      5  C   UNL d   1      26.737 -11.689  -5.306  0.00  0.00     0.007 C 
ATOM      6  C   UNL d   1      26.734 -13.177  -4.989  0.00  0.00     0.014 C 
ENDROOT
BRANCH   4   7
ATOM      7  C   UNL d   1      26.818  -9.357  -4.404  0.00  0.00     0.124 C 
BRANCH   7   8
ATOM      8  N   UNL d   1      27.295  -8.489  -3.315  0.00  0.00    -0.385 N 
ATOM      9  H   UNL d   1      27.776  -7.670  -3.693  0.00  0.00     0.159 HD
BRANCH   8  10
ATOM     10  C   UNL d   1      26.630  -8.292  -2.200  0.00  0.00     0.097 A 
ATOM     11  C   UNL d   1      25.696  -7.404  -1.733  0.00  0.00     0.147 A 
ATOM     12  C   UNL d   1      25.693  -8.058  -0.411  0.00  0.00     0.236 A 
ATOM     13  O   UNL d   1      25.153  -7.979   0.669  0.00  0.00    -0.283 OA
ATOM     14  C   UNL d   1      26.731  -8.968  -0.884  0.00  0.00     0.113 A 
ATOM     15  N   UNL d   1      27.434  -9.893  -0.327  0.00  0.00    -0.372 N 
ATOM     16  C   UNL d   1      27.301 -10.392   1.085  0.00  0.00     0.149 C 
ATOM     17  C   UNL d   1      28.521 -10.628  -1.060  0.00  0.00     0.149 C 
ATOM     18  C   UNL d   1      27.030 -11.900   1.012  0.00  0.00     0.187 C 
ATOM     19  O   UNL d   1      28.049 -12.581   0.265  0.00  0.00    -0.388 OA
ATOM     20  C   UNL d   1      28.143 -12.105  -1.083  0.00  0.00     0.187 C 
BRANCH  11  21
ATOM     21  O   UNL d   1      25.049  -6.413  -2.235  0.00  0.00    -0.355 OA
ATOM     22  H   UNL d   1      24.083  -6.559  -2.213  0.00  0.00     0.218 HD
ENDBRANCH  11  21
ENDBRANCH   8  10
ENDBRANCH   7   8
ENDBRANCH   4   7
BRANCH   1  23
ATOM     23  C   UNL d   1      25.530 -14.987  -3.704  0.00  0.00     0.222 C 
ATOM     24  N   UNL d   1      25.297 -15.197  -2.359  0.00  0.00    -0.356 N 
ATOM     25  H   UNL d   1      25.058 -14.422  -1.752  0.00  0.00     0.162 HD
ATOM     26  O   UNL d   1      25.800 -15.880  -4.499  0.00  0.00    -0.273 OA
BRANCH  24  27
ATOM     27  C   UNL d   1      25.221 -16.549  -1.815  0.00  0.00     0.088 C 
ATOM     28  C   UNL d   1      25.957 -16.645  -0.470  0.00  0.00     0.025 C 
ATOM     29  C   UNL d   1      25.910 -18.071   0.075  0.00  0.00     0.002 C 
ATOM     30  C   UNL d   1      24.475 -18.576   0.222  0.00  0.00     0.005 C 
ATOM     31  C   UNL d   1      23.714 -18.465  -1.105  0.00  0.00    -0.013 C 
ATOM     32  C   UNL d   1      23.754 -17.017  -1.644  0.00  0.00     0.008 C 
ATOM     33  C   UNL d   1      22.273 -18.950  -0.953  0.00  0.00     0.010 C 
ATOM     34  C   UNL d   1      22.975 -16.040  -0.745  0.00  0.00     0.012 C 
ENDBRANCH  24  27
ENDBRANCH   1  23
TORSDOF 6
ENDMDL
MODEL 5
REMARK VINA RESULT:    -8.002      2.065      2.663
REMARK INTER + INTRA:         -11.138
REMARK INTER:                  -9.792
REMARK INTRA:                  -1.347
REMARK CONF_INDEPENDENT:        1.790
REMARK UNBOUND:                -1.347
REMARK  6 active torsions:
REMARK  status: ('A' for Active; 'I' for Inactive)
REMARK    1  A    between atoms: C_8  and  N_9 
REMARK       I    between atoms: N_9  and  C_10 
REMARK    2  A    between atoms: C_12  and  C_10 
REMARK    3  A    between atoms: C_15  and  C_16 
REMARK    4  A    between atoms: C_16  and  N_17 
REMARK    5  A    between atoms: N_17  and  C_18 
REMARK    6  A    between atoms: C_19  and  O_20 
ROOT
ATOM      1  C   UNL d   1      28.453 -13.461   3.945  0.00  0.00     0.078 C 
ATOM      2  C   UNL d   1      29.626 -14.046   3.167  0.00  0.00     0.014 C 
ATOM      3  C   UNL d   1      29.706 -13.470   1.769  0.00  0.00     0.007 C 
ATOM      4  C   UNL d   1      28.404 -13.680   0.984  0.00  0.00     0.003 C 
ATOM      5  C   UNL d   1      27.234 -13.081   1.786  0.00  0.00     0.007 C 
ATOM      6  C   UNL d   1      27.145 -13.694   3.176  0.00  0.00     0.014 C 
ENDROOT
BRANCH   4   7
ATOM      7  C   UNL d   1      28.413 -13.058  -0.421  0.00  0.00     0.124 C 
BRANCH   7   8
ATOM      8  N   UNL d   1      28.242 -14.048  -1.497  0.00  0.00    -0.385 N 
ATOM      9  H   UNL d   1      28.659 -14.943  -1.232  0.00  0.00     0.159 HD
BRANCH   8  10
ATOM     10  C   UNL d   1      27.168 -14.123  -2.250  0.00  0.00     0.097 A 
ATOM     11  C   UNL d   1      26.701 -13.527  -3.393  0.00  0.00     0.147 A 
ATOM     12  C   UNL d   1      25.443 -14.293  -3.312  0.00  0.00     0.236 A 
ATOM     13  O   UNL d   1      24.405 -14.450  -3.914  0.00  0.00    -0.283 OA
ATOM     14  C   UNL d   1      25.911 -14.886  -2.064  0.00  0.00     0.113 A 
ATOM     15  N   UNL d   1      25.382 -15.675  -1.193  0.00  0.00    -0.372 N 
ATOM     16  C   UNL d   1      24.031 -16.331  -1.281  0.00  0.00     0.149 C 
ATOM     17  C   UNL d   1      26.088 -16.061   0.076  0.00  0.00     0.149 C 
ATOM     18  C   UNL d   1      24.252 -17.845  -1.181  0.00  0.00     0.187 C 
ATOM     19  O   UNL d   1      24.974 -18.194   0.010  0.00  0.00    -0.388 OA
ATOM     20  C   UNL d   1      26.265 -17.576   0.061  0.00  0.00     0.187 C 
BRANCH  11  21
ATOM     21  O   UNL d   1      27.165 -12.668  -4.228  0.00  0.00    -0.355 OA
ATOM     22  H   UNL d   1      26.773 -12.773  -5.116  0.00  0.00     0.218 HD
ENDBRANCH  11  21
ENDBRANCH   8  10
ENDBRANCH   7   8
ENDBRANCH   4   7
BRANCH   1  23
ATOM     23  C   UNL d   1      28.441 -14.144   5.295  0.00  0.00     0.222 C 
ATOM     24  N   UNL d   1      29.276 -13.571   6.234  0.00  0.00    -0.356 N 
ATOM     25  H   UNL d   1      29.777 -12.717   6.024  0.00  0.00     0.162 HD
ATOM     26  O   UNL d   1      27.787 -15.162   5.490  0.00  0.00    -0.273 OA
BRANCH  24  27
ATOM     27  C   UNL d   1      29.327 -14.082   7.600  0.00  0.00     0.088 C 
ATOM     28  C   UNL d   1      30.778 -14.220   8.085  0.00  0.00     0.025 C 
ATOM     29  C   UNL d   1      30.827 -14.794   9.500  0.00  0.00     0.002 C 
ATOM     30  C   UNL d   1      30.020 -13.948  10.484  0.00  0.00     0.005 C 
ATOM     31  C   UNL d   1      28.572 -13.777  10.006  0.00  0.00    -0.013 C 
ATOM     32  C   UNL d   1      28.530 -13.184   8.579  0.00  0.00     0.008 C 
ATOM     33  C   UNL d   1      27.772 -12.914  10.979  0.00  0.00     0.010 C 
ATOM     34  C   UNL d   1      29.055 -11.737   8.536  0.00  0.00     0.012 C 
ENDBRANCH  24  27
ENDBRANCH   1  23
TORSDOF 6
ENDMDL
MODEL 6
REMARK VINA RESULT:    -7.962      6.357      7.666
REMARK INTER + INTRA:         -10.953
REMARK INTER:                  -9.752
REMARK INTRA:                  -1.201
REMARK CONF_INDEPENDENT:        1.790
REMARK UNBOUND:                -1.201
REMARK  6 active torsions:
REMARK  status: ('A' for Active; 'I' for Inactive)
REMARK    1  A    between atoms: C_8  and  N_9 
REMARK       I    between atoms: N_9  and  C_10 
REMARK    2  A    between atoms: C_12  and  C_10 
REMARK    3  A    between atoms: C_15  and  C_16 
REMARK    4  A    between atoms: C_16  and  N_17 
REMARK    5  A    between atoms: N_17  and  C_18 
REMARK    6  A    between atoms: C_19  and  O_20 
ROOT
ATOM      1  C   UNL d   1      31.707 -20.474   3.927  0.00  0.00     0.078 C 
ATOM      2  C   UNL d   1      32.789 -19.443   3.630  0.00  0.00     0.014 C 
ATOM      3  C   UNL d   1      32.631 -18.858   2.243  0.00  0.00     0.007 C 
ATOM      4  C   UNL d   1      32.631 -19.942   1.156  0.00  0.00     0.003 C 
ATOM      5  C   UNL d   1      31.530 -20.971   1.475  0.00  0.00     0.007 C 
ATOM      6  C   UNL d   1      31.723 -21.576   2.858  0.00  0.00     0.014 C 
ENDROOT
BRANCH   4   7
ATOM      7  C   UNL d   1      32.410 -19.405  -0.266  0.00  0.00     0.124 C 
BRANCH   7   8
ATOM      8  N   UNL d   1      31.052 -18.883  -0.487  0.00  0.00    -0.385 N 
ATOM      9  H   UNL d   1      30.639 -18.570   0.394  0.00  0.00     0.159 HD
BRANCH   8  10
ATOM     10  C   UNL d   1      30.702 -18.198  -1.552  0.00  0.00     0.097 A 
ATOM     11  C   UNL d   1      31.254 -17.880  -2.766  0.00  0.00     0.147 A 
ATOM     12  C   UNL d   1      30.070 -17.076  -3.126  0.00  0.00     0.236 A 
ATOM     13  O   UNL d   1      29.635 -16.412  -4.039  0.00  0.00    -0.283 OA
ATOM     14  C   UNL d   1      29.504 -17.363  -1.812  0.00  0.00     0.113 A 
ATOM     15  N   UNL d   1      28.446 -16.974  -1.188  0.00  0.00    -0.372 N 
ATOM     16  C   UNL d   1      27.356 -16.094  -1.734  0.00  0.00     0.149 C 
ATOM     17  C   UNL d   1      28.155 -17.379   0.230  0.00  0.00     0.149 C 
ATOM     18  C   UNL d   1      26.040 -16.871  -1.614  0.00  0.00     0.187 C 
ATOM     19  O   UNL d   1      25.801 -17.297  -0.264  0.00  0.00    -0.388 OA
ATOM     20  C   UNL d   1      26.841 -18.151   0.226  0.00  0.00     0.187 C 
BRANCH  11  21
ATOM     21  O   UNL d   1      32.346 -18.173  -3.375  0.00  0.00    -0.355 OA
ATOM     22  H   UNL d   1      33.119 -18.140  -2.778  0.00  0.00     0.218 HD
ENDBRANCH  11  21
ENDBRANCH   8  10
ENDBRANCH   7   8
ENDBRANCH   4   7
BRANCH   1  23
ATOM     23  C   UNL d   1      31.996 -21.025   5.306  0.00  0.00     0.222 C 
ATOM     24  N   UNL d   1      33.170 -21.746   5.400  0.00  0.00    -0.356 N 
ATOM     25  H   UNL d   1      33.798 -21.810   4.609  0.00  0.00     0.162 HD
ATOM     26  O   UNL d   1      31.202 -20.886   6.230  0.00  0.00    -0.273 OA
BRANCH  24  27
ATOM     27  C   UNL d   1      33.614 -22.289   6.680  0.00  0.00     0.088 C 
ATOM     28  C   UNL d   1      34.370 -23.612   6.487  0.00  0.00     0.025 C 
ATOM     29  C   UNL d   1      34.797 -24.196   7.832  0.00  0.00     0.002 C 
ATOM     30  C   UNL d   1      35.649 -23.213   8.634  0.00  0.00     0.005 C 
ATOM     31  C   UNL d   1      34.921 -21.876   8.817  0.00  0.00    -0.013 C 
ATOM     32  C   UNL d   1      34.504 -21.284   7.452  0.00  0.00     0.008 C 
ATOM     33  C   UNL d   1      35.782 -20.887   9.601  0.00  0.00     0.010 C 
ATOM     34  C   UNL d   1      35.720 -20.873   6.601  0.00  0.00     0.012 C 
ENDBRANCH  24  27
ENDBRANCH   1  23
TORSDOF 6
ENDMDL
MODEL 7
REMARK VINA RESULT:    -7.864      2.472     10.260
REMARK INTER + INTRA:         -11.020
REMARK INTER:                  -9.654
REMARK INTRA:                  -1.366
REMARK CONF_INDEPENDENT:        1.790
REMARK UNBOUND:                -1.366
REMARK  6 active torsions:
REMARK  status: ('A' for Active; 'I' for Inactive)
REMARK    1  A    between atoms: C_8  and  N_9 
REMARK       I    between atoms: N_9  and  C_10 
REMARK    2  A    between atoms: C_12  and  C_10 
REMARK    3  A    between atoms: C_15  and  C_16 
REMARK    4  A    between atoms: C_16  and  N_17 
REMARK    5  A    between atoms: N_17  and  C_18 
REMARK    6  A    between atoms: C_19  and  O_20 
ROOT
ATOM      1  C   UNL d   1      27.908 -13.319   2.363  0.00  0.00     0.078 C 
ATOM      2  C   UNL d   1      27.017 -13.681   3.545  0.00  0.00     0.014 C 
ATOM      3  C   UNL d   1      27.771 -13.597   4.855  0.00  0.00     0.007 C 
ATOM      4  C   UNL d   1      29.024 -14.484   4.857  0.00  0.00     0.003 C 
ATOM      5  C   UNL d   1      29.911 -14.099   3.657  0.00  0.00     0.007 C 
ATOM      6  C   UNL d   1      29.150 -14.223   2.345  0.00  0.00     0.014 C 
ENDROOT
BRANCH   4   7
ATOM      7  C   UNL d   1      29.859 -14.385   6.142  0.00  0.00     0.124 C 
BRANCH   7   8
ATOM      8  N   UNL d   1      29.051 -14.458   7.370  0.00  0.00    -0.385 N 
ATOM      9  H   UNL d   1      28.545 -15.345   7.414  0.00  0.00     0.159 HD
BRANCH   8  10
ATOM     10  C   UNL d   1      29.438 -13.967   8.525  0.00  0.00     0.097 A 
ATOM     11  C   UNL d   1      29.759 -14.456   9.765  0.00  0.00     0.147 A 
ATOM     12  C   UNL d   1      29.990 -13.090  10.274  0.00  0.00     0.236 A 
ATOM     13  O   UNL d   1      30.333 -12.515  11.282  0.00  0.00    -0.283 OA
ATOM     14  C   UNL d   1      29.592 -12.562   8.973  0.00  0.00     0.113 A 
ATOM     15  N   UNL d   1      29.412 -11.376   8.505  0.00  0.00    -0.372 N 
ATOM     16  C   UNL d   1      29.670 -10.080   9.223  0.00  0.00     0.149 C 
ATOM     17  C   UNL d   1      28.903 -11.130   7.112  0.00  0.00     0.149 C 
ATOM     18  C   UNL d   1      30.669  -9.281   8.376  0.00  0.00     0.187 C 
ATOM     19  O   UNL d   1      30.192  -9.099   7.033  0.00  0.00    -0.388 OA
ATOM     20  C   UNL d   1      29.975 -10.346   6.363  0.00  0.00     0.187 C 
BRANCH  11  21
ATOM     21  O   UNL d   1      29.854 -15.625  10.287  0.00  0.00    -0.355 OA
ATOM     22  H   UNL d   1      30.113 -16.299   9.629  0.00  0.00     0.218 HD
ENDBRANCH  11  21
ENDBRANCH   8  10
ENDBRANCH   7   8
ENDBRANCH   4   7
BRANCH   1  23
ATOM     23  C   UNL d   1      27.070 -13.490   1.116  0.00  0.00     0.222 C 
ATOM     24  N   UNL d   1      26.810 -14.803   0.776  0.00  0.00    -0.356 N 
ATOM     25  H   UNL d   1      27.105 -15.559   1.382  0.00  0.00     0.162 HD
ATOM     26  O   UNL d   1      26.723 -12.527   0.441  0.00  0.00    -0.273 OA
BRANCH  24  27
ATOM     27  C   UNL d   1      25.964 -15.127  -0.369  0.00  0.00     0.088 C 
ATOM     28  C   UNL d   1      26.769 -15.098  -1.677  0.00  0.00     0.025 C 
ATOM     29  C   UNL d   1      25.871 -15.397  -2.875  0.00  0.00     0.002 C 
ATOM     30  C   UNL d   1      25.153 -16.738  -2.726  0.00  0.00     0.005 C 
ATOM     31  C   UNL d   1      24.362 -16.797  -1.413  0.00  0.00    -0.013 C 
ATOM     32  C   UNL d   1      25.280 -16.506  -0.204  0.00  0.00     0.008 C 
ATOM     33  C   UNL d   1      23.661 -18.144  -1.255  0.00  0.00     0.010 C 
ATOM     34  C   UNL d   1      26.331 -17.612   0.005  0.00  0.00     0.012 C 
ENDBRANCH  24  27
ENDBRANCH   1  23
TORSDOF 6
ENDMDL
MODEL 8
REMARK VINA RESULT:    -7.864      2.808      3.951
REMARK INTER + INTRA:         -11.387
REMARK INTER:                  -9.654
REMARK INTRA:                  -1.733
REMARK CONF_INDEPENDENT:        1.790
REMARK UNBOUND:                -1.733
REMARK  6 active torsions:
REMARK  status: ('A' for Active; 'I' for Inactive)
REMARK    1  A    between atoms: C_8  and  N_9 
REMARK       I    between atoms: N_9  and  C_10 
REMARK    2  A    between atoms: C_12  and  C_10 
REMARK    3  A    between atoms: C_15  and  C_16 
REMARK    4  A    between atoms: C_16  and  N_17 
REMARK    5  A    between atoms: N_17  and  C_18 
REMARK    6  A    between atoms: C_19  and  O_20 
ROOT
ATOM      1  C   UNL d   1      28.038 -14.257   1.336  0.00  0.00     0.078 C 
ATOM      2  C   UNL d   1      27.950 -13.130   0.314  0.00  0.00     0.014 C 
ATOM      3  C   UNL d   1      28.226 -13.630  -1.088  0.00  0.00     0.007 C 
ATOM      4  C   UNL d   1      29.592 -14.324  -1.194  0.00  0.00     0.003 C 
ATOM      5  C   UNL d   1      29.658 -15.459  -0.155  0.00  0.00     0.007 C 
ATOM      6  C   UNL d   1      29.414 -14.936   1.252  0.00  0.00     0.014 C 
ENDROOT
BRANCH   4   7
ATOM      7  C   UNL d   1      29.893 -14.905  -2.584  0.00  0.00     0.124 C 
BRANCH   7   8
ATOM      8  N   UNL d   1      28.899 -15.896  -3.029  0.00  0.00    -0.385 N 
ATOM      9  H   UNL d   1      28.886 -16.700  -2.398  0.00  0.00     0.159 HD
BRANCH   8  10
ATOM     10  C   UNL d   1      27.743 -15.575  -3.564  0.00  0.00     0.097 A 
ATOM     11  C   UNL d   1      27.301 -15.007  -4.731  0.00  0.00     0.147 A 
ATOM     12  C   UNL d   1      25.901 -15.080  -4.269  0.00  0.00     0.236 A 
ATOM     13  O   UNL d   1      24.780 -14.825  -4.645  0.00  0.00    -0.283 OA
ATOM     14  C   UNL d   1      26.372 -15.630  -3.002  0.00  0.00     0.113 A 
ATOM     15  N   UNL d   1      25.797 -15.945  -1.893  0.00  0.00    -0.372 N 
ATOM     16  C   UNL d   1      24.321 -15.903  -1.606  0.00  0.00     0.149 C 
ATOM     17  C   UNL d   1      26.567 -16.421  -0.694  0.00  0.00     0.149 C 
ATOM     18  C   UNL d   1      23.901 -17.313  -1.173  0.00  0.00     0.187 C 
ATOM     19  O   UNL d   1      24.682 -17.776  -0.060  0.00  0.00    -0.388 OA
ATOM     20  C   UNL d   1      26.080 -17.828  -0.365  0.00  0.00     0.187 C 
BRANCH  11  21
ATOM     21  O   UNL d   1      27.859 -14.596  -5.812  0.00  0.00    -0.355 OA
ATOM     22  H   UNL d   1      27.203 -14.287  -6.467  0.00  0.00     0.218 HD
ENDBRANCH  11  21
ENDBRANCH   8  10
ENDBRANCH   7   8
ENDBRANCH   4   7
BRANCH   1  23
ATOM     23  C   UNL d   1      27.800 -13.635   2.694  0.00  0.00     0.222 C 
ATOM     24  N   UNL d   1      28.312 -14.357   3.753  0.00  0.00    -0.356 N 
ATOM     25  H   UNL d   1      28.865 -15.189   3.588  0.00  0.00     0.162 HD
ATOM     26  O   UNL d   1      27.143 -12.607   2.820  0.00  0.00    -0.273 OA
BRANCH  24  27
ATOM     27  C   UNL d   1      28.213 -13.854   5.120  0.00  0.00     0.088 C 
ATOM     28  C   UNL d   1      29.047 -14.710   6.085  0.00  0.00     0.025 C 
ATOM     29  C   UNL d   1      28.908 -14.204   7.519  0.00  0.00     0.002 C 
ATOM     30  C   UNL d   1      29.302 -12.733   7.643  0.00  0.00     0.005 C 
ATOM     31  C   UNL d   1      28.498 -11.863   6.669  0.00  0.00    -0.013 C 
ATOM     32  C   UNL d   1      28.654 -12.372   5.218  0.00  0.00     0.008 C 
ATOM     33  C   UNL d   1      28.907 -10.395   6.779  0.00  0.00     0.010 C 
ATOM     34  C   UNL d   1      30.090 -12.198   4.693  0.00  0.00     0.012 C 
ENDBRANCH  24  27
ENDBRANCH   1  23
TORSDOF 6
ENDMDL
MODEL 9
REMARK VINA RESULT:    -7.777      2.514     10.053
REMARK INTER + INTRA:         -10.991
REMARK INTER:                  -9.566
REMARK INTRA:                  -1.425
REMARK CONF_INDEPENDENT:        1.790
REMARK UNBOUND:                -1.425
REMARK  6 active torsions:
REMARK  status: ('A' for Active; 'I' for Inactive)
REMARK    1  A    between atoms: C_8  and  N_9 
REMARK       I    between atoms: N_9  and  C_10 
REMARK    2  A    between atoms: C_12  and  C_10 
REMARK    3  A    between atoms: C_15  and  C_16 
REMARK    4  A    between atoms: C_16  and  N_17 
REMARK    5  A    between atoms: N_17  and  C_18 
REMARK    6  A    between atoms: C_19  and  O_20 
ROOT
ATOM      1  C   UNL d   1      27.846 -13.367   2.619  0.00  0.00     0.078 C 
ATOM      2  C   UNL d   1      27.030 -13.700   3.862  0.00  0.00     0.014 C 
ATOM      3  C   UNL d   1      27.875 -13.624   5.116  0.00  0.00     0.007 C 
ATOM      4  C   UNL d   1      29.105 -14.539   5.039  0.00  0.00     0.003 C 
ATOM      5  C   UNL d   1      29.915 -14.184   3.777  0.00  0.00     0.007 C 
ATOM      6  C   UNL d   1      29.062 -14.300   2.523  0.00  0.00     0.014 C 
ENDROOT
BRANCH   4   7
ATOM      7  C   UNL d   1      30.029 -14.451   6.263  0.00  0.00     0.124 C 
BRANCH   7   8
ATOM      8  N   UNL d   1      30.728 -13.160   6.373  0.00  0.00    -0.385 N 
ATOM      9  H   UNL d   1      31.264 -12.967   5.524  0.00  0.00     0.159 HD
BRANCH   8  10
ATOM     10  C   UNL d   1      30.219 -12.108   6.974  0.00  0.00     0.097 A 
ATOM     11  C   UNL d   1      30.042 -10.779   6.690  0.00  0.00     0.147 A 
ATOM     12  C   UNL d   1      29.447 -10.545   8.020  0.00  0.00     0.236 A 
ATOM     13  O   UNL d   1      28.959  -9.657   8.681  0.00  0.00    -0.283 OA
ATOM     14  C   UNL d   1      29.688 -11.946   8.349  0.00  0.00     0.113 A 
ATOM     15  N   UNL d   1      29.539 -12.654   9.415  0.00  0.00    -0.372 N 
ATOM     16  C   UNL d   1      28.937 -12.200  10.716  0.00  0.00     0.149 C 
ATOM     17  C   UNL d   1      29.965 -14.093   9.490  0.00  0.00     0.149 C 
ATOM     18  C   UNL d   1      27.760 -13.134  11.024  0.00  0.00     0.187 C 
ATOM     19  O   UNL d   1      28.171 -14.510  11.040  0.00  0.00    -0.388 OA
ATOM     20  C   UNL d   1      28.721 -14.925   9.784  0.00  0.00     0.187 C 
BRANCH  11  21
ATOM     21  O   UNL d   1      30.268 -10.027   5.674  0.00  0.00    -0.355 OA
ATOM     22  H   UNL d   1      31.213  -9.791   5.596  0.00  0.00     0.218 HD
ENDBRANCH  11  21
ENDBRANCH   8  10
ENDBRANCH   7   8
ENDBRANCH   4   7
BRANCH   1  23
ATOM     23  C   UNL d   1      26.920 -13.527   1.433  0.00  0.00     0.222 C 
ATOM     24  N   UNL d   1      26.914 -14.791   0.878  0.00  0.00    -0.356 N 
ATOM     25  H   UNL d   1      27.438 -15.544   1.307  0.00  0.00     0.162 HD
ATOM     26  O   UNL d   1      26.290 -12.578   0.981  0.00  0.00    -0.273 OA
BRANCH  24  27
ATOM     27  C   UNL d   1      26.026 -15.116  -0.234  0.00  0.00     0.088 C 
ATOM     28  C   UNL d   1      26.768 -15.035  -1.576  0.00  0.00     0.025 C 
ATOM     29  C   UNL d   1      25.825 -15.335  -2.739  0.00  0.00     0.002 C 
ATOM     30  C   UNL d   1      25.155 -16.701  -2.589  0.00  0.00     0.005 C 
ATOM     31  C   UNL d   1      24.428 -16.812  -1.243  0.00  0.00    -0.013 C 
ATOM     32  C   UNL d   1      25.391 -16.520  -0.070  0.00  0.00     0.008 C 
ATOM     33  C   UNL d   1      23.776 -18.185  -1.084  0.00  0.00     0.010 C 
ATOM     34  C   UNL d   1      26.484 -17.596   0.065  0.00  0.00     0.012 C 
ENDBRANCH  24  27
ENDBRANCH   1  23
TORSDOF 6
ENDMDL
