MODEL 1
REMARK VINA RESULT:    -6.711      0.000      0.000
REMARK INTER + INTRA:         -10.802
REMARK INTER:                  -8.799
REMARK INTRA:                  -2.002
REMARK CONF_INDEPENDENT:        2.088
REMARK UNBOUND:                -2.002
REMARK  7 active torsions:
REMARK  status: ('A' for Active; 'I' for Inactive)
REMARK    1  A    between atoms: C_6  and  C_7 
REMARK    2  A    between atoms: C_12  and  O_13 
REMARK    3  A    between atoms: C_15  and  C_16 
REMARK    4  A    between atoms: N_23  and  C_24 
REMARK    5  A    between atoms: C_24  and  C_25 
REMARK    6  A    between atoms: C_25  and  C_26 
REMARK    7  A    between atoms: C_26  and  O_27 
ROOT
ATOM      1  O   UNL d   1      25.865 -17.645   0.978  0.00  0.00    -0.266 OA
ATOM      2  C   UNL d   1      26.154 -17.262  -0.147  0.00  0.00     0.273 A 
ATOM      3  C   UNL d   1      27.439 -17.207  -0.747  0.00  0.00     0.129 A 
ATOM      4  N   UNL d   1      28.726 -17.473  -0.465  0.00  0.00    -0.272 N 
ATOM      5  N   UNL d   1      29.540 -17.232  -1.533  0.00  0.00    -0.173 NA
ATOM      6  C   UNL d   1      28.728 -16.701  -2.479  0.00  0.00     0.101 A 
ATOM      7  C   UNL d   1      27.402 -16.698  -2.012  0.00  0.00     0.034 A 
ATOM      8  C   UNL d   1      26.015 -16.375  -2.387  0.00  0.00     0.162 A 
ATOM      9  N   UNL d   1      25.285 -16.794  -1.152  0.00  0.00    -0.333 N 
ATOM     10  H   UNL d   1      29.133 -17.832   0.393  0.00  0.00     0.189 HD
ENDROOT
BRANCH   6  11
ATOM     11  C   UNL d   1      29.222 -16.242  -3.777  0.00  0.00     0.028 A 
ATOM     12  C   UNL d   1      28.835 -14.997  -4.289  0.00  0.00     0.017 A 
ATOM     13  C   UNL d   1      29.358 -14.540  -5.506  0.00  0.00     0.001 A 
ATOM     14  C   UNL d   1      30.275 -15.314  -6.219  0.00  0.00     0.003 A 
ATOM     15  C   UNL d   1      30.665 -16.555  -5.725  0.00  0.00     0.037 A 
ATOM     16  C   UNL d   1      30.117 -17.016  -4.529  0.00  0.00     0.078 A 
BRANCH  16  17
ATOM     17  O   UNL d   1      30.411 -18.284  -4.127  0.00  0.00    -0.360 OA
ATOM     18  H   UNL d   1      30.435 -18.337  -3.159  0.00  0.00     0.217 HD
ENDBRANCH  16  17
ENDBRANCH   6  11
BRANCH   8  19
ATOM     19  C   UNL d   1      25.901 -14.903  -2.666  0.00  0.00     0.008 A 
ATOM     20  C   UNL d   1      26.261 -13.989  -1.654  0.00  0.00     0.012 A 
ATOM     21  C   UNL d   1      26.285 -12.618  -1.910  0.00  0.00     0.001 A 
ATOM     22  C   UNL d   1      25.902 -12.136  -3.161  0.00  0.00     0.003 A 
ATOM     23  C   UNL d   1      25.512 -13.023  -4.162  0.00  0.00     0.043 A 
ATOM     24  C   UNL d   1      25.535 -14.393  -3.920  0.00  0.00     0.125 A 
ATOM     25  F   UNL d   1      25.158 -15.212  -4.912  0.00  0.00    -0.205 F 
ENDBRANCH   8  19
BRANCH   9  26
ATOM     26  C   UNL d   1      23.837 -16.658  -0.971  0.00  0.00     0.129 C 
BRANCH  26  27
ATOM     27  C   UNL d   1      23.159 -17.860  -0.318  0.00  0.00     0.046 C 
BRANCH  27  28
ATOM     28  C   UNL d   1      22.057 -18.490  -1.144  0.00  0.00     0.165 C 
BRANCH  28  29
ATOM     29  O   UNL d   1      20.839 -17.790  -0.895  0.00  0.00    -0.401 OA
ATOM     30  H   UNL d   1      20.254 -17.923  -1.663  0.00  0.00     0.209 HD
ENDBRANCH  28  29
ENDBRANCH  27  28
ENDBRANCH  26  27
ENDBRANCH   9  26
TORSDOF 7
ENDMDL
MODEL 2
REMARK VINA RESULT:    -6.043      2.712      6.575
REMARK INTER + INTRA:         -10.664
REMARK INTER:                  -8.131
REMARK INTRA:                  -2.533
REMARK CONF_INDEPENDENT:        2.088
REMARK UNBOUND:                -2.533
REMARK  7 active torsions:
REMARK  status: ('A' for Active; 'I' for Inactive)
REMARK    1  A    between atoms: C_6  and  C_7 
REMARK    2  A    between atoms: C_12  and  O_13 
REMARK    3  A    between atoms: C_15  and  C_16 
REMARK    4  A    between atoms: N_23  and  C_24 
REMARK    5  A    between atoms: C_24  and  C_25 
REMARK    6  A    between atoms: C_25  and  C_26 
REMARK    7  A    between atoms: C_26  and  O_27 
ROOT
ATOM      1  O   UNL d   1      27.145 -12.511  -5.092  0.00  0.00    -0.266 OA
ATOM      2  C   UNL d   1      26.976 -13.463  -4.342  0.00  0.00     0.273 A 
ATOM      3  C   UNL d   1      25.765 -13.898  -3.744  0.00  0.00     0.129 A 
ATOM      4  N   UNL d   1      24.463 -13.571  -3.686  0.00  0.00    -0.272 N 
ATOM      5  N   UNL d   1      23.751 -14.453  -2.927  0.00  0.00    -0.173 NA
ATOM      6  C   UNL d   1      24.677 -15.301  -2.416  0.00  0.00     0.101 A 
ATOM      7  C   UNL d   1      25.943 -14.982  -2.935  0.00  0.00     0.034 A 
ATOM      8  C   UNL d   1      27.358 -15.393  -2.945  0.00  0.00     0.162 A 
ATOM      9  N   UNL d   1      27.936 -14.389  -3.889  0.00  0.00    -0.333 N 
ATOM     10  H   UNL d   1      23.975 -12.801  -4.134  0.00  0.00     0.189 HD
ENDROOT
BRANCH   6  11
ATOM     11  C   UNL d   1      24.335 -16.378  -1.487  0.00  0.00     0.028 A 
ATOM     12  C   UNL d   1      25.273 -17.364  -1.159  0.00  0.00     0.017 A 
ATOM     13  C   UNL d   1      24.957 -18.359  -0.225  0.00  0.00     0.001 A 
ATOM     14  C   UNL d   1      23.707 -18.376   0.396  0.00  0.00     0.003 A 
ATOM     15  C   UNL d   1      22.762 -17.406   0.077  0.00  0.00     0.037 A 
ATOM     16  C   UNL d   1      23.074 -16.438  -0.877  0.00  0.00     0.078 A 
BRANCH  16  17
ATOM     17  O   UNL d   1      22.095 -15.576  -1.271  0.00  0.00    -0.360 OA
ATOM     18  H   UNL d   1      22.478 -14.815  -1.734  0.00  0.00     0.217 HD
ENDBRANCH  16  17
ENDBRANCH   6  11
BRANCH   8  19
ATOM     19  C   UNL d   1      27.920 -15.285  -1.556  0.00  0.00     0.008 A 
ATOM     20  C   UNL d   1      27.200 -14.561  -0.585  0.00  0.00     0.012 A 
ATOM     21  C   UNL d   1      27.624 -14.536   0.744  0.00  0.00     0.001 A 
ATOM     22  C   UNL d   1      28.798 -15.191   1.112  0.00  0.00     0.003 A 
ATOM     23  C   UNL d   1      29.540 -15.885   0.158  0.00  0.00     0.043 A 
ATOM     24  C   UNL d   1      29.089 -15.948  -1.157  0.00  0.00     0.125 A 
ATOM     25  F   UNL d   1      29.830 -16.630  -2.042  0.00  0.00    -0.205 F 
ENDBRANCH   8  19
BRANCH   9  26
ATOM     26  C   UNL d   1      29.356 -14.322  -4.244  0.00  0.00     0.129 C 
BRANCH  26  27
ATOM     27  C   UNL d   1      29.847 -15.460  -5.135  0.00  0.00     0.046 C 
BRANCH  27  28
ATOM     28  C   UNL d   1      29.282 -15.452  -6.539  0.00  0.00     0.165 C 
BRANCH  28  29
ATOM     29  O   UNL d   1      27.880 -15.199  -6.469  0.00  0.00    -0.401 OA
ATOM     30  H   UNL d   1      27.754 -14.265  -6.224  0.00  0.00     0.209 HD
ENDBRANCH  28  29
ENDBRANCH  27  28
ENDBRANCH  26  27
ENDBRANCH   9  26
TORSDOF 7
ENDMDL
MODEL 3
REMARK VINA RESULT:    -5.957      2.665      6.551
REMARK INTER + INTRA:         -10.562
REMARK INTER:                  -8.045
REMARK INTRA:                  -2.517
REMARK CONF_INDEPENDENT:        2.088
REMARK UNBOUND:                -2.517
REMARK  7 active torsions:
REMARK  status: ('A' for Active; 'I' for Inactive)
REMARK    1  A    between atoms: C_6  and  C_7 
REMARK    2  A    between atoms: C_12  and  O_13 
REMARK    3  A    between atoms: C_15  and  C_16 
REMARK    4  A    between atoms: N_23  and  C_24 
REMARK    5  A    between atoms: C_24  and  C_25 
REMARK    6  A    between atoms: C_25  and  C_26 
REMARK    7  A    between atoms: C_26  and  O_27 
ROOT
ATOM      1  O   UNL d   1      27.159 -12.446  -5.100  0.00  0.00    -0.266 OA
ATOM      2  C   UNL d   1      27.002 -13.405  -4.358  0.00  0.00     0.273 A 
ATOM      3  C   UNL d   1      25.795 -13.862  -3.766  0.00  0.00     0.129 A 
ATOM      4  N   UNL d   1      24.488 -13.553  -3.709  0.00  0.00    -0.272 N 
ATOM      5  N   UNL d   1      23.787 -14.450  -2.958  0.00  0.00    -0.173 NA
ATOM      6  C   UNL d   1      24.723 -15.290  -2.453  0.00  0.00     0.101 A 
ATOM      7  C   UNL d   1      25.986 -14.950  -2.966  0.00  0.00     0.034 A 
ATOM      8  C   UNL d   1      27.405 -15.341  -2.976  0.00  0.00     0.162 A 
ATOM      9  N   UNL d   1      27.972 -14.322  -3.910  0.00  0.00    -0.333 N 
ATOM     10  H   UNL d   1      23.991 -12.786  -4.152  0.00  0.00     0.189 HD
ENDROOT
BRANCH   6  11
ATOM     11  C   UNL d   1      24.393 -16.379  -1.533  0.00  0.00     0.028 A 
ATOM     12  C   UNL d   1      25.334 -17.371  -1.234  0.00  0.00     0.017 A 
ATOM     13  C   UNL d   1      25.030 -18.379  -0.309  0.00  0.00     0.001 A 
ATOM     14  C   UNL d   1      23.790 -18.401   0.332  0.00  0.00     0.003 A 
ATOM     15  C   UNL d   1      22.843 -17.425   0.042  0.00  0.00     0.037 A 
ATOM     16  C   UNL d   1      23.141 -16.444  -0.903  0.00  0.00     0.078 A 
BRANCH  16  17
ATOM     17  O   UNL d   1      22.159 -15.575  -1.270  0.00  0.00    -0.360 OA
ATOM     18  H   UNL d   1      22.538 -14.796  -1.705  0.00  0.00     0.217 HD
ENDBRANCH  16  17
ENDBRANCH   6  11
BRANCH   8  19
ATOM     19  C   UNL d   1      27.963 -15.237  -1.585  0.00  0.00     0.008 A 
ATOM     20  C   UNL d   1      28.666 -16.337  -1.050  0.00  0.00     0.012 A 
ATOM     21  C   UNL d   1      29.302 -16.240   0.188  0.00  0.00     0.001 A 
ATOM     22  C   UNL d   1      29.205 -15.065   0.931  0.00  0.00     0.003 A 
ATOM     23  C   UNL d   1      28.487 -13.980   0.432  0.00  0.00     0.043 A 
ATOM     24  C   UNL d   1      27.894 -14.062  -0.824  0.00  0.00     0.125 A 
ATOM     25  F   UNL d   1      27.217 -12.993  -1.268  0.00  0.00    -0.205 F 
ENDBRANCH   8  19
BRANCH   9  26
ATOM     26  C   UNL d   1      29.392 -14.233  -4.261  0.00  0.00     0.129 C 
BRANCH  26  27
ATOM     27  C   UNL d   1      29.908 -15.374  -5.135  0.00  0.00     0.046 C 
BRANCH  27  28
ATOM     28  C   UNL d   1      29.327 -15.412  -6.532  0.00  0.00     0.165 C 
BRANCH  28  29
ATOM     29  O   UNL d   1      27.920 -15.188  -6.451  0.00  0.00    -0.401 OA
ATOM     30  H   UNL d   1      27.778 -14.256  -6.204  0.00  0.00     0.209 HD
ENDBRANCH  28  29
ENDBRANCH  27  28
ENDBRANCH  26  27
ENDBRANCH   9  26
TORSDOF 7
ENDMDL
MODEL 4
REMARK VINA RESULT:    -5.898      2.753      5.591
REMARK INTER + INTRA:         -10.239
REMARK INTER:                  -7.986
REMARK INTRA:                  -2.253
REMARK CONF_INDEPENDENT:        2.088
REMARK UNBOUND:                -2.253
REMARK  7 active torsions:
REMARK  status: ('A' for Active; 'I' for Inactive)
REMARK    1  A    between atoms: C_6  and  C_7 
REMARK    2  A    between atoms: C_12  and  O_13 
REMARK    3  A    between atoms: C_15  and  C_16 
REMARK    4  A    between atoms: N_23  and  C_24 
REMARK    5  A    between atoms: C_24  and  C_25 
REMARK    6  A    between atoms: C_25  and  C_26 
REMARK    7  A    between atoms: C_26  and  O_27 
ROOT
ATOM      1  O   UNL d   1      29.803 -12.486   0.245  0.00  0.00    -0.266 OA
ATOM      2  C   UNL d   1      28.776 -13.043  -0.118  0.00  0.00     0.273 A 
ATOM      3  C   UNL d   1      28.254 -14.286   0.324  0.00  0.00     0.129 A 
ATOM      4  N   UNL d   1      28.543 -15.288   1.172  0.00  0.00    -0.272 N 
ATOM      5  N   UNL d   1      27.572 -16.246   1.176  0.00  0.00    -0.173 NA
ATOM      6  C   UNL d   1      26.697 -15.861   0.216  0.00  0.00     0.101 A 
ATOM      7  C   UNL d   1      27.096 -14.622  -0.314  0.00  0.00     0.034 A 
ATOM      8  C   UNL d   1      26.720 -13.566  -1.269  0.00  0.00     0.162 A 
ATOM      9  N   UNL d   1      27.829 -12.587  -1.056  0.00  0.00    -0.333 N 
ATOM     10  H   UNL d   1      29.345 -15.396   1.787  0.00  0.00     0.189 HD
ENDROOT
BRANCH   6  11
ATOM     11  C   UNL d   1      25.522 -16.654  -0.146  0.00  0.00     0.028 A 
ATOM     12  C   UNL d   1      24.463 -16.078  -0.858  0.00  0.00     0.017 A 
ATOM     13  C   UNL d   1      23.368 -16.858  -1.251  0.00  0.00     0.001 A 
ATOM     14  C   UNL d   1      23.322 -18.220  -0.946  0.00  0.00     0.003 A 
ATOM     15  C   UNL d   1      24.364 -18.805  -0.234  0.00  0.00     0.037 A 
ATOM     16  C   UNL d   1      25.436 -18.015   0.180  0.00  0.00     0.078 A 
BRANCH  16  17
ATOM     17  O   UNL d   1      26.383 -18.575   0.984  0.00  0.00    -0.360 OA
ATOM     18  H   UNL d   1      27.168 -18.009   1.029  0.00  0.00     0.217 HD
ENDBRANCH  16  17
ENDBRANCH   6  11
BRANCH   8  19
ATOM     19  C   UNL d   1      26.696 -14.133  -2.660  0.00  0.00     0.008 A 
ATOM     20  C   UNL d   1      27.894 -14.634  -3.211  0.00  0.00     0.012 A 
ATOM     21  C   UNL d   1      27.892 -15.277  -4.449  0.00  0.00     0.001 A 
ATOM     22  C   UNL d   1      26.708 -15.384  -5.177  0.00  0.00     0.003 A 
ATOM     23  C   UNL d   1      25.522 -14.864  -4.662  0.00  0.00     0.043 A 
ATOM     24  C   UNL d   1      25.517 -14.267  -3.405  0.00  0.00     0.125 A 
ATOM     25  F   UNL d   1      24.353 -13.786  -2.945  0.00  0.00    -0.205 F 
ENDBRANCH   8  19
BRANCH   9  26
ATOM     26  C   UNL d   1      27.964 -11.329  -1.796  0.00  0.00     0.129 C 
BRANCH  26  27
ATOM     27  C   UNL d   1      26.663 -10.793  -2.389  0.00  0.00     0.046 C 
BRANCH  27  28
ATOM     28  C   UNL d   1      26.678 -10.621  -3.893  0.00  0.00     0.165 C 
BRANCH  28  29
ATOM     29  O   UNL d   1      25.711 -11.500  -4.466  0.00  0.00    -0.401 OA
ATOM     30  H   UNL d   1      24.837 -11.078  -4.386  0.00  0.00     0.209 HD
ENDBRANCH  28  29
ENDBRANCH  27  28
ENDBRANCH  26  27
ENDBRANCH   9  26
TORSDOF 7
ENDMDL
MODEL 5
REMARK VINA RESULT:    -5.842      2.508      5.797
REMARK INTER + INTRA:         -10.415
REMARK INTER:                  -7.930
REMARK INTRA:                  -2.485
REMARK CONF_INDEPENDENT:        2.088
REMARK UNBOUND:                -2.485
REMARK  7 active torsions:
REMARK  status: ('A' for Active; 'I' for Inactive)
REMARK    1  A    between atoms: C_6  and  C_7 
REMARK    2  A    between atoms: C_12  and  O_13 
REMARK    3  A    between atoms: C_15  and  C_16 
REMARK    4  A    between atoms: N_23  and  C_24 
REMARK    5  A    between atoms: C_24  and  C_25 
REMARK    6  A    between atoms: C_25  and  C_26 
REMARK    7  A    between atoms: C_26  and  O_27 
ROOT
ATOM      1  O   UNL d   1      30.097 -16.699  -0.008  0.00  0.00    -0.266 OA
ATOM      2  C   UNL d   1      28.907 -16.473  -0.175  0.00  0.00     0.273 A 
ATOM      3  C   UNL d   1      27.821 -17.379  -0.056  0.00  0.00     0.129 A 
ATOM      4  N   UNL d   1      27.575 -18.669   0.230  0.00  0.00    -0.272 N 
ATOM      5  N   UNL d   1      26.240 -18.946   0.222  0.00  0.00    -0.173 NA
ATOM      6  C   UNL d   1      25.647 -17.796  -0.184  0.00  0.00     0.101 A 
ATOM      7  C   UNL d   1      26.622 -16.796  -0.341  0.00  0.00     0.034 A 
ATOM      8  C   UNL d   1      26.817 -15.374  -0.671  0.00  0.00     0.162 A 
ATOM      9  N   UNL d   1      28.297 -15.249  -0.512  0.00  0.00    -0.333 N 
ATOM     10  H   UNL d   1      28.231 -19.411   0.458  0.00  0.00     0.189 HD
ENDROOT
BRANCH   6  11
ATOM     11  C   UNL d   1      24.203 -17.680  -0.385  0.00  0.00     0.028 A 
ATOM     12  C   UNL d   1      23.592 -16.423  -0.471  0.00  0.00     0.017 A 
ATOM     13  C   UNL d   1      22.217 -16.320  -0.721  0.00  0.00     0.001 A 
ATOM     14  C   UNL d   1      21.441 -17.467  -0.895  0.00  0.00     0.003 A 
ATOM     15  C   UNL d   1      22.033 -18.723  -0.806  0.00  0.00     0.037 A 
ATOM     16  C   UNL d   1      23.395 -18.818  -0.527  0.00  0.00     0.078 A 
BRANCH  16  17
ATOM     17  O   UNL d   1      23.931 -20.053  -0.317  0.00  0.00    -0.360 OA
ATOM     18  H   UNL d   1      24.893 -19.993  -0.213  0.00  0.00     0.217 HD
ENDBRANCH  16  17
ENDBRANCH   6  11
BRANCH   8  19
ATOM     19  C   UNL d   1      26.353 -15.118  -2.077  0.00  0.00     0.008 A 
ATOM     20  C   UNL d   1      25.179 -14.363  -2.280  0.00  0.00     0.012 A 
ATOM     21  C   UNL d   1      24.780 -14.001  -3.566  0.00  0.00     0.001 A 
ATOM     22  C   UNL d   1      25.516 -14.427  -4.670  0.00  0.00     0.003 A 
ATOM     23  C   UNL d   1      26.661 -15.201  -4.489  0.00  0.00     0.043 A 
ATOM     24  C   UNL d   1      27.085 -15.520  -3.203  0.00  0.00     0.125 A 
ATOM     25  F   UNL d   1      28.194 -16.262  -3.075  0.00  0.00    -0.205 F 
ENDBRANCH   8  19
BRANCH   9  26
ATOM     26  C   UNL d   1      29.045 -14.012  -0.756  0.00  0.00     0.129 C 
BRANCH  26  27
ATOM     27  C   UNL d   1      29.290 -13.156   0.484  0.00  0.00     0.046 C 
BRANCH  27  28
ATOM     28  C   UNL d   1      29.265 -13.918   1.792  0.00  0.00     0.165 C 
BRANCH  28  29
ATOM     29  O   UNL d   1      30.381 -14.807   1.828  0.00  0.00    -0.401 OA
ATOM     30  H   UNL d   1      30.040 -15.714   1.932  0.00  0.00     0.209 HD
ENDBRANCH  28  29
ENDBRANCH  27  28
ENDBRANCH  26  27
ENDBRANCH   9  26
TORSDOF 7
ENDMDL
MODEL 6
REMARK VINA RESULT:    -5.777      3.505      6.066
REMARK INTER + INTRA:          -9.833
REMARK INTER:                  -7.865
REMARK INTRA:                  -1.968
REMARK CONF_INDEPENDENT:        2.088
REMARK UNBOUND:                -1.968
REMARK  7 active torsions:
REMARK  status: ('A' for Active; 'I' for Inactive)
REMARK    1  A    between atoms: C_6  and  C_7 
REMARK    2  A    between atoms: C_12  and  O_13 
REMARK    3  A    between atoms: C_15  and  C_16 
REMARK    4  A    between atoms: N_23  and  C_24 
REMARK    5  A    between atoms: C_24  and  C_25 
REMARK    6  A    between atoms: C_25  and  C_26 
REMARK    7  A    between atoms: C_26  and  O_27 
ROOT
ATOM      1  O   UNL d   1      30.217 -15.649  -3.808  0.00  0.00    -0.266 OA
ATOM      2  C   UNL d   1      29.506 -15.346  -2.859  0.00  0.00     0.273 A 
ATOM      3  C   UNL d   1      29.905 -15.047  -1.530  0.00  0.00     0.129 A 
ATOM      4  N   UNL d   1      31.015 -14.964  -0.776  0.00  0.00    -0.272 N 
ATOM      5  N   UNL d   1      30.733 -14.568   0.499  0.00  0.00    -0.173 NA
ATOM      6  C   UNL d   1      29.381 -14.501   0.554  0.00  0.00     0.101 A 
ATOM      7  C   UNL d   1      28.845 -14.777  -0.716  0.00  0.00     0.034 A 
ATOM      8  C   UNL d   1      27.588 -14.857  -1.479  0.00  0.00     0.162 A 
ATOM      9  N   UNL d   1      28.107 -15.195  -2.840  0.00  0.00    -0.333 N 
ATOM     10  H   UNL d   1      31.982 -15.132  -1.037  0.00  0.00     0.189 HD
ENDROOT
BRANCH   6  11
ATOM     11  C   UNL d   1      28.656 -14.165   1.779  0.00  0.00     0.028 A 
ATOM     12  C   UNL d   1      27.372 -13.610   1.719  0.00  0.00     0.017 A 
ATOM     13  C   UNL d   1      26.661 -13.343   2.897  0.00  0.00     0.001 A 
ATOM     14  C   UNL d   1      27.219 -13.635   4.143  0.00  0.00     0.003 A 
ATOM     15  C   UNL d   1      28.496 -14.182   4.218  0.00  0.00     0.037 A 
ATOM     16  C   UNL d   1      29.209 -14.415   3.043  0.00  0.00     0.078 A 
BRANCH  16  17
ATOM     17  O   UNL d   1      30.503 -14.829   3.140  0.00  0.00    -0.360 OA
ATOM     18  H   UNL d   1      30.695 -15.505   2.472  0.00  0.00     0.217 HD
ENDBRANCH  16  17
ENDBRANCH   6  11
BRANCH   8  19
ATOM     19  C   UNL d   1      26.717 -15.934  -0.898  0.00  0.00     0.008 A 
ATOM     20  C   UNL d   1      25.318 -15.756  -0.908  0.00  0.00     0.012 A 
ATOM     21  C   UNL d   1      24.468 -16.779  -0.489  0.00  0.00     0.001 A 
ATOM     22  C   UNL d   1      25.001 -17.974  -0.008  0.00  0.00     0.003 A 
ATOM     23  C   UNL d   1      26.381 -18.154   0.039  0.00  0.00     0.043 A 
ATOM     24  C   UNL d   1      27.227 -17.151  -0.424  0.00  0.00     0.125 A 
ATOM     25  F   UNL d   1      28.548 -17.367  -0.366  0.00  0.00    -0.205 F 
ENDBRANCH   8  19
BRANCH   9  26
ATOM     26  C   UNL d   1      27.252 -15.425  -4.007  0.00  0.00     0.129 C 
BRANCH  26  27
ATOM     27  C   UNL d   1      26.818 -14.158  -4.742  0.00  0.00     0.046 C 
BRANCH  27  28
ATOM     28  C   UNL d   1      25.548 -13.526  -4.216  0.00  0.00     0.165 C 
BRANCH  28  29
ATOM     29  O   UNL d   1      24.434 -14.310  -4.640  0.00  0.00    -0.401 OA
ATOM     30  H   UNL d   1      23.758 -13.705  -4.995  0.00  0.00     0.209 HD
ENDBRANCH  28  29
ENDBRANCH  27  28
ENDBRANCH  26  27
ENDBRANCH   9  26
TORSDOF 7
ENDMDL
MODEL 7
REMARK VINA RESULT:    -5.254      2.835      5.776
REMARK INTER + INTRA:          -9.948
REMARK INTER:                  -7.342
REMARK INTRA:                  -2.605
REMARK CONF_INDEPENDENT:        2.088
REMARK UNBOUND:                -2.605
REMARK  7 active torsions:
REMARK  status: ('A' for Active; 'I' for Inactive)
REMARK    1  A    between atoms: C_6  and  C_7 
REMARK    2  A    between atoms: C_12  and  O_13 
REMARK    3  A    between atoms: C_15  and  C_16 
REMARK    4  A    between atoms: N_23  and  C_24 
REMARK    5  A    between atoms: C_24  and  C_25 
REMARK    6  A    between atoms: C_25  and  C_26 
REMARK    7  A    between atoms: C_26  and  O_27 
ROOT
ATOM      1  O   UNL d   1      30.032 -12.753   0.321  0.00  0.00    -0.266 OA
ATOM      2  C   UNL d   1      28.937 -13.201   0.011  0.00  0.00     0.273 A 
ATOM      3  C   UNL d   1      28.395 -14.474   0.324  0.00  0.00     0.129 A 
ATOM      4  N   UNL d   1      28.719 -15.608   0.970  0.00  0.00    -0.272 N 
ATOM      5  N   UNL d   1      27.698 -16.512   0.954  0.00  0.00    -0.173 NA
ATOM      6  C   UNL d   1      26.741 -15.945   0.179  0.00  0.00     0.101 A 
ATOM      7  C   UNL d   1      27.152 -14.657  -0.207  0.00  0.00     0.034 A 
ATOM      8  C   UNL d   1      26.733 -13.450  -0.939  0.00  0.00     0.162 A 
ATOM      9  N   UNL d   1      27.917 -12.565  -0.723  0.00  0.00    -0.333 N 
ATOM     10  H   UNL d   1      29.579 -15.844   1.457  0.00  0.00     0.189 HD
ENDROOT
BRANCH   6  11
ATOM     11  C   UNL d   1      25.486 -16.620  -0.148  0.00  0.00     0.028 A 
ATOM     12  C   UNL d   1      24.489 -15.962  -0.878  0.00  0.00     0.017 A 
ATOM     13  C   UNL d   1      23.313 -16.635  -1.236  0.00  0.00     0.001 A 
ATOM     14  C   UNL d   1      23.123 -17.970  -0.877  0.00  0.00     0.003 A 
ATOM     15  C   UNL d   1      24.103 -18.636  -0.147  0.00  0.00     0.037 A 
ATOM     16  C   UNL d   1      25.256 -17.951   0.232  0.00  0.00     0.078 A 
BRANCH  16  17
ATOM     17  O   UNL d   1      26.144 -18.578   1.054  0.00  0.00    -0.360 OA
ATOM     18  H   UNL d   1      26.820 -17.955   1.362  0.00  0.00     0.217 HD
ENDBRANCH  16  17
ENDBRANCH   6  11
BRANCH   8  19
ATOM     19  C   UNL d   1      26.511 -13.792  -2.385  0.00  0.00     0.008 A 
ATOM     20  C   UNL d   1      26.950 -15.044  -2.863  0.00  0.00     0.012 A 
ATOM     21  C   UNL d   1      26.658 -15.450  -4.164  0.00  0.00     0.001 A 
ATOM     22  C   UNL d   1      25.969 -14.595  -5.023  0.00  0.00     0.003 A 
ATOM     23  C   UNL d   1      25.557 -13.341  -4.577  0.00  0.00     0.043 A 
ATOM     24  C   UNL d   1      25.806 -12.957  -3.264  0.00  0.00     0.125 A 
ATOM     25  F   UNL d   1      25.388 -11.745  -2.874  0.00  0.00    -0.205 F 
ENDBRANCH   8  19
BRANCH   9  26
ATOM     26  C   UNL d   1      28.042 -11.214  -1.279  0.00  0.00     0.129 C 
BRANCH  26  27
ATOM     27  C   UNL d   1      27.800 -10.086  -0.279  0.00  0.00     0.046 C 
BRANCH  27  28
ATOM     28  C   UNL d   1      27.130 -10.516   1.009  0.00  0.00     0.165 C 
BRANCH  28  29
ATOM     29  O   UNL d   1      28.137 -10.892   1.947  0.00  0.00    -0.401 OA
ATOM     30  H   UNL d   1      28.813 -11.409   1.472  0.00  0.00     0.209 HD
ENDBRANCH  28  29
ENDBRANCH  27  28
ENDBRANCH  26  27
ENDBRANCH   9  26
TORSDOF 7
ENDMDL
MODEL 8
REMARK VINA RESULT:    -5.173      2.889      6.647
REMARK INTER + INTRA:          -9.592
REMARK INTER:                  -7.261
REMARK INTRA:                  -2.331
REMARK CONF_INDEPENDENT:        2.088
REMARK UNBOUND:                -2.331
REMARK  7 active torsions:
REMARK  status: ('A' for Active; 'I' for Inactive)
REMARK    1  A    between atoms: C_6  and  C_7 
REMARK    2  A    between atoms: C_12  and  O_13 
REMARK    3  A    between atoms: C_15  and  C_16 
REMARK    4  A    between atoms: N_23  and  C_24 
REMARK    5  A    between atoms: C_24  and  C_25 
REMARK    6  A    between atoms: C_25  and  C_26 
REMARK    7  A    between atoms: C_26  and  O_27 
ROOT
ATOM      1  O   UNL d   1      27.068 -12.686  -6.280  0.00  0.00    -0.266 OA
ATOM      2  C   UNL d   1      27.052 -13.610  -5.477  0.00  0.00     0.273 A 
ATOM      3  C   UNL d   1      26.074 -13.890  -4.488  0.00  0.00     0.129 A 
ATOM      4  N   UNL d   1      24.917 -13.402  -4.008  0.00  0.00    -0.272 N 
ATOM      5  N   UNL d   1      24.407 -14.188  -3.017  0.00  0.00    -0.173 NA
ATOM      6  C   UNL d   1      25.343 -15.146  -2.814  0.00  0.00     0.101 A 
ATOM      7  C   UNL d   1      26.386 -14.989  -3.743  0.00  0.00     0.034 A 
ATOM      8  C   UNL d   1      27.652 -15.575  -4.212  0.00  0.00     0.162 A 
ATOM      9  N   UNL d   1      27.990 -14.651  -5.337  0.00  0.00    -0.333 N 
ATOM     10  H   UNL d   1      24.401 -12.575  -4.297  0.00  0.00     0.189 HD
ENDROOT
BRANCH   6  11
ATOM     11  C   UNL d   1      25.211 -16.173  -1.780  0.00  0.00     0.028 A 
ATOM     12  C   UNL d   1      24.189 -17.128  -1.848  0.00  0.00     0.017 A 
ATOM     13  C   UNL d   1      24.103 -18.142  -0.885  0.00  0.00     0.001 A 
ATOM     14  C   UNL d   1      25.040 -18.220   0.147  0.00  0.00     0.003 A 
ATOM     15  C   UNL d   1      26.058 -17.275   0.230  0.00  0.00     0.037 A 
ATOM     16  C   UNL d   1      26.118 -16.251  -0.714  0.00  0.00     0.078 A 
BRANCH  16  17
ATOM     17  O   UNL d   1      27.042 -15.264  -0.544  0.00  0.00    -0.360 OA
ATOM     18  H   UNL d   1      26.712 -14.425  -0.901  0.00  0.00     0.217 HD
ENDBRANCH  16  17
ENDBRANCH   6  11
BRANCH   8  19
ATOM     19  C   UNL d   1      28.662 -15.541  -3.100  0.00  0.00     0.008 A 
ATOM     20  C   UNL d   1      29.220 -16.756  -2.651  0.00  0.00     0.012 A 
ATOM     21  C   UNL d   1      30.246 -16.761  -1.706  0.00  0.00     0.001 A 
ATOM     22  C   UNL d   1      30.696 -15.560  -1.160  0.00  0.00     0.003 A 
ATOM     23  C   UNL d   1      30.133 -14.353  -1.569  0.00  0.00     0.043 A 
ATOM     24  C   UNL d   1      29.144 -14.347  -2.547  0.00  0.00     0.125 A 
ATOM     25  F   UNL d   1      28.634 -13.163  -2.915  0.00  0.00    -0.205 F 
ENDBRANCH   8  19
BRANCH   9  26
ATOM     26  C   UNL d   1      29.203 -14.763  -6.152  0.00  0.00     0.129 C 
BRANCH  26  27
ATOM     27  C   UNL d   1      30.006 -13.471  -6.285  0.00  0.00     0.046 C 
BRANCH  27  28
ATOM     28  C   UNL d   1      29.787 -12.721  -7.581  0.00  0.00     0.165 C 
BRANCH  28  29
ATOM     29  O   UNL d   1      28.703 -13.326  -8.285  0.00  0.00    -0.401 OA
ATOM     30  H   UNL d   1      27.943 -12.717  -8.247  0.00  0.00     0.209 HD
ENDBRANCH  28  29
ENDBRANCH  27  28
ENDBRANCH  26  27
ENDBRANCH   9  26
TORSDOF 7
ENDMDL
MODEL 9
REMARK VINA RESULT:    -4.951      3.560      6.686
REMARK INTER + INTRA:          -9.912
REMARK INTER:                  -7.040
REMARK INTRA:                  -2.872
REMARK CONF_INDEPENDENT:        2.088
REMARK UNBOUND:                -2.872
REMARK  7 active torsions:
REMARK  status: ('A' for Active; 'I' for Inactive)
REMARK    1  A    between atoms: C_6  and  C_7 
REMARK    2  A    between atoms: C_12  and  O_13 
REMARK    3  A    between atoms: C_15  and  C_16 
REMARK    4  A    between atoms: N_23  and  C_24 
REMARK    5  A    between atoms: C_24  and  C_25 
REMARK    6  A    between atoms: C_25  and  C_26 
REMARK    7  A    between atoms: C_26  and  O_27 
ROOT
ATOM      1  O   UNL d   1      27.036 -11.092  -4.132  0.00  0.00    -0.266 OA
ATOM      2  C   UNL d   1      27.003 -12.092  -3.428  0.00  0.00     0.273 A 
ATOM      3  C   UNL d   1      25.953 -13.038  -3.305  0.00  0.00     0.129 A 
ATOM      4  N   UNL d   1      24.719 -13.283  -3.777  0.00  0.00    -0.272 N 
ATOM      5  N   UNL d   1      24.204 -14.443  -3.277  0.00  0.00    -0.173 NA
ATOM      6  C   UNL d   1      25.126 -14.877  -2.383  0.00  0.00     0.101 A 
ATOM      7  C   UNL d   1      26.240 -14.021  -2.403  0.00  0.00     0.034 A 
ATOM      8  C   UNL d   1      27.583 -13.811  -1.837  0.00  0.00     0.162 A 
ATOM      9  N   UNL d   1      28.007 -12.578  -2.568  0.00  0.00    -0.333 N 
ATOM     10  H   UNL d   1      24.168 -12.745  -4.439  0.00  0.00     0.189 HD
ENDROOT
BRANCH   6  11
ATOM     11  C   UNL d   1      24.933 -16.078  -1.570  0.00  0.00     0.028 A 
ATOM     12  C   UNL d   1      25.992 -16.967  -1.347  0.00  0.00     0.017 A 
ATOM     13  C   UNL d   1      25.815 -18.084  -0.520  0.00  0.00     0.001 A 
ATOM     14  C   UNL d   1      24.586 -18.322   0.097  0.00  0.00     0.003 A 
ATOM     15  C   UNL d   1      23.523 -17.451  -0.120  0.00  0.00     0.037 A 
ATOM     16  C   UNL d   1      23.698 -16.358  -0.969  0.00  0.00     0.078 A 
BRANCH  16  17
ATOM     17  O   UNL d   1      22.614 -15.590  -1.271  0.00  0.00    -0.360 OA
ATOM     18  H   UNL d   1      22.750 -15.125  -2.111  0.00  0.00     0.217 HD
ENDBRANCH  16  17
ENDBRANCH   6  11
BRANCH   8  19
ATOM     19  C   UNL d   1      27.475 -13.606  -0.353  0.00  0.00     0.008 A 
ATOM     20  C   UNL d   1      27.027 -12.360   0.131  0.00  0.00     0.012 A 
ATOM     21  C   UNL d   1      26.798 -12.166   1.493  0.00  0.00     0.001 A 
ATOM     22  C   UNL d   1      27.060 -13.196   2.397  0.00  0.00     0.003 A 
ATOM     23  C   UNL d   1      27.535 -14.423   1.939  0.00  0.00     0.043 A 
ATOM     24  C   UNL d   1      27.716 -14.630   0.575  0.00  0.00     0.125 A 
ATOM     25  F   UNL d   1      28.169 -15.827   0.177  0.00  0.00    -0.205 F 
ENDBRANCH   8  19
BRANCH   9  26
ATOM     26  C   UNL d   1      29.289 -11.901  -2.356  0.00  0.00     0.129 C 
BRANCH  26  27
ATOM     27  C   UNL d   1      29.217 -10.376  -2.366  0.00  0.00     0.046 C 
BRANCH  27  28
ATOM     28  C   UNL d   1      28.458  -9.773  -1.204  0.00  0.00     0.165 C 
BRANCH  28  29
ATOM     29  O   UNL d   1      27.075  -9.697  -1.547  0.00  0.00    -0.401 OA
ATOM     30  H   UNL d   1      26.996  -9.837  -2.508  0.00  0.00     0.209 HD
ENDBRANCH  28  29
ENDBRANCH  27  28
ENDBRANCH  26  27
ENDBRANCH   9  26
TORSDOF 7
ENDMDL
