MODEL 1
REMARK VINA RESULT:    -9.775      0.000      0.000
REMARK INTER + INTRA:         -17.870
REMARK INTER:                 -13.951
REMARK INTRA:                  -3.919
REMARK CONF_INDEPENDENT:        4.176
REMARK UNBOUND:                -3.919
REMARK  14 active torsions:
REMARK  status: ('A' for Active; 'I' for Inactive)
REMARK    1  A    between atoms: O_2  and  C_3 
REMARK    2  A    between atoms: C_5  and  C_3 
REMARK    3  A    between atoms: C_5  and  N_13 
REMARK    4  A    between atoms: C_5  and  C_6 
REMARK    5  A    between atoms: C_6  and  C_7 
REMARK    6  A    between atoms: C_7  and  C_8 
REMARK    7  A    between atoms: C_8  and  N_9 
REMARK       I    between atoms: N_9  and  C_10 
REMARK       I    between atoms: C_10  and  N_11 
REMARK       I    between atoms: N_13  and  C_14 
REMARK    8  A    between atoms: C_16  and  C_14 
REMARK    9  A    between atoms: C_16  and  N_24 
REMARK   10  A    between atoms: C_16  and  C_17 
REMARK   11  A    between atoms: C_17  and  C_18 
REMARK       I    between atoms: N_24  and  C_25 
REMARK   12  A    between atoms: C_25  and  O_27 
REMARK   13  A    between atoms: O_27  and  C_28 
REMARK   14  A    between atoms: C_28  and  C_29 
ROOT
ATOM      1  N   UNL d   1      26.573 -15.351  -0.438  0.00  0.00    -0.345 N 
ATOM      2  C   UNL d   1      26.396 -16.371  -1.358  0.00  0.00     0.241 C 
ATOM      3  O   UNL d   1      27.281 -17.197  -1.567  0.00  0.00    -0.271 OA
ATOM      4  H   UNL d   1      25.935 -14.555  -0.484  0.00  0.00     0.163 HD
ENDROOT
BRANCH   2   5
ATOM      5  C   UNL d   1      25.048 -16.341  -2.115  0.00  0.00     0.183 C 
BRANCH   5   6
ATOM      6  N   UNL d   1      23.967 -16.749  -1.213  0.00  0.00    -0.323 N 
ATOM      7  C   UNL d   1      24.037 -17.915  -0.504  0.00  0.00     0.361 C 
ATOM      8  O   UNL d   1      25.017 -18.660  -0.500  0.00  0.00    -0.238 OA
ATOM      9  H   UNL d   1      23.069 -16.283  -1.252  0.00  0.00     0.165 HD
BRANCH   7  10
ATOM     10  O   UNL d   1      22.910 -18.121   0.212  0.00  0.00    -0.299 OA
BRANCH  10  11
ATOM     11  C   UNL d   1      21.725 -18.219  -0.599  0.00  0.00     0.219 C 
BRANCH  11  12
ATOM     12  C   UNL d   1      20.694 -19.136   0.022  0.00  0.00    -0.034 A 
ATOM     13  C   UNL d   1      19.685 -19.722  -0.755  0.00  0.00     0.009 A 
ATOM     14  C   UNL d   1      18.649 -20.438  -0.153  0.00  0.00     0.001 A 
ATOM     15  C   UNL d   1      18.648 -20.644   1.224  0.00  0.00     0.000 A 
ATOM     16  C   UNL d   1      19.652 -20.084   2.009  0.00  0.00     0.001 A 
ATOM     17  C   UNL d   1      20.661 -19.320   1.415  0.00  0.00     0.009 A 
ENDBRANCH  11  12
ENDBRANCH  10  11
ENDBRANCH   7  10
ENDBRANCH   5   6
BRANCH   5  18
ATOM     18  C   UNL d   1      24.834 -14.932  -2.732  0.00  0.00     0.073 C 
BRANCH  18  19
ATOM     19  C   UNL d   1      25.861 -14.451  -3.745  0.00  0.00    -0.056 A 
ATOM     20  C   UNL d   1      26.256 -15.200  -4.860  0.00  0.00     0.007 A 
ATOM     21  C   UNL d   1      27.326 -14.800  -5.657  0.00  0.00     0.001 A 
ATOM     22  C   UNL d   1      27.961 -13.592  -5.411  0.00  0.00     0.000 A 
ATOM     23  C   UNL d   1      27.563 -12.808  -4.331  0.00  0.00     0.001 A 
ATOM     24  C   UNL d   1      26.530 -13.239  -3.494  0.00  0.00     0.007 A 
ENDBRANCH  18  19
ENDBRANCH   5  18
ENDBRANCH   2   5
BRANCH   1  25
ATOM     25  C   UNL d   1      27.829 -15.261   0.297  0.00  0.00     0.184 C 
BRANCH  25  26
ATOM     26  C   UNL d   1      28.918 -14.584  -0.553  0.00  0.00     0.037 C 
BRANCH  26  27
ATOM     27  C   UNL d   1      30.167 -15.456  -0.703  0.00  0.00     0.023 C 
BRANCH  27  28
ATOM     28  C   UNL d   1      31.195 -15.176   0.378  0.00  0.00     0.138 C 
BRANCH  28  29
ATOM     29  N   UNL d   1      30.577 -15.206   1.711  0.00  0.00    -0.227 N 
ATOM     30  C   UNL d   1      31.212 -14.799   2.822  0.00  0.00     0.665 C 
ATOM     31  N   UNL d   1      32.463 -14.332   2.777  0.00  0.00    -0.235 N 
ATOM     32  N   UNL d   1      30.591 -14.857   4.002  0.00  0.00    -0.235 N 
ATOM     33  H   UNL d   1      32.969 -14.265   1.904  0.00  0.00     0.174 HD
ATOM     34  H   UNL d   1      32.950 -14.025   3.609  0.00  0.00     0.174 HD
ATOM     35  H   UNL d   1      29.643 -15.201   4.094  0.00  0.00     0.174 HD
ATOM     36  H   UNL d   1      31.052 -14.559   4.853  0.00  0.00     0.174 HD
ATOM     37  H   UNL d   1      29.625 -15.542   1.807  0.00  0.00     0.177 HD
ENDBRANCH  28  29
ENDBRANCH  27  28
ENDBRANCH  26  27
ENDBRANCH  25  26
BRANCH  25  38
ATOM     38  C   UNL d   1      27.553 -14.441   1.577  0.00  0.00     0.281 C 
ATOM     39  O   UNL d   1      28.040 -14.684   2.675  0.00  0.00    -0.263 OA
BRANCH  38  40
ATOM     40  O   UNL d   1      26.598 -13.487   1.352  0.00  0.00    -0.325 OA
ATOM     41  C   UNL d   1      26.880 -12.240   1.995  0.00  0.00     0.213 C 
ENDBRANCH  38  40
ENDBRANCH  25  38
ENDBRANCH   1  25
TORSDOF 14
ENDMDL
MODEL 2
REMARK VINA RESULT:    -9.093      2.420      7.027
REMARK INTER + INTRA:         -17.667
REMARK INTER:                 -13.269
REMARK INTRA:                  -4.398
REMARK CONF_INDEPENDENT:        4.176
REMARK UNBOUND:                -4.398
REMARK  14 active torsions:
REMARK  status: ('A' for Active; 'I' for Inactive)
REMARK    1  A    between atoms: O_2  and  C_3 
REMARK    2  A    between atoms: C_5  and  C_3 
REMARK    3  A    between atoms: C_5  and  N_13 
REMARK    4  A    between atoms: C_5  and  C_6 
REMARK    5  A    between atoms: C_6  and  C_7 
REMARK    6  A    between atoms: C_7  and  C_8 
REMARK    7  A    between atoms: C_8  and  N_9 
REMARK       I    between atoms: N_9  and  C_10 
REMARK       I    between atoms: C_10  and  N_11 
REMARK       I    between atoms: N_13  and  C_14 
REMARK    8  A    between atoms: C_16  and  C_14 
REMARK    9  A    between atoms: C_16  and  N_24 
REMARK   10  A    between atoms: C_16  and  C_17 
REMARK   11  A    between atoms: C_17  and  C_18 
REMARK       I    between atoms: N_24  and  C_25 
REMARK   12  A    between atoms: C_25  and  O_27 
REMARK   13  A    between atoms: O_27  and  C_28 
REMARK   14  A    between atoms: C_28  and  C_29 
ROOT
ATOM      1  N   UNL d   1      26.969 -14.653  -2.284  0.00  0.00    -0.345 N 
ATOM      2  C   UNL d   1      27.285 -15.907  -1.790  0.00  0.00     0.241 C 
ATOM      3  O   UNL d   1      28.019 -16.669  -2.415  0.00  0.00    -0.271 OA
ATOM      4  H   UNL d   1      26.169 -14.169  -1.873  0.00  0.00     0.163 HD
ENDROOT
BRANCH   2   5
ATOM      5  C   UNL d   1      26.603 -16.273  -0.450  0.00  0.00     0.183 C 
BRANCH   5   6
ATOM      6  N   UNL d   1      27.344 -15.668   0.660  0.00  0.00    -0.323 N 
ATOM      7  C   UNL d   1      27.417 -14.312   0.809  0.00  0.00     0.361 C 
ATOM      8  O   UNL d   1      26.819 -13.508   0.094  0.00  0.00    -0.238 OA
ATOM      9  H   UNL d   1      27.979 -16.230   1.213  0.00  0.00     0.165 HD
BRANCH   7  10
ATOM     10  O   UNL d   1      28.199 -13.976   1.859  0.00  0.00    -0.299 OA
BRANCH  10  11
ATOM     11  C   UNL d   1      27.538 -13.131   2.818  0.00  0.00     0.219 C 
BRANCH  11  12
ATOM     12  C   UNL d   1      28.078 -13.341   4.216  0.00  0.00    -0.034 A 
ATOM     13  C   UNL d   1      28.420 -14.619   4.677  0.00  0.00     0.009 A 
ATOM     14  C   UNL d   1      28.767 -14.826   6.012  0.00  0.00     0.001 A 
ATOM     15  C   UNL d   1      28.853 -13.747   6.888  0.00  0.00     0.000 A 
ATOM     16  C   UNL d   1      28.534 -12.467   6.444  0.00  0.00     0.001 A 
ATOM     17  C   UNL d   1      28.133 -12.265   5.120  0.00  0.00     0.009 A 
ENDBRANCH  11  12
ENDBRANCH  10  11
ENDBRANCH   7  10
ENDBRANCH   5   6
BRANCH   5  18
ATOM     18  C   UNL d   1      25.111 -15.847  -0.498  0.00  0.00     0.073 C 
BRANCH  18  19
ATOM     19  C   UNL d   1      24.076 -16.948  -0.665  0.00  0.00    -0.056 A 
ATOM     20  C   UNL d   1      22.714 -16.703  -0.877  0.00  0.00     0.007 A 
ATOM     21  C   UNL d   1      21.780 -17.735  -0.844  0.00  0.00     0.001 A 
ATOM     22  C   UNL d   1      22.201 -19.048  -0.695  0.00  0.00     0.000 A 
ATOM     23  C   UNL d   1      23.554 -19.325  -0.520  0.00  0.00     0.001 A 
ATOM     24  C   UNL d   1      24.485 -18.283  -0.491  0.00  0.00     0.007 A 
ENDBRANCH  18  19
ENDBRANCH   5  18
ENDBRANCH   2   5
BRANCH   1  25
ATOM     25  C   UNL d   1      27.523 -14.228  -3.564  0.00  0.00     0.184 C 
BRANCH  25  26
ATOM     26  C   UNL d   1      29.045 -14.443  -3.605  0.00  0.00     0.037 C 
BRANCH  26  27
ATOM     27  C   UNL d   1      29.805 -13.386  -2.798  0.00  0.00     0.023 C 
BRANCH  27  28
ATOM     28  C   UNL d   1      30.277 -13.918  -1.457  0.00  0.00     0.138 C 
BRANCH  28  29
ATOM     29  N   UNL d   1      30.141 -15.380  -1.395  0.00  0.00    -0.227 N 
ATOM     30  C   UNL d   1      30.093 -16.062  -0.240  0.00  0.00     0.665 C 
ATOM     31  N   UNL d   1      30.165 -15.439   0.940  0.00  0.00    -0.235 N 
ATOM     32  N   UNL d   1      29.973 -17.392  -0.257  0.00  0.00    -0.235 N 
ATOM     33  H   UNL d   1      30.252 -14.434   1.000  0.00  0.00     0.174 HD
ATOM     34  H   UNL d   1      30.132 -15.946   1.815  0.00  0.00     0.174 HD
ATOM     35  H   UNL d   1      29.913 -17.915  -1.122  0.00  0.00     0.174 HD
ATOM     36  H   UNL d   1      29.938 -17.927   0.602  0.00  0.00     0.174 HD
ATOM     37  H   UNL d   1      30.073 -15.907  -2.259  0.00  0.00     0.177 HD
ENDBRANCH  28  29
ENDBRANCH  27  28
ENDBRANCH  26  27
ENDBRANCH  25  26
BRANCH  25  38
ATOM     38  C   UNL d   1      26.829 -15.064  -4.663  0.00  0.00     0.281 C 
ATOM     39  O   UNL d   1      27.380 -15.462  -5.683  0.00  0.00    -0.263 OA
BRANCH  38  40
ATOM     40  O   UNL d   1      25.490 -15.192  -4.409  0.00  0.00    -0.325 OA
ATOM     41  C   UNL d   1      24.818 -13.937  -4.268  0.00  0.00     0.213 C 
ENDBRANCH  38  40
ENDBRANCH  25  38
ENDBRANCH   1  25
TORSDOF 14
ENDMDL
MODEL 3
REMARK VINA RESULT:    -9.039      2.951      6.909
REMARK INTER + INTRA:         -17.440
REMARK INTER:                 -13.215
REMARK INTRA:                  -4.224
REMARK CONF_INDEPENDENT:        4.176
REMARK UNBOUND:                -4.224
REMARK  14 active torsions:
REMARK  status: ('A' for Active; 'I' for Inactive)
REMARK    1  A    between atoms: O_2  and  C_3 
REMARK    2  A    between atoms: C_5  and  C_3 
REMARK    3  A    between atoms: C_5  and  N_13 
REMARK    4  A    between atoms: C_5  and  C_6 
REMARK    5  A    between atoms: C_6  and  C_7 
REMARK    6  A    between atoms: C_7  and  C_8 
REMARK    7  A    between atoms: C_8  and  N_9 
REMARK       I    between atoms: N_9  and  C_10 
REMARK       I    between atoms: C_10  and  N_11 
REMARK       I    between atoms: N_13  and  C_14 
REMARK    8  A    between atoms: C_16  and  C_14 
REMARK    9  A    between atoms: C_16  and  N_24 
REMARK   10  A    between atoms: C_16  and  C_17 
REMARK   11  A    between atoms: C_17  and  C_18 
REMARK       I    between atoms: N_24  and  C_25 
REMARK   12  A    between atoms: C_25  and  O_27 
REMARK   13  A    between atoms: O_27  and  C_28 
REMARK   14  A    between atoms: C_28  and  C_29 
ROOT
ATOM      1  N   UNL d   1      27.832 -14.493  -1.141  0.00  0.00    -0.345 N 
ATOM      2  C   UNL d   1      26.721 -13.702  -1.379  0.00  0.00     0.241 C 
ATOM      3  O   UNL d   1      26.280 -12.950  -0.513  0.00  0.00    -0.271 OA
ATOM      4  H   UNL d   1      28.002 -15.274  -1.776  0.00  0.00     0.163 HD
ENDROOT
BRANCH   2   5
ATOM      5  C   UNL d   1      26.072 -13.888  -2.771  0.00  0.00     0.183 C 
BRANCH   5   6
ATOM      6  N   UNL d   1      27.068 -14.406  -3.713  0.00  0.00    -0.323 N 
ATOM      7  C   UNL d   1      26.700 -15.152  -4.797  0.00  0.00     0.361 C 
ATOM      8  O   UNL d   1      25.532 -15.379  -5.112  0.00  0.00    -0.238 OA
ATOM      9  H   UNL d   1      28.051 -14.395  -3.470  0.00  0.00     0.165 HD
BRANCH   7  10
ATOM     10  O   UNL d   1      27.780 -15.575  -5.490  0.00  0.00    -0.299 OA
BRANCH  10  11
ATOM     11  C   UNL d   1      28.904 -15.907  -4.655  0.00  0.00     0.219 C 
BRANCH  11  12
ATOM     12  C   UNL d   1      29.823 -16.907  -5.322  0.00  0.00    -0.034 A 
ATOM     13  C   UNL d   1      30.378 -16.652  -6.584  0.00  0.00     0.009 A 
ATOM     14  C   UNL d   1      31.095 -17.640  -7.259  0.00  0.00     0.001 A 
ATOM     15  C   UNL d   1      31.335 -18.870  -6.652  0.00  0.00     0.000 A 
ATOM     16  C   UNL d   1      30.808 -19.134  -5.390  0.00  0.00     0.001 A 
ATOM     17  C   UNL d   1      30.042 -18.165  -4.735  0.00  0.00     0.009 A 
ENDBRANCH  11  12
ENDBRANCH  10  11
ENDBRANCH   7  10
ENDBRANCH   5   6
BRANCH   5  18
ATOM     18  C   UNL d   1      24.820 -14.797  -2.639  0.00  0.00     0.073 C 
BRANCH  18  19
ATOM     19  C   UNL d   1      24.890 -15.939  -1.637  0.00  0.00    -0.056 A 
ATOM     20  C   UNL d   1      26.046 -16.692  -1.403  0.00  0.00     0.007 A 
ATOM     21  C   UNL d   1      26.014 -17.839  -0.612  0.00  0.00     0.001 A 
ATOM     22  C   UNL d   1      24.845 -18.200   0.040  0.00  0.00     0.000 A 
ATOM     23  C   UNL d   1      23.689 -17.447  -0.145  0.00  0.00     0.001 A 
ATOM     24  C   UNL d   1      23.705 -16.332  -0.988  0.00  0.00     0.007 A 
ENDBRANCH  18  19
ENDBRANCH   5  18
ENDBRANCH   2   5
BRANCH   1  25
ATOM     25  C   UNL d   1      28.491 -14.428   0.158  0.00  0.00     0.184 C 
BRANCH  25  26
ATOM     26  C   UNL d   1      27.517 -14.800   1.289  0.00  0.00     0.037 C 
BRANCH  26  27
ATOM     27  C   UNL d   1      27.215 -13.617   2.213  0.00  0.00     0.023 C 
BRANCH  27  28
ATOM     28  C   UNL d   1      28.218 -13.503   3.345  0.00  0.00     0.138 C 
BRANCH  28  29
ATOM     29  N   UNL d   1      29.326 -14.450   3.163  0.00  0.00    -0.227 N 
ATOM     30  C   UNL d   1      30.521 -14.302   3.758  0.00  0.00     0.665 C 
ATOM     31  N   UNL d   1      30.773 -13.268   4.566  0.00  0.00    -0.235 N 
ATOM     32  N   UNL d   1      31.486 -15.200   3.545  0.00  0.00    -0.235 N 
ATOM     33  H   UNL d   1      30.070 -12.568   4.759  0.00  0.00     0.174 HD
ATOM     34  H   UNL d   1      31.671 -13.148   5.016  0.00  0.00     0.174 HD
ATOM     35  H   UNL d   1      31.349 -16.003   2.944  0.00  0.00     0.174 HD
ATOM     36  H   UNL d   1      32.395 -15.107   3.980  0.00  0.00     0.174 HD
ATOM     37  H   UNL d   1      29.191 -15.260   2.568  0.00  0.00     0.177 HD
ENDBRANCH  28  29
ENDBRANCH  27  28
ENDBRANCH  26  27
ENDBRANCH  25  26
BRANCH  25  38
ATOM     38  C   UNL d   1      29.679 -15.415   0.119  0.00  0.00     0.281 C 
ATOM     39  O   UNL d   1      30.555 -15.479   0.974  0.00  0.00    -0.263 OA
BRANCH  38  40
ATOM     40  O   UNL d   1      29.695 -16.117  -1.055  0.00  0.00    -0.325 OA
ATOM     41  C   UNL d   1      29.458 -17.517  -0.880  0.00  0.00     0.213 C 
ENDBRANCH  38  40
ENDBRANCH  25  38
ENDBRANCH   1  25
TORSDOF 14
ENDMDL
MODEL 4
REMARK VINA RESULT:    -8.766      2.903      7.394
REMARK INTER + INTRA:         -17.042
REMARK INTER:                 -12.942
REMARK INTRA:                  -4.100
REMARK CONF_INDEPENDENT:        4.176
REMARK UNBOUND:                -4.100
REMARK  14 active torsions:
REMARK  status: ('A' for Active; 'I' for Inactive)
REMARK    1  A    between atoms: O_2  and  C_3 
REMARK    2  A    between atoms: C_5  and  C_3 
REMARK    3  A    between atoms: C_5  and  N_13 
REMARK    4  A    between atoms: C_5  and  C_6 
REMARK    5  A    between atoms: C_6  and  C_7 
REMARK    6  A    between atoms: C_7  and  C_8 
REMARK    7  A    between atoms: C_8  and  N_9 
REMARK       I    between atoms: N_9  and  C_10 
REMARK       I    between atoms: C_10  and  N_11 
REMARK       I    between atoms: N_13  and  C_14 
REMARK    8  A    between atoms: C_16  and  C_14 
REMARK    9  A    between atoms: C_16  and  N_24 
REMARK   10  A    between atoms: C_16  and  C_17 
REMARK   11  A    between atoms: C_17  and  C_18 
REMARK       I    between atoms: N_24  and  C_25 
REMARK   12  A    between atoms: C_25  and  O_27 
REMARK   13  A    between atoms: O_27  and  C_28 
REMARK   14  A    between atoms: C_28  and  C_29 
ROOT
ATOM      1  N   UNL d   1      27.717 -14.480  -1.093  0.00  0.00    -0.345 N 
ATOM      2  C   UNL d   1      26.651 -13.632  -1.343  0.00  0.00     0.241 C 
ATOM      3  O   UNL d   1      26.278 -12.817  -0.503  0.00  0.00    -0.271 OA
ATOM      4  H   UNL d   1      27.825 -15.297  -1.695  0.00  0.00     0.163 HD
ENDROOT
BRANCH   2   5
ATOM      5  C   UNL d   1      25.959 -13.839  -2.711  0.00  0.00     0.183 C 
BRANCH   5   6
ATOM      6  N   UNL d   1      26.913 -14.416  -3.662  0.00  0.00    -0.323 N 
ATOM      7  C   UNL d   1      26.490 -15.072  -4.783  0.00  0.00     0.361 C 
ATOM      8  O   UNL d   1      25.310 -15.163  -5.123  0.00  0.00    -0.238 OA
ATOM      9  H   UNL d   1      27.888 -14.517  -3.407  0.00  0.00     0.165 HD
BRANCH   7  10
ATOM     10  O   UNL d   1      27.532 -15.574  -5.482  0.00  0.00    -0.299 OA
BRANCH  10  11
ATOM     11  C   UNL d   1      28.610 -14.636  -5.656  0.00  0.00     0.219 C 
BRANCH  11  12
ATOM     12  C   UNL d   1      29.773 -15.251  -6.403  0.00  0.00    -0.034 A 
ATOM     13  C   UNL d   1      30.037 -16.625  -6.328  0.00  0.00     0.009 A 
ATOM     14  C   UNL d   1      31.198 -17.158  -6.890  0.00  0.00     0.001 A 
ATOM     15  C   UNL d   1      32.072 -16.340  -7.600  0.00  0.00     0.000 A 
ATOM     16  C   UNL d   1      31.816 -14.975  -7.701  0.00  0.00     0.001 A 
ATOM     17  C   UNL d   1      30.682 -14.429  -7.091  0.00  0.00     0.009 A 
ENDBRANCH  11  12
ENDBRANCH  10  11
ENDBRANCH   7  10
ENDBRANCH   5   6
BRANCH   5  18
ATOM     18  C   UNL d   1      24.684 -14.704  -2.519  0.00  0.00     0.073 C 
BRANCH  18  19
ATOM     19  C   UNL d   1      24.783 -15.892  -1.575  0.00  0.00    -0.056 A 
ATOM     20  C   UNL d   1      25.951 -16.645  -1.399  0.00  0.00     0.007 A 
ATOM     21  C   UNL d   1      25.945 -17.828  -0.665  0.00  0.00     0.001 A 
ATOM     22  C   UNL d   1      24.791 -18.233  -0.011  0.00  0.00     0.000 A 
ATOM     23  C   UNL d   1      23.625 -17.484  -0.137  0.00  0.00     0.001 A 
ATOM     24  C   UNL d   1      23.615 -16.329  -0.925  0.00  0.00     0.007 A 
ENDBRANCH  18  19
ENDBRANCH   5  18
ENDBRANCH   2   5
BRANCH   1  25
ATOM     25  C   UNL d   1      28.410 -14.398   0.188  0.00  0.00     0.184 C 
BRANCH  25  26
ATOM     26  C   UNL d   1      27.440 -14.644   1.356  0.00  0.00     0.037 C 
BRANCH  26  27
ATOM     27  C   UNL d   1      27.306 -13.424   2.271  0.00  0.00     0.023 C 
BRANCH  27  28
ATOM     28  C   UNL d   1      28.175 -13.539   3.510  0.00  0.00     0.138 C 
BRANCH  28  29
ATOM     29  N   UNL d   1      29.280 -14.481   3.291  0.00  0.00    -0.227 N 
ATOM     30  C   UNL d   1      30.500 -14.317   3.828  0.00  0.00     0.665 C 
ATOM     31  N   UNL d   1      30.782 -13.269   4.608  0.00  0.00    -0.235 N 
ATOM     32  N   UNL d   1      31.461 -15.211   3.584  0.00  0.00    -0.235 N 
ATOM     33  H   UNL d   1      30.083 -12.570   4.823  0.00  0.00     0.174 HD
ATOM     34  H   UNL d   1      31.698 -13.136   5.015  0.00  0.00     0.174 HD
ATOM     35  H   UNL d   1      31.302 -16.024   3.001  0.00  0.00     0.174 HD
ATOM     36  H   UNL d   1      32.388 -15.106   3.975  0.00  0.00     0.174 HD
ATOM     37  H   UNL d   1      29.124 -15.301   2.714  0.00  0.00     0.177 HD
ENDBRANCH  28  29
ENDBRANCH  27  28
ENDBRANCH  26  27
ENDBRANCH  25  26
BRANCH  25  38
ATOM     38  C   UNL d   1      29.525 -15.468   0.175  0.00  0.00     0.281 C 
ATOM     39  O   UNL d   1      30.394 -15.574   1.032  0.00  0.00    -0.263 OA
BRANCH  38  40
ATOM     40  O   UNL d   1      29.489 -16.199  -0.981  0.00  0.00    -0.325 OA
ATOM     41  C   UNL d   1      29.954 -17.543  -0.816  0.00  0.00     0.213 C 
ENDBRANCH  38  40
ENDBRANCH  25  38
ENDBRANCH   1  25
TORSDOF 14
ENDMDL
MODEL 5
REMARK VINA RESULT:    -8.524      3.075      7.028
REMARK INTER + INTRA:         -17.385
REMARK INTER:                 -12.701
REMARK INTRA:                  -4.684
REMARK CONF_INDEPENDENT:        4.176
REMARK UNBOUND:                -4.684
REMARK  14 active torsions:
REMARK  status: ('A' for Active; 'I' for Inactive)
REMARK    1  A    between atoms: O_2  and  C_3 
REMARK    2  A    between atoms: C_5  and  C_3 
REMARK    3  A    between atoms: C_5  and  N_13 
REMARK    4  A    between atoms: C_5  and  C_6 
REMARK    5  A    between atoms: C_6  and  C_7 
REMARK    6  A    between atoms: C_7  and  C_8 
REMARK    7  A    between atoms: C_8  and  N_9 
REMARK       I    between atoms: N_9  and  C_10 
REMARK       I    between atoms: C_10  and  N_11 
REMARK       I    between atoms: N_13  and  C_14 
REMARK    8  A    between atoms: C_16  and  C_14 
REMARK    9  A    between atoms: C_16  and  N_24 
REMARK   10  A    between atoms: C_16  and  C_17 
REMARK   11  A    between atoms: C_17  and  C_18 
REMARK       I    between atoms: N_24  and  C_25 
REMARK   12  A    between atoms: C_25  and  O_27 
REMARK   13  A    between atoms: O_27  and  C_28 
REMARK   14  A    between atoms: C_28  and  C_29 
ROOT
ATOM      1  N   UNL d   1      29.552 -17.227  -0.141  0.00  0.00    -0.345 N 
ATOM      2  C   UNL d   1      28.313 -17.003  -0.719  0.00  0.00     0.241 C 
ATOM      3  O   UNL d   1      28.194 -16.878  -1.935  0.00  0.00    -0.271 OA
ATOM      4  H   UNL d   1      29.642 -17.067   0.863  0.00  0.00     0.163 HD
ENDROOT
BRANCH   2   5
ATOM      5  C   UNL d   1      27.140 -16.872   0.281  0.00  0.00     0.183 C 
BRANCH   5   6
ATOM      6  N   UNL d   1      27.604 -16.201   1.498  0.00  0.00    -0.323 N 
ATOM      7  C   UNL d   1      28.051 -14.910   1.470  0.00  0.00     0.361 C 
ATOM      8  O   UNL d   1      28.028 -14.195   0.468  0.00  0.00    -0.238 OA
ATOM      9  H   UNL d   1      27.792 -16.738   2.335  0.00  0.00     0.165 HD
BRANCH   7  10
ATOM     10  O   UNL d   1      28.485 -14.515   2.687  0.00  0.00    -0.299 OA
BRANCH  10  11
ATOM     11  C   UNL d   1      27.420 -14.191   3.599  0.00  0.00     0.219 C 
BRANCH  11  12
ATOM     12  C   UNL d   1      27.949 -13.671   4.918  0.00  0.00    -0.034 A 
ATOM     13  C   UNL d   1      27.981 -12.298   5.196  0.00  0.00     0.009 A 
ATOM     14  C   UNL d   1      28.611 -11.819   6.345  0.00  0.00     0.001 A 
ATOM     15  C   UNL d   1      29.150 -12.708   7.271  0.00  0.00     0.000 A 
ATOM     16  C   UNL d   1      29.111 -14.077   7.021  0.00  0.00     0.001 A 
ATOM     17  C   UNL d   1      28.529 -14.557   5.843  0.00  0.00     0.009 A 
ENDBRANCH  11  12
ENDBRANCH  10  11
ENDBRANCH   7  10
ENDBRANCH   5   6
BRANCH   5  18
ATOM     18  C   UNL d   1      25.953 -16.146  -0.408  0.00  0.00     0.073 C 
BRANCH  18  19
ATOM     19  C   UNL d   1      24.661 -16.928  -0.579  0.00  0.00    -0.056 A 
ATOM     20  C   UNL d   1      23.405 -16.325  -0.717  0.00  0.00     0.007 A 
ATOM     21  C   UNL d   1      22.234 -17.079  -0.689  0.00  0.00     0.001 A 
ATOM     22  C   UNL d   1      22.301 -18.463  -0.620  0.00  0.00     0.000 A 
ATOM     23  C   UNL d   1      23.539 -19.091  -0.520  0.00  0.00     0.001 A 
ATOM     24  C   UNL d   1      24.711 -18.331  -0.485  0.00  0.00     0.007 A 
ENDBRANCH  18  19
ENDBRANCH   5  18
ENDBRANCH   2   5
BRANCH   1  25
ATOM     25  C   UNL d   1      30.731 -17.319  -0.994  0.00  0.00     0.184 C 
BRANCH  25  26
ATOM     26  C   UNL d   1      31.068 -15.955  -1.620  0.00  0.00     0.037 C 
BRANCH  26  27
ATOM     27  C   UNL d   1      30.653 -14.784  -0.724  0.00  0.00     0.023 C 
BRANCH  27  28
ATOM     28  C   UNL d   1      31.604 -14.590   0.442  0.00  0.00     0.138 C 
BRANCH  28  29
ATOM     29  N   UNL d   1      30.972 -14.989   1.707  0.00  0.00    -0.227 N 
ATOM     30  C   UNL d   1      31.439 -14.614   2.909  0.00  0.00     0.665 C 
ATOM     31  N   UNL d   1      32.524 -13.842   3.025  0.00  0.00    -0.235 N 
ATOM     32  N   UNL d   1      30.817 -15.016   4.020  0.00  0.00    -0.235 N 
ATOM     33  H   UNL d   1      33.023 -13.511   2.210  0.00  0.00     0.174 HD
ATOM     34  H   UNL d   1      32.884 -13.557   3.926  0.00  0.00     0.174 HD
ATOM     35  H   UNL d   1      29.991 -15.601   3.991  0.00  0.00     0.174 HD
ATOM     36  H   UNL d   1      31.154 -14.749   4.936  0.00  0.00     0.174 HD
ATOM     37  H   UNL d   1      30.140 -15.568   1.684  0.00  0.00     0.177 HD
ENDBRANCH  28  29
ENDBRANCH  27  28
ENDBRANCH  26  27
ENDBRANCH  25  26
BRANCH  25  38
ATOM     38  C   UNL d   1      31.899 -17.811  -0.108  0.00  0.00     0.281 C 
ATOM     39  O   UNL d   1      32.770 -18.589  -0.479  0.00  0.00    -0.263 OA
BRANCH  38  40
ATOM     40  O   UNL d   1      31.760 -17.365   1.178  0.00  0.00    -0.325 OA
ATOM     41  C   UNL d   1      32.655 -18.000   2.097  0.00  0.00     0.213 C 
ENDBRANCH  38  40
ENDBRANCH  25  38
ENDBRANCH   1  25
TORSDOF 14
ENDMDL
MODEL 6
REMARK VINA RESULT:    -8.262      2.469      4.523
REMARK INTER + INTRA:         -17.469
REMARK INTER:                 -12.439
REMARK INTRA:                  -5.030
REMARK CONF_INDEPENDENT:        4.176
REMARK UNBOUND:                -5.030
REMARK  14 active torsions:
REMARK  status: ('A' for Active; 'I' for Inactive)
REMARK    1  A    between atoms: O_2  and  C_3 
REMARK    2  A    between atoms: C_5  and  C_3 
REMARK    3  A    between atoms: C_5  and  N_13 
REMARK    4  A    between atoms: C_5  and  C_6 
REMARK    5  A    between atoms: C_6  and  C_7 
REMARK    6  A    between atoms: C_7  and  C_8 
REMARK    7  A    between atoms: C_8  and  N_9 
REMARK       I    between atoms: N_9  and  C_10 
REMARK       I    between atoms: C_10  and  N_11 
REMARK       I    between atoms: N_13  and  C_14 
REMARK    8  A    between atoms: C_16  and  C_14 
REMARK    9  A    between atoms: C_16  and  N_24 
REMARK   10  A    between atoms: C_16  and  C_17 
REMARK   11  A    between atoms: C_17  and  C_18 
REMARK       I    between atoms: N_24  and  C_25 
REMARK   12  A    between atoms: C_25  and  O_27 
REMARK   13  A    between atoms: O_27  and  C_28 
REMARK   14  A    between atoms: C_28  and  C_29 
ROOT
ATOM      1  N   UNL d   1      27.236 -11.364   1.740  0.00  0.00    -0.345 N 
ATOM      2  C   UNL d   1      26.985 -12.725   1.708  0.00  0.00     0.241 C 
ATOM      3  O   UNL d   1      26.379 -13.280   2.623  0.00  0.00    -0.271 OA
ATOM      4  H   UNL d   1      27.950 -10.999   1.107  0.00  0.00     0.163 HD
ENDROOT
BRANCH   2   5
ATOM      5  C   UNL d   1      27.568 -13.469   0.484  0.00  0.00     0.183 C 
BRANCH   5   6
ATOM      6  N   UNL d   1      27.051 -14.840   0.450  0.00  0.00    -0.323 N 
ATOM      7  C   UNL d   1      27.883 -15.916   0.585  0.00  0.00     0.361 C 
ATOM      8  O   UNL d   1      29.088 -15.829   0.820  0.00  0.00    -0.238 OA
ATOM      9  H   UNL d   1      26.109 -15.020   0.125  0.00  0.00     0.165 HD
BRANCH   7  10
ATOM     10  O   UNL d   1      27.205 -17.078   0.461  0.00  0.00    -0.299 OA
BRANCH  10  11
ATOM     11  C   UNL d   1      26.632 -17.271  -0.846  0.00  0.00     0.219 C 
BRANCH  11  12
ATOM     12  C   UNL d   1      25.126 -17.399  -0.784  0.00  0.00    -0.034 A 
ATOM     13  C   UNL d   1      24.293 -16.318  -1.104  0.00  0.00     0.009 A 
ATOM     14  C   UNL d   1      22.916 -16.395  -0.895  0.00  0.00     0.001 A 
ATOM     15  C   UNL d   1      22.341 -17.578  -0.438  0.00  0.00     0.000 A 
ATOM     16  C   UNL d   1      23.151 -18.669  -0.133  0.00  0.00     0.001 A 
ATOM     17  C   UNL d   1      24.538 -18.576  -0.289  0.00  0.00     0.009 A 
ENDBRANCH  11  12
ENDBRANCH  10  11
ENDBRANCH   7  10
ENDBRANCH   5   6
BRANCH   5  18
ATOM     18  C   UNL d   1      27.257 -12.663  -0.806  0.00  0.00     0.073 C 
BRANCH  18  19
ATOM     19  C   UNL d   1      26.830 -13.450  -2.034  0.00  0.00    -0.056 A 
ATOM     20  C   UNL d   1      25.541 -13.393  -2.579  0.00  0.00     0.007 A 
ATOM     21  C   UNL d   1      25.145 -14.264  -3.591  0.00  0.00     0.001 A 
ATOM     22  C   UNL d   1      26.059 -15.147  -4.145  0.00  0.00     0.000 A 
ATOM     23  C   UNL d   1      27.359 -15.199  -3.648  0.00  0.00     0.001 A 
ATOM     24  C   UNL d   1      27.739 -14.368  -2.591  0.00  0.00     0.007 A 
ENDBRANCH  18  19
ENDBRANCH   5  18
ENDBRANCH   2   5
BRANCH   1  25
ATOM     25  C   UNL d   1      26.769 -10.576   2.875  0.00  0.00     0.184 C 
BRANCH  25  26
ATOM     26  C   UNL d   1      27.591 -10.888   4.137  0.00  0.00     0.037 C 
BRANCH  26  27
ATOM     27  C   UNL d   1      28.967 -11.473   3.807  0.00  0.00     0.023 C 
BRANCH  27  28
ATOM     28  C   UNL d   1      29.588 -12.183   4.996  0.00  0.00     0.138 C 
BRANCH  28  29
ATOM     29  N   UNL d   1      30.558 -13.195   4.556  0.00  0.00    -0.227 N 
ATOM     30  C   UNL d   1      30.220 -14.255   3.804  0.00  0.00     0.665 C 
ATOM     31  N   UNL d   1      28.960 -14.452   3.405  0.00  0.00    -0.235 N 
ATOM     32  N   UNL d   1      31.153 -15.139   3.443  0.00  0.00    -0.235 N 
ATOM     33  H   UNL d   1      28.223 -13.806   3.651  0.00  0.00     0.174 HD
ATOM     34  H   UNL d   1      28.696 -15.249   2.840  0.00  0.00     0.174 HD
ATOM     35  H   UNL d   1      32.123 -15.039   3.716  0.00  0.00     0.174 HD
ATOM     36  H   UNL d   1      30.920 -15.948   2.880  0.00  0.00     0.174 HD
ATOM     37  H   UNL d   1      31.532 -13.095   4.821  0.00  0.00     0.177 HD
ENDBRANCH  28  29
ENDBRANCH  27  28
ENDBRANCH  26  27
ENDBRANCH  25  26
BRANCH  25  38
ATOM     38  C   UNL d   1      26.912  -9.087   2.489  0.00  0.00     0.281 C 
ATOM     39  O   UNL d   1      26.630  -8.150   3.227  0.00  0.00    -0.263 OA
BRANCH  38  40
ATOM     40  O   UNL d   1      27.273  -8.953   1.176  0.00  0.00    -0.325 OA
ATOM     41  C   UNL d   1      28.608  -8.468   1.003  0.00  0.00     0.213 C 
ENDBRANCH  38  40
ENDBRANCH  25  38
ENDBRANCH   1  25
TORSDOF 14
ENDMDL
MODEL 7
REMARK VINA RESULT:    -8.162      2.792      5.798
REMARK INTER + INTRA:         -17.157
REMARK INTER:                 -12.338
REMARK INTRA:                  -4.818
REMARK CONF_INDEPENDENT:        4.176
REMARK UNBOUND:                -4.818
REMARK  14 active torsions:
REMARK  status: ('A' for Active; 'I' for Inactive)
REMARK    1  A    between atoms: O_2  and  C_3 
REMARK    2  A    between atoms: C_5  and  C_3 
REMARK    3  A    between atoms: C_5  and  N_13 
REMARK    4  A    between atoms: C_5  and  C_6 
REMARK    5  A    between atoms: C_6  and  C_7 
REMARK    6  A    between atoms: C_7  and  C_8 
REMARK    7  A    between atoms: C_8  and  N_9 
REMARK       I    between atoms: N_9  and  C_10 
REMARK       I    between atoms: C_10  and  N_11 
REMARK       I    between atoms: N_13  and  C_14 
REMARK    8  A    between atoms: C_16  and  C_14 
REMARK    9  A    between atoms: C_16  and  N_24 
REMARK   10  A    between atoms: C_16  and  C_17 
REMARK   11  A    between atoms: C_17  and  C_18 
REMARK       I    between atoms: N_24  and  C_25 
REMARK   12  A    between atoms: C_25  and  O_27 
REMARK   13  A    between atoms: O_27  and  C_28 
REMARK   14  A    between atoms: C_28  and  C_29 
ROOT
ATOM      1  N   UNL d   1      27.146 -14.309  -1.946  0.00  0.00    -0.345 N 
ATOM      2  C   UNL d   1      26.874 -13.206  -1.154  0.00  0.00     0.241 C 
ATOM      3  O   UNL d   1      26.860 -12.073  -1.628  0.00  0.00    -0.271 OA
ATOM      4  H   UNL d   1      27.400 -15.179  -1.476  0.00  0.00     0.163 HD
ENDROOT
BRANCH   2   5
ATOM      5  C   UNL d   1      26.654 -13.517   0.345  0.00  0.00     0.183 C 
BRANCH   5   6
ATOM      6  N   UNL d   1      26.389 -14.948   0.517  0.00  0.00    -0.323 N 
ATOM      7  C   UNL d   1      27.395 -15.870   0.444  0.00  0.00     0.361 C 
ATOM      8  O   UNL d   1      28.585 -15.581   0.313  0.00  0.00    -0.238 OA
ATOM      9  H   UNL d   1      25.439 -15.297   0.489  0.00  0.00     0.165 HD
BRANCH   7  10
ATOM     10  O   UNL d   1      26.918 -17.128   0.569  0.00  0.00    -0.299 OA
BRANCH  10  11
ATOM     11  C   UNL d   1      26.308 -17.632  -0.633  0.00  0.00     0.219 C 
BRANCH  11  12
ATOM     12  C   UNL d   1      24.800 -17.681  -0.519  0.00  0.00    -0.034 A 
ATOM     13  C   UNL d   1      24.139 -18.859  -0.146  0.00  0.00     0.009 A 
ATOM     14  C   UNL d   1      22.748 -18.941  -0.194  0.00  0.00     0.001 A 
ATOM     15  C   UNL d   1      21.992 -17.824  -0.540  0.00  0.00     0.000 A 
ATOM     16  C   UNL d   1      22.630 -16.639  -0.895  0.00  0.00     0.001 A 
ATOM     17  C   UNL d   1      24.027 -16.571  -0.901  0.00  0.00     0.009 A 
ENDBRANCH  11  12
ENDBRANCH  10  11
ENDBRANCH   7  10
ENDBRANCH   5   6
BRANCH   5  18
ATOM     18  C   UNL d   1      27.876 -13.016   1.161  0.00  0.00     0.073 C 
BRANCH  18  19
ATOM     19  C   UNL d   1      27.821 -13.182   2.672  0.00  0.00    -0.056 A 
ATOM     20  C   UNL d   1      27.651 -12.114   3.561  0.00  0.00     0.007 A 
ATOM     21  C   UNL d   1      27.788 -12.290   4.936  0.00  0.00     0.001 A 
ATOM     22  C   UNL d   1      28.003 -13.557   5.456  0.00  0.00     0.000 A 
ATOM     23  C   UNL d   1      28.139 -14.644   4.596  0.00  0.00     0.001 A 
ATOM     24  C   UNL d   1      28.063 -14.458   3.213  0.00  0.00     0.007 A 
ENDBRANCH  18  19
ENDBRANCH   5  18
ENDBRANCH   2   5
BRANCH   1  25
ATOM     25  C   UNL d   1      27.416 -14.120  -3.367  0.00  0.00     0.184 C 
BRANCH  25  26
ATOM     26  C   UNL d   1      28.855 -14.537  -3.716  0.00  0.00     0.037 C 
BRANCH  26  27
ATOM     27  C   UNL d   1      29.465 -15.463  -2.660  0.00  0.00     0.023 C 
BRANCH  27  28
ATOM     28  C   UNL d   1      29.644 -16.879  -3.175  0.00  0.00     0.138 C 
BRANCH  28  29
ATOM     29  N   UNL d   1      30.626 -17.613  -2.365  0.00  0.00    -0.227 N 
ATOM     30  C   UNL d   1      30.380 -18.025  -1.111  0.00  0.00     0.665 C 
ATOM     31  N   UNL d   1      29.206 -17.789  -0.519  0.00  0.00    -0.235 N 
ATOM     32  N   UNL d   1      31.321 -18.684  -0.430  0.00  0.00    -0.235 N 
ATOM     33  H   UNL d   1      28.463 -17.298  -0.998  0.00  0.00     0.174 HD
ATOM     34  H   UNL d   1      29.013 -18.094   0.426  0.00  0.00     0.174 HD
ATOM     35  H   UNL d   1      32.227 -18.891  -0.831  0.00  0.00     0.174 HD
ATOM     36  H   UNL d   1      31.158 -19.001   0.517  0.00  0.00     0.174 HD
ATOM     37  H   UNL d   1      31.533 -17.829  -2.764  0.00  0.00     0.177 HD
ENDBRANCH  28  29
ENDBRANCH  27  28
ENDBRANCH  26  27
ENDBRANCH  25  26
BRANCH  25  38
ATOM     38  C   UNL d   1      26.398 -14.984  -4.146  0.00  0.00     0.281 C 
ATOM     39  O   UNL d   1      26.645 -15.573  -5.191  0.00  0.00    -0.263 OA
BRANCH  38  40
ATOM     40  O   UNL d   1      25.153 -14.900  -3.584  0.00  0.00    -0.325 OA
ATOM     41  C   UNL d   1      24.458 -13.697  -3.926  0.00  0.00     0.213 C 
ENDBRANCH  38  40
ENDBRANCH  25  38
ENDBRANCH   1  25
TORSDOF 14
ENDMDL
MODEL 8
REMARK VINA RESULT:    -7.055      2.825      4.688
REMARK INTER + INTRA:         -17.568
REMARK INTER:                 -11.231
REMARK INTRA:                  -6.337
REMARK CONF_INDEPENDENT:        4.176
REMARK UNBOUND:                -6.337
REMARK  14 active torsions:
REMARK  status: ('A' for Active; 'I' for Inactive)
REMARK    1  A    between atoms: O_2  and  C_3 
REMARK    2  A    between atoms: C_5  and  C_3 
REMARK    3  A    between atoms: C_5  and  N_13 
REMARK    4  A    between atoms: C_5  and  C_6 
REMARK    5  A    between atoms: C_6  and  C_7 
REMARK    6  A    between atoms: C_7  and  C_8 
REMARK    7  A    between atoms: C_8  and  N_9 
REMARK       I    between atoms: N_9  and  C_10 
REMARK       I    between atoms: C_10  and  N_11 
REMARK       I    between atoms: N_13  and  C_14 
REMARK    8  A    between atoms: C_16  and  C_14 
REMARK    9  A    between atoms: C_16  and  N_24 
REMARK   10  A    between atoms: C_16  and  C_17 
REMARK   11  A    between atoms: C_17  and  C_18 
REMARK       I    between atoms: N_24  and  C_25 
REMARK   12  A    between atoms: C_25  and  O_27 
REMARK   13  A    between atoms: O_27  and  C_28 
REMARK   14  A    between atoms: C_28  and  C_29 
ROOT
ATOM      1  N   UNL d   1      28.601 -12.186   2.007  0.00  0.00    -0.345 N 
ATOM      2  C   UNL d   1      27.630 -11.998   1.038  0.00  0.00     0.241 C 
ATOM      3  O   UNL d   1      26.805 -11.093   1.134  0.00  0.00    -0.271 OA
ATOM      4  H   UNL d   1      29.088 -13.084   2.023  0.00  0.00     0.163 HD
ENDROOT
BRANCH   2   5
ATOM      5  C   UNL d   1      27.644 -13.035  -0.110  0.00  0.00     0.183 C 
BRANCH   5   6
ATOM      6  N   UNL d   1      27.294 -14.357   0.417  0.00  0.00    -0.323 N 
ATOM      7  C   UNL d   1      28.232 -15.160   1.000  0.00  0.00     0.361 C 
ATOM      8  O   UNL d   1      29.399 -14.822   1.200  0.00  0.00    -0.238 OA
ATOM      9  H   UNL d   1      26.405 -14.780   0.179  0.00  0.00     0.165 HD
BRANCH   7  10
ATOM     10  O   UNL d   1      27.705 -16.353   1.356  0.00  0.00    -0.299 OA
BRANCH  10  11
ATOM     11  C   UNL d   1      27.534 -17.257   0.249  0.00  0.00     0.219 C 
BRANCH  11  12
ATOM     12  C   UNL d   1      26.084 -17.360  -0.172  0.00  0.00    -0.034 A 
ATOM     13  C   UNL d   1      25.563 -16.544  -1.185  0.00  0.00     0.009 A 
ATOM     14  C   UNL d   1      24.196 -16.535  -1.459  0.00  0.00     0.001 A 
ATOM     15  C   UNL d   1      23.339 -17.397  -0.779  0.00  0.00     0.000 A 
ATOM     16  C   UNL d   1      23.841 -18.229   0.218  0.00  0.00     0.001 A 
ATOM     17  C   UNL d   1      25.204 -18.200   0.533  0.00  0.00     0.009 A 
ENDBRANCH  11  12
ENDBRANCH  10  11
ENDBRANCH   7  10
ENDBRANCH   5   6
BRANCH   5  18
ATOM     18  C   UNL d   1      26.701 -12.558  -1.248  0.00  0.00     0.073 C 
BRANCH  18  19
ATOM     19  C   UNL d   1      26.646 -13.404  -2.509  0.00  0.00    -0.056 A 
ATOM     20  C   UNL d   1      25.613 -13.323  -3.450  0.00  0.00     0.007 A 
ATOM     21  C   UNL d   1      25.511 -14.241  -4.493  0.00  0.00     0.001 A 
ATOM     22  C   UNL d   1      26.496 -15.200  -4.673  0.00  0.00     0.000 A 
ATOM     23  C   UNL d   1      27.556 -15.279  -3.774  0.00  0.00     0.001 A 
ATOM     24  C   UNL d   1      27.626 -14.398  -2.691  0.00  0.00     0.007 A 
ENDBRANCH  18  19
ENDBRANCH   5  18
ENDBRANCH   2   5
BRANCH   1  25
ATOM     25  C   UNL d   1      28.646 -11.291   3.157  0.00  0.00     0.184 C 
BRANCH  25  26
ATOM     26  C   UNL d   1      27.775 -11.826   4.307  0.00  0.00     0.037 C 
BRANCH  26  27
ATOM     27  C   UNL d   1      27.077 -13.140   3.947  0.00  0.00     0.023 C 
BRANCH  27  28
ATOM     28  C   UNL d   1      27.700 -14.331   4.651  0.00  0.00     0.138 C 
BRANCH  28  29
ATOM     29  N   UNL d   1      28.843 -14.853   3.891  0.00  0.00    -0.227 N 
ATOM     30  C   UNL d   1      30.116 -14.517   4.159  0.00  0.00     0.665 C 
ATOM     31  N   UNL d   1      30.419 -13.676   5.152  0.00  0.00    -0.235 N 
ATOM     32  N   UNL d   1      31.107 -15.026   3.424  0.00  0.00    -0.235 N 
ATOM     33  H   UNL d   1      29.701 -13.271   5.737  0.00  0.00     0.174 HD
ATOM     34  H   UNL d   1      31.374 -13.417   5.360  0.00  0.00     0.174 HD
ATOM     35  H   UNL d   1      30.935 -15.668   2.660  0.00  0.00     0.174 HD
ATOM     36  H   UNL d   1      32.073 -14.784   3.606  0.00  0.00     0.174 HD
ATOM     37  H   UNL d   1      28.677 -15.502   3.130  0.00  0.00     0.177 HD
ENDBRANCH  28  29
ENDBRANCH  27  28
ENDBRANCH  26  27
ENDBRANCH  25  26
BRANCH  25  38
ATOM     38  C   UNL d   1      30.123 -11.187   3.600  0.00  0.00     0.281 C 
ATOM     39  O   UNL d   1      30.515 -11.350   4.750  0.00  0.00    -0.263 OA
BRANCH  38  40
ATOM     40  O   UNL d   1      30.916 -10.765   2.568  0.00  0.00    -0.325 OA
ATOM     41  C   UNL d   1      31.574 -11.837   1.885  0.00  0.00     0.213 C 
ENDBRANCH  38  40
ENDBRANCH  25  38
ENDBRANCH   1  25
TORSDOF 14
ENDMDL
MODEL 9
REMARK VINA RESULT:    -6.913      2.613      4.455
REMARK INTER + INTRA:         -17.039
REMARK INTER:                 -11.089
REMARK INTRA:                  -5.949
REMARK CONF_INDEPENDENT:        4.176
REMARK UNBOUND:                -5.949
REMARK  14 active torsions:
REMARK  status: ('A' for Active; 'I' for Inactive)
REMARK    1  A    between atoms: O_2  and  C_3 
REMARK    2  A    between atoms: C_5  and  C_3 
REMARK    3  A    between atoms: C_5  and  N_13 
REMARK    4  A    between atoms: C_5  and  C_6 
REMARK    5  A    between atoms: C_6  and  C_7 
REMARK    6  A    between atoms: C_7  and  C_8 
REMARK    7  A    between atoms: C_8  and  N_9 
REMARK       I    between atoms: N_9  and  C_10 
REMARK       I    between atoms: C_10  and  N_11 
REMARK       I    between atoms: N_13  and  C_14 
REMARK    8  A    between atoms: C_16  and  C_14 
REMARK    9  A    between atoms: C_16  and  N_24 
REMARK   10  A    between atoms: C_16  and  C_17 
REMARK   11  A    between atoms: C_17  and  C_18 
REMARK       I    between atoms: N_24  and  C_25 
REMARK   12  A    between atoms: C_25  and  O_27 
REMARK   13  A    between atoms: O_27  and  C_28 
REMARK   14  A    between atoms: C_28  and  C_29 
ROOT
ATOM      1  N   UNL d   1      27.978 -14.612  -3.779  0.00  0.00    -0.345 N 
ATOM      2  C   UNL d   1      26.903 -15.069  -4.522  0.00  0.00     0.241 C 
ATOM      3  O   UNL d   1      27.066 -15.565  -5.635  0.00  0.00    -0.271 OA
ATOM      4  H   UNL d   1      27.782 -13.985  -2.997  0.00  0.00     0.163 HD
ENDROOT
BRANCH   2   5
ATOM      5  C   UNL d   1      25.518 -14.852  -3.869  0.00  0.00     0.183 C 
BRANCH   5   6
ATOM      6  N   UNL d   1      25.650 -14.889  -2.411  0.00  0.00    -0.323 N 
ATOM      7  C   UNL d   1      26.392 -15.854  -1.789  0.00  0.00     0.361 C 
ATOM      8  O   UNL d   1      27.057 -16.702  -2.386  0.00  0.00    -0.238 OA
ATOM      9  H   UNL d   1      25.037 -14.330  -1.830  0.00  0.00     0.165 HD
BRANCH   7  10
ATOM     10  O   UNL d   1      26.325 -15.735  -0.445  0.00  0.00    -0.299 OA
BRANCH  10  11
ATOM     11  C   UNL d   1      26.029 -16.973   0.226  0.00  0.00     0.219 C 
BRANCH  11  12
ATOM     12  C   UNL d   1      24.630 -17.459  -0.083  0.00  0.00    -0.034 A 
ATOM     13  C   UNL d   1      24.336 -18.828  -0.144  0.00  0.00     0.009 A 
ATOM     14  C   UNL d   1      23.087 -19.268  -0.583  0.00  0.00     0.001 A 
ATOM     15  C   UNL d   1      22.088 -18.348  -0.891  0.00  0.00     0.000 A 
ATOM     16  C   UNL d   1      22.357 -16.984  -0.818  0.00  0.00     0.001 A 
ATOM     17  C   UNL d   1      23.626 -16.540  -0.432  0.00  0.00     0.009 A 
ENDBRANCH  11  12
ENDBRANCH  10  11
ENDBRANCH   7  10
ENDBRANCH   5   6
BRANCH   5  18
ATOM     18  C   UNL d   1      24.900 -13.529  -4.397  0.00  0.00     0.073 C 
BRANCH  18  19
ATOM     19  C   UNL d   1      25.786 -12.293  -4.386  0.00  0.00    -0.056 A 
ATOM     20  C   UNL d   1      26.499 -11.844  -5.505  0.00  0.00     0.007 A 
ATOM     21  C   UNL d   1      27.435 -10.817  -5.401  0.00  0.00     0.001 A 
ATOM     22  C   UNL d   1      27.607 -10.154  -4.195  0.00  0.00     0.000 A 
ATOM     23  C   UNL d   1      26.884 -10.556  -3.075  0.00  0.00     0.001 A 
ATOM     24  C   UNL d   1      25.990 -11.626  -3.164  0.00  0.00     0.007 A 
ENDBRANCH  18  19
ENDBRANCH   5  18
ENDBRANCH   2   5
BRANCH   1  25
ATOM     25  C   UNL d   1      29.326 -14.726  -4.325  0.00  0.00     0.184 C 
BRANCH  25  26
ATOM     26  C   UNL d   1      30.318 -13.862  -3.530  0.00  0.00     0.037 C 
BRANCH  26  27
ATOM     27  C   UNL d   1      29.622 -12.990  -2.481  0.00  0.00     0.023 C 
BRANCH  27  28
ATOM     28  C   UNL d   1      29.579 -13.657  -1.119  0.00  0.00     0.138 C 
BRANCH  28  29
ATOM     29  N   UNL d   1      29.243 -15.082  -1.242  0.00  0.00    -0.227 N 
ATOM     30  C   UNL d   1      29.542 -15.989  -0.298  0.00  0.00     0.665 C 
ATOM     31  N   UNL d   1      30.172 -15.641   0.827  0.00  0.00    -0.235 N 
ATOM     32  N   UNL d   1      29.211 -17.270  -0.478  0.00  0.00    -0.235 N 
ATOM     33  H   UNL d   1      30.437 -14.682   1.007  0.00  0.00     0.174 HD
ATOM     34  H   UNL d   1      30.404 -16.318   1.542  0.00  0.00     0.174 HD
ATOM     35  H   UNL d   1      28.732 -17.589  -1.311  0.00  0.00     0.174 HD
ATOM     36  H   UNL d   1      29.430 -17.972   0.218  0.00  0.00     0.174 HD
ATOM     37  H   UNL d   1      28.757 -15.406  -2.071  0.00  0.00     0.177 HD
ENDBRANCH  28  29
ENDBRANCH  27  28
ENDBRANCH  26  27
ENDBRANCH  25  26
BRANCH  25  38
ATOM     38  C   UNL d   1      29.725 -16.217  -4.250  0.00  0.00     0.281 C 
ATOM     39  O   UNL d   1      29.512 -16.944  -3.287  0.00  0.00    -0.263 OA
BRANCH  38  40
ATOM     40  O   UNL d   1      30.460 -16.584  -5.345  0.00  0.00    -0.325 OA
ATOM     41  C   UNL d   1      30.096 -15.873  -6.533  0.00  0.00     0.213 C 
ENDBRANCH  38  40
ENDBRANCH  25  38
ENDBRANCH   1  25
TORSDOF 14
ENDMDL
