MODEL 1
REMARK VINA RESULT:   -24.151      0.000      0.000
REMARK INTER + INTRA:         -26.941
REMARK INTER:                 -25.941
REMARK INTRA:                  -1.000
REMARK CONF_INDEPENDENT:        1.790
REMARK UNBOUND:                -1.000
REMARK  6 active torsions:
REMARK  status: ('A' for Active; 'I' for Inactive)
REMARK    1  A    between atoms: C_2  and  N_3 
REMARK    2  A    between atoms: C_14  and  C_2 
REMARK    3  A    between atoms: N_3  and  C_4 
REMARK    4  A    between atoms: C_7  and  C_8 
REMARK       I    between atoms: C_8  and  N_9 
REMARK    5  A    between atoms: C_14  and  C_16 
REMARK    6  A    between atoms: C_14  and  O_15 
ROOT
ATOM      1  N   UNL d   1      21.851 -18.241  -0.151  0.00  0.00    -0.269 NA
ATOM      2  H   UNL d   1      21.628 -17.405  -0.690  0.00  0.00     0.129 HD
ENDROOT
BRANCH   1   3
ATOM      3  C   UNL d   1      23.097 -18.919  -0.661  0.00  0.00     0.091 C 
ATOM      4  C   UNL d   1      23.019 -18.957  -2.183  0.00  0.00     0.029 C 
BRANCH   3   5
ATOM      5  C   UNL d   1      24.505 -18.370  -0.168  0.00  0.00     0.168 C 
BRANCH   5   6
ATOM      6  C   UNL d   1      24.965 -17.109  -0.922  0.00  0.00    -0.028 A 
ATOM      7  C   UNL d   1      24.037 -16.268  -1.561  0.00  0.00     0.011 A 
ATOM      8  C   UNL d   1      24.459 -15.214  -2.373  0.00  0.00     0.019 A 
ATOM      9  C   UNL d   1      25.818 -14.996  -2.575  0.00  0.00     0.011 A 
ATOM     10 BR   UNL d   1      26.388 -13.555  -3.654  0.00  0.00    -0.051 Br
ATOM     11  C   UNL d   1      26.760 -15.819  -1.969  0.00  0.00     0.019 A 
ATOM     12  C   UNL d   1      26.335 -16.829  -1.103  0.00  0.00     0.011 A 
ENDBRANCH   5   6
BRANCH   5  13
ATOM     13  O   UNL d   1      24.503 -18.073   1.231  0.00  0.00    -0.389 OA
ATOM     14  H   UNL d   1      23.589 -17.833   1.454  0.00  0.00     0.210 HD
ENDBRANCH   5  13
ENDBRANCH   3   5
ENDBRANCH   1   3
BRANCH   1  15
ATOM     15  C   UNL d   1      20.676 -18.980   0.050  0.00  0.00     0.125 C 
ATOM     16  N   UNL d   1      19.905 -19.197  -1.046  0.00  0.00    -0.246 NA
ATOM     17  C   UNL d   1      18.828 -20.041  -0.926  0.00  0.00     0.135 C 
ATOM     18  C   UNL d   1      18.516 -20.755   0.221  0.00  0.00     0.051 C 
ATOM     19  C   UNL d   1      19.310 -20.530   1.328  0.00  0.00     0.045 C 
ATOM     20  C   UNL d   1      20.291 -19.551   1.281  0.00  0.00     0.075 C 
ATOM     21 CL   UNL d   1      20.692 -18.948   2.856  0.00  0.00    -0.081 Cl
BRANCH  18  22
ATOM     22  C   UNL d   1      17.342 -21.640   0.426  0.00  0.00     0.250 C 
ATOM     23  N   UNL d   1      16.769 -21.695   1.664  0.00  0.00    -0.366 N 
ATOM     24  H   UNL d   1      17.068 -21.181   2.475  0.00  0.00     0.159 HD
ATOM     25  H   UNL d   1      15.984 -22.327   1.763  0.00  0.00     0.159 HD
ATOM     26  O   UNL d   1      16.905 -22.325  -0.480  0.00  0.00    -0.268 OA
ENDBRANCH  18  22
ENDBRANCH   1  15
TORSDOF 6
ENDMDL
MODEL 2
REMARK VINA RESULT:   -22.792      1.732      2.198
REMARK INTER + INTRA:         -25.929
REMARK INTER:                 -24.581
REMARK INTRA:                  -1.348
REMARK CONF_INDEPENDENT:        1.790
REMARK UNBOUND:                -1.348
REMARK  6 active torsions:
REMARK  status: ('A' for Active; 'I' for Inactive)
REMARK    1  A    between atoms: C_2  and  N_3 
REMARK    2  A    between atoms: C_14  and  C_2 
REMARK    3  A    between atoms: N_3  and  C_4 
REMARK    4  A    between atoms: C_7  and  C_8 
REMARK       I    between atoms: C_8  and  N_9 
REMARK    5  A    between atoms: C_14  and  C_16 
REMARK    6  A    between atoms: C_14  and  O_15 
ROOT
ATOM      1  N   UNL d   1      21.687 -17.955  -0.667  0.00  0.00    -0.269 NA
ATOM      2  H   UNL d   1      21.717 -17.888  -1.684  0.00  0.00     0.129 HD
ENDROOT
BRANCH   1   3
ATOM      3  C   UNL d   1      23.058 -18.176  -0.080  0.00  0.00     0.091 C 
ATOM      4  C   UNL d   1      23.733 -19.287  -0.876  0.00  0.00     0.029 C 
BRANCH   3   5
ATOM      5  C   UNL d   1      24.015 -16.917   0.081  0.00  0.00     0.168 C 
BRANCH   5   6
ATOM      6  C   UNL d   1      25.471 -17.201  -0.330  0.00  0.00    -0.028 A 
ATOM      7  C   UNL d   1      26.347 -17.887   0.530  0.00  0.00     0.011 A 
ATOM      8  C   UNL d   1      27.704 -18.011   0.229  0.00  0.00     0.019 A 
ATOM      9  C   UNL d   1      28.212 -17.434  -0.931  0.00  0.00     0.011 A 
ATOM     10 BR   UNL d   1      30.043 -17.625  -1.350  0.00  0.00    -0.051 Br
ATOM     11  C   UNL d   1      27.374 -16.739  -1.795  0.00  0.00     0.019 A 
ATOM     12  C   UNL d   1      26.005 -16.675  -1.525  0.00  0.00     0.011 A 
ENDBRANCH   5   6
BRANCH   5  13
ATOM     13  O   UNL d   1      23.553 -15.793  -0.673  0.00  0.00    -0.389 OA
ATOM     14  H   UNL d   1      22.617 -15.965  -0.867  0.00  0.00     0.210 HD
ENDBRANCH   5  13
ENDBRANCH   3   5
ENDBRANCH   1   3
BRANCH   1  15
ATOM     15  C   UNL d   1      20.618 -18.784  -0.296  0.00  0.00     0.125 C 
ATOM     16  N   UNL d   1      19.721 -19.084  -1.270  0.00  0.00    -0.246 NA
ATOM     17  C   UNL d   1      18.746 -20.011  -0.993  0.00  0.00     0.135 C 
ATOM     18  C   UNL d   1      18.660 -20.728   0.192  0.00  0.00     0.051 C 
ATOM     19  C   UNL d   1      19.580 -20.418   1.173  0.00  0.00     0.045 C 
ATOM     20  C   UNL d   1      20.459 -19.362   0.981  0.00  0.00     0.075 C 
ATOM     21 CL   UNL d   1      21.026 -18.699   2.479  0.00  0.00    -0.081 Cl
BRANCH  18  22
ATOM     22  C   UNL d   1      17.605 -21.702   0.567  0.00  0.00     0.250 C 
ATOM     23  N   UNL d   1      17.018 -21.592   1.794  0.00  0.00    -0.366 N 
ATOM     24  H   UNL d   1      17.230 -20.899   2.491  0.00  0.00     0.159 HD
ATOM     25  H   UNL d   1      16.318 -22.291   2.015  0.00  0.00     0.159 HD
ATOM     26  O   UNL d   1      17.280 -22.599  -0.189  0.00  0.00    -0.268 OA
ENDBRANCH  18  22
ENDBRANCH   1  15
TORSDOF 6
ENDMDL
