MODEL 1
REMARK VINA RESULT:   -24.262      0.000      0.000
REMARK INTER + INTRA:         -24.319
REMARK INTER:                 -26.052
REMARK INTRA:                   1.733
REMARK CONF_INDEPENDENT:        1.790
REMARK UNBOUND:                 1.733
REMARK  6 active torsions:
REMARK  status: ('A' for Active; 'I' for Inactive)
REMARK    1  A    between atoms: C_2  and  N_3 
REMARK    2  A    between atoms: C_14  and  C_2 
REMARK    3  A    between atoms: N_3  and  C_4 
REMARK    4  A    between atoms: C_7  and  C_8 
REMARK       I    between atoms: C_8  and  N_9 
REMARK    5  A    between atoms: C_14  and  C_16 
REMARK    6  A    between atoms: C_14  and  O_15 
ROOT
ATOM      1  N   UNL d   1      21.488 -17.527  -1.466  0.00  0.00    -0.366 N 
ATOM      2  H   UNL d   1      20.915 -16.892  -2.014  0.00  0.00     0.161 HD
ENDROOT
BRANCH   1   3
ATOM      3  C   UNL d   1      20.790 -18.423  -0.674  0.00  0.00     0.145 A 
ATOM      4  N   UNL d   1      19.538 -18.752  -1.049  0.00  0.00    -0.241 NA
ATOM      5  C   UNL d   1      18.829 -19.655  -0.342  0.00  0.00     0.136 A 
ATOM      6  C   UNL d   1      19.322 -20.287   0.777  0.00  0.00     0.051 A 
ATOM      7  C   UNL d   1      20.611 -19.932   1.194  0.00  0.00     0.046 A 
ATOM      8  C   UNL d   1      21.344 -18.985   0.474  0.00  0.00     0.080 A 
ATOM      9 CL   UNL d   1      22.941 -18.571   0.980  0.00  0.00    -0.080 Cl
BRANCH   6  10
ATOM     10  C   UNL d   1      18.541 -21.303   1.516  0.00  0.00     0.250 C 
ATOM     11  N   UNL d   1      17.551 -21.988   0.868  0.00  0.00    -0.366 N 
ATOM     12  H   UNL d   1      17.283 -21.887  -0.100  0.00  0.00     0.159 HD
ATOM     13  H   UNL d   1      17.041 -22.678   1.408  0.00  0.00     0.159 HD
ATOM     14  O   UNL d   1      18.782 -21.534   2.700  0.00  0.00    -0.268 OA
ENDBRANCH   6  10
ENDBRANCH   1   3
BRANCH   1  15
ATOM     15  C   UNL d   1      22.844 -17.059  -1.125  0.00  0.00     0.112 C 
ATOM     16  C   UNL d   1      23.005 -15.575  -1.447  0.00  0.00     0.035 C 
BRANCH  15  17
ATOM     17  C   UNL d   1      24.026 -17.931  -1.689  0.00  0.00     0.173 C 
BRANCH  17  18
ATOM     18  C   UNL d   1      25.399 -17.412  -1.298  0.00  0.00    -0.028 A 
ATOM     19  C   UNL d   1      25.967 -16.322  -1.974  0.00  0.00     0.011 A 
ATOM     20  C   UNL d   1      27.209 -15.818  -1.594  0.00  0.00     0.019 A 
ATOM     21  C   UNL d   1      27.910 -16.422  -0.555  0.00  0.00     0.011 A 
ATOM     22 BR   UNL d   1      29.591 -15.737  -0.039  0.00  0.00    -0.051 Br
ATOM     23  C   UNL d   1      27.388 -17.531   0.102  0.00  0.00     0.019 A 
ATOM     24  C   UNL d   1      26.143 -18.027  -0.275  0.00  0.00     0.011 A 
ENDBRANCH  17  18
BRANCH  17  25
ATOM     25  O   UNL d   1      23.952 -19.304  -1.308  0.00  0.00    -0.389 OA
ATOM     26  H   UNL d   1      23.002 -19.465  -1.164  0.00  0.00     0.210 HD
ENDBRANCH  17  25
ENDBRANCH  15  17
ENDBRANCH   1  15
TORSDOF 6
ENDMDL
MODEL 2
REMARK VINA RESULT:   -24.235      1.889      2.514
REMARK INTER + INTRA:         -25.565
REMARK INTER:                 -26.024
REMARK INTRA:                   0.460
REMARK CONF_INDEPENDENT:        1.790
REMARK UNBOUND:                 0.460
REMARK  6 active torsions:
REMARK  status: ('A' for Active; 'I' for Inactive)
REMARK    1  A    between atoms: C_2  and  N_3 
REMARK    2  A    between atoms: C_14  and  C_2 
REMARK    3  A    between atoms: N_3  and  C_4 
REMARK    4  A    between atoms: C_7  and  C_8 
REMARK       I    between atoms: C_8  and  N_9 
REMARK    5  A    between atoms: C_14  and  C_16 
REMARK    6  A    between atoms: C_14  and  O_15 
ROOT
ATOM      1  N   UNL d   1      21.873 -17.458  -1.553  0.00  0.00    -0.366 N 
ATOM      2  H   UNL d   1      21.620 -16.474  -1.501  0.00  0.00     0.161 HD
ENDROOT
BRANCH   1   3
ATOM      3  C   UNL d   1      21.078 -18.314  -0.809  0.00  0.00     0.145 A 
ATOM      4  N   UNL d   1      19.838 -18.578  -1.264  0.00  0.00    -0.241 NA
ATOM      5  C   UNL d   1      19.038 -19.440  -0.606  0.00  0.00     0.136 A 
ATOM      6  C   UNL d   1      19.424 -20.096   0.542  0.00  0.00     0.051 A 
ATOM      7  C   UNL d   1      20.701 -19.809   1.041  0.00  0.00     0.046 A 
ATOM      8  C   UNL d   1      21.528 -18.902   0.371  0.00  0.00     0.080 A 
ATOM      9 CL   UNL d   1      23.109 -18.573   0.979  0.00  0.00    -0.080 Cl
BRANCH   6  10
ATOM     10  C   UNL d   1      18.545 -21.068   1.228  0.00  0.00     0.250 C 
ATOM     11  N   UNL d   1      17.657 -21.803   0.492  0.00  0.00    -0.366 N 
ATOM     12  H   UNL d   1      17.530 -21.768  -0.508  0.00  0.00     0.159 HD
ATOM     13  H   UNL d   1      17.074 -22.459   0.999  0.00  0.00     0.159 HD
ATOM     14  O   UNL d   1      18.613 -21.217   2.446  0.00  0.00    -0.268 OA
ENDBRANCH   6  10
ENDBRANCH   1   3
BRANCH   1  15
ATOM     15  C   UNL d   1      23.281 -17.757  -1.869  0.00  0.00     0.112 C 
ATOM     16  C   UNL d   1      23.573 -19.246  -1.697  0.00  0.00     0.035 C 
BRANCH  15  17
ATOM     17  C   UNL d   1      24.346 -16.847  -1.153  0.00  0.00     0.173 C 
BRANCH  17  18
ATOM     18  C   UNL d   1      25.131 -15.969  -2.112  0.00  0.00    -0.028 A 
ATOM     19  C   UNL d   1      26.500 -16.191  -2.324  0.00  0.00     0.011 A 
ATOM     20  C   UNL d   1      27.215 -15.414  -3.232  0.00  0.00     0.019 A 
ATOM     21  C   UNL d   1      26.575 -14.381  -3.911  0.00  0.00     0.011 A 
ATOM     22 BR   UNL d   1      27.544 -13.329  -5.142  0.00  0.00    -0.051 Br
ATOM     23  C   UNL d   1      25.230 -14.112  -3.685  0.00  0.00     0.019 A 
ATOM     24  C   UNL d   1      24.516 -14.897  -2.784  0.00  0.00     0.011 A 
ENDBRANCH  17  18
BRANCH  17  25
ATOM     25  O   UNL d   1      23.790 -16.005  -0.144  0.00  0.00    -0.389 OA
ATOM     26  H   UNL d   1      23.120 -15.474  -0.614  0.00  0.00     0.210 HD
ENDBRANCH  17  25
ENDBRANCH  15  17
ENDBRANCH   1  15
TORSDOF 6
ENDMDL
