MODEL 1
REMARK VINA RESULT:   -25.545      0.000      0.000
REMARK INTER + INTRA:         -27.488
REMARK INTER:                 -26.738
REMARK INTRA:                  -0.751
REMARK CONF_INDEPENDENT:        1.193
REMARK UNBOUND:                -0.751
REMARK  4 active torsions:
REMARK  status: ('A' for Active; 'I' for Inactive)
REMARK    1  A    between atoms: C_7  and  S_8 
REMARK    2  A    between atoms: S_8  and  C_9 
REMARK    3  A    between atoms: C_9  and  C_10 
REMARK       I    between atoms: C_10  and  N_12 
REMARK    4  A    between atoms: N_12  and  N_13 
ROOT
ATOM      1  C   UNL d   1      24.265 -16.785  -1.116  0.00  0.00     0.246 C 
ATOM      2  O   UNL d   1      23.499 -15.849  -1.298  0.00  0.00    -0.271 OA
ATOM      3  N   UNL d   1      25.639 -16.750  -1.419  0.00  0.00    -0.256 N 
ATOM      4  H   UNL d   1      26.277 -17.542  -1.410  0.00  0.00     0.191 HD
ENDROOT
BRANCH   1   5
ATOM      5  C   UNL d   1      23.838 -18.119  -0.584  0.00  0.00     0.187 C 
BRANCH   5   6
ATOM      6  S   UNL d   1      22.648 -18.227   0.735  0.00  0.00    -0.080 SA
BRANCH   6   7
ATOM      7  C   UNL d   1      21.111 -18.915   0.205  0.00  0.00     0.211 A 
ATOM      8  N   UNL d   1      20.119 -19.669   0.841  0.00  0.00    -0.122 N 
ATOM      9  C   UNL d   1      19.898 -20.199   2.120  0.00  0.00     0.035 A 
ATOM     10  C   UNL d   1      19.142 -19.898  -0.153  0.00  0.00     0.754 A 
ATOM     11  C   UNL d   1      18.796 -20.893   2.391  0.00  0.00     0.053 A 
ATOM     12  C   UNL d   1      20.794 -20.073   3.263  0.00  0.00     0.069 C 
ATOM     13  C   UNL d   1      17.839 -21.087   1.300  0.00  0.00     0.051 A 
ATOM     14  C   UNL d   1      16.637 -21.896   1.707  0.00  0.00     0.071 C 
ATOM     15  N   UNL d   1      17.992 -20.620   0.096  0.00  0.00    -0.066 NA
ATOM     16  N   UNL d   1      19.533 -19.324  -1.270  0.00  0.00     0.047 NA
ATOM     17  N   UNL d   1      20.745 -18.719  -1.049  0.00  0.00    -0.107 NA
ENDBRANCH   6   7
ENDBRANCH   5   6
ENDBRANCH   1   5
BRANCH   3  18
ATOM     18  N   UNL d   1      26.165 -15.544  -1.852  0.00  0.00    -0.167 N 
ATOM     19  C   UNL d   1      26.815 -14.635  -1.049  0.00  0.00     0.345 A 
ATOM     20  O   UNL d   1      26.966 -14.663   0.154  0.00  0.00    -0.245 OA
ATOM     21  N   UNL d   1      27.257 -13.614  -1.874  0.00  0.00    -0.323 N 
ATOM     22  C   UNL d   1      26.880 -13.821  -3.263  0.00  0.00     0.117 A 
ATOM     23  H   UNL d   1      27.787 -12.829  -1.514  0.00  0.00     0.165 HD
ATOM     24  C   UNL d   1      25.932 -12.733  -3.765  0.00  0.00     0.041 C 
ATOM     25  C   UNL d   1      28.099 -13.986  -4.170  0.00  0.00     0.041 C 
ATOM     26  C   UNL d   1      26.104 -15.134  -3.160  0.00  0.00     0.275 A 
ATOM     27  C   UNL d   1      26.659 -11.407  -3.955  0.00  0.00     0.003 C 
ATOM     28  C   UNL d   1      27.887 -11.563  -4.847  0.00  0.00     0.000 C 
ATOM     29  C   UNL d   1      28.829 -12.656  -4.347  0.00  0.00     0.003 C 
ATOM     30  O   UNL d   1      25.507 -15.674  -4.086  0.00  0.00    -0.268 OA
ENDBRANCH   3  18
TORSDOF 4
ENDMDL
MODEL 2
REMARK VINA RESULT:   -24.659      1.371      1.826
REMARK INTER + INTRA:         -26.677
REMARK INTER:                 -25.852
REMARK INTRA:                  -0.825
REMARK CONF_INDEPENDENT:        1.193
REMARK UNBOUND:                -0.825
REMARK  4 active torsions:
REMARK  status: ('A' for Active; 'I' for Inactive)
REMARK    1  A    between atoms: C_7  and  S_8 
REMARK    2  A    between atoms: S_8  and  C_9 
REMARK    3  A    between atoms: C_9  and  C_10 
REMARK       I    between atoms: C_10  and  N_12 
REMARK    4  A    between atoms: N_12  and  N_13 
ROOT
ATOM      1  C   UNL d   1      24.546 -17.848  -1.177  0.00  0.00     0.246 C 
ATOM      2  O   UNL d   1      24.162 -18.012  -2.326  0.00  0.00    -0.271 OA
ATOM      3  N   UNL d   1      25.568 -16.953  -0.809  0.00  0.00    -0.256 N 
ATOM      4  H   UNL d   1      26.007 -16.885   0.106  0.00  0.00     0.191 HD
ENDROOT
BRANCH   1   5
ATOM      5  C   UNL d   1      24.012 -18.610  -0.003  0.00  0.00     0.187 C 
BRANCH   5   6
ATOM      6  S   UNL d   1      22.562 -18.042   0.858  0.00  0.00    -0.080 SA
BRANCH   6   7
ATOM      7  C   UNL d   1      21.083 -18.807   0.271  0.00  0.00     0.211 A 
ATOM      8  N   UNL d   1      20.094 -19.589   0.875  0.00  0.00    -0.122 N 
ATOM      9  C   UNL d   1      19.832 -20.100   2.154  0.00  0.00     0.035 A 
ATOM     10  C   UNL d   1      19.177 -19.882  -0.160  0.00  0.00     0.754 A 
ATOM     11  C   UNL d   1      18.748 -20.836   2.387  0.00  0.00     0.053 A 
ATOM     12  C   UNL d   1      20.664 -19.912   3.336  0.00  0.00     0.069 C 
ATOM     13  C   UNL d   1      17.855 -21.094   1.256  0.00  0.00     0.051 A 
ATOM     14  C   UNL d   1      16.670 -21.945   1.623  0.00  0.00     0.071 C 
ATOM     15  N   UNL d   1      18.048 -20.647   0.050  0.00  0.00    -0.066 NA
ATOM     16  N   UNL d   1      19.599 -19.315  -1.269  0.00  0.00     0.047 NA
ATOM     17  N   UNL d   1      20.772 -18.654  -1.004  0.00  0.00    -0.107 NA
ENDBRANCH   6   7
ENDBRANCH   5   6
ENDBRANCH   1   5
BRANCH   3  18
ATOM     18  N   UNL d   1      26.092 -16.140  -1.800  0.00  0.00    -0.167 N 
ATOM     19  C   UNL d   1      25.366 -15.240  -2.546  0.00  0.00     0.345 A 
ATOM     20  O   UNL d   1      24.167 -15.054  -2.547  0.00  0.00    -0.245 OA
ATOM     21  N   UNL d   1      26.267 -14.573  -3.360  0.00  0.00    -0.323 N 
ATOM     22  C   UNL d   1      27.630 -15.046  -3.182  0.00  0.00     0.117 A 
ATOM     23  H   UNL d   1      25.971 -13.839  -3.992  0.00  0.00     0.165 HD
ATOM     24  C   UNL d   1      28.182 -15.686  -4.455  0.00  0.00     0.041 C 
ATOM     25  C   UNL d   1      28.550 -13.952  -2.642  0.00  0.00     0.041 C 
ATOM     26  C   UNL d   1      27.423 -16.141  -2.135  0.00  0.00     0.275 A 
ATOM     27  C   UNL d   1      28.476 -14.639  -5.522  0.00  0.00     0.003 C 
ATOM     28  C   UNL d   1      29.383 -13.534  -4.989  0.00  0.00     0.000 C 
ATOM     29  C   UNL d   1      28.832 -12.900  -3.712  0.00  0.00     0.003 C 
ATOM     30  O   UNL d   1      28.297 -16.896  -1.724  0.00  0.00    -0.268 OA
ENDBRANCH   3  18
TORSDOF 4
ENDMDL
MODEL 3
REMARK VINA RESULT:   -24.553      0.878      1.899
REMARK INTER + INTRA:         -26.519
REMARK INTER:                 -25.746
REMARK INTRA:                  -0.773
REMARK CONF_INDEPENDENT:        1.193
REMARK UNBOUND:                -0.773
REMARK  4 active torsions:
REMARK  status: ('A' for Active; 'I' for Inactive)
REMARK    1  A    between atoms: C_7  and  S_8 
REMARK    2  A    between atoms: S_8  and  C_9 
REMARK    3  A    between atoms: C_9  and  C_10 
REMARK       I    between atoms: C_10  and  N_12 
REMARK    4  A    between atoms: N_12  and  N_13 
ROOT
ATOM      1  C   UNL d   1      24.254 -16.794  -1.040  0.00  0.00     0.246 C 
ATOM      2  O   UNL d   1      23.544 -15.799  -1.030  0.00  0.00    -0.271 OA
ATOM      3  N   UNL d   1      25.526 -16.849  -1.641  0.00  0.00    -0.256 N 
ATOM      4  H   UNL d   1      26.086 -17.685  -1.789  0.00  0.00     0.191 HD
ENDROOT
BRANCH   1   5
ATOM      5  C   UNL d   1      23.851 -18.111  -0.450  0.00  0.00     0.187 C 
BRANCH   5   6
ATOM      6  S   UNL d   1      22.611 -18.188   0.823  0.00  0.00    -0.080 SA
BRANCH   6   7
ATOM      7  C   UNL d   1      21.096 -18.891   0.251  0.00  0.00     0.211 A 
ATOM      8  N   UNL d   1      20.091 -19.650   0.860  0.00  0.00    -0.122 N 
ATOM      9  C   UNL d   1      19.835 -20.175   2.135  0.00  0.00     0.035 A 
ATOM     10  C   UNL d   1      19.146 -19.892  -0.162  0.00  0.00     0.754 A 
ATOM     11  C   UNL d   1      18.731 -20.877   2.376  0.00  0.00     0.053 A 
ATOM     12  C   UNL d   1      20.695 -20.036   3.304  0.00  0.00     0.069 C 
ATOM     13  C   UNL d   1      17.809 -21.084   1.258  0.00  0.00     0.051 A 
ATOM     14  C   UNL d   1      16.602 -21.900   1.632  0.00  0.00     0.071 C 
ATOM     15  N   UNL d   1      17.995 -20.622   0.056  0.00  0.00    -0.066 NA
ATOM     16  N   UNL d   1      19.566 -19.320  -1.269  0.00  0.00     0.047 NA
ATOM     17  N   UNL d   1      20.766 -18.704  -1.015  0.00  0.00    -0.107 NA
ENDBRANCH   6   7
ENDBRANCH   5   6
ENDBRANCH   1   5
BRANCH   3  18
ATOM     18  N   UNL d   1      26.038 -15.670  -2.159  0.00  0.00    -0.167 N 
ATOM     19  C   UNL d   1      25.918 -15.269  -3.469  0.00  0.00     0.345 A 
ATOM     20  O   UNL d   1      25.444 -15.878  -4.405  0.00  0.00    -0.245 OA
ATOM     21  N   UNL d   1      26.486 -14.008  -3.557  0.00  0.00    -0.323 N 
ATOM     22  C   UNL d   1      27.025 -13.554  -2.286  0.00  0.00     0.117 A 
ATOM     23  H   UNL d   1      26.500 -13.490  -4.427  0.00  0.00     0.165 HD
ATOM     24  C   UNL d   1      28.539 -13.362  -2.344  0.00  0.00     0.041 C 
ATOM     25  C   UNL d   1      26.307 -12.306  -1.772  0.00  0.00     0.041 C 
ATOM     26  C   UNL d   1      26.718 -14.757  -1.394  0.00  0.00     0.275 A 
ATOM     27  C   UNL d   1      28.914 -12.135  -3.165  0.00  0.00     0.003 C 
ATOM     28  C   UNL d   1      28.191 -10.886  -2.670  0.00  0.00     0.000 C 
ATOM     29  C   UNL d   1      26.677 -11.082  -2.606  0.00  0.00     0.003 C 
ATOM     30  O   UNL d   1      27.071 -14.875  -0.225  0.00  0.00    -0.268 OA
ENDBRANCH   3  18
TORSDOF 4
ENDMDL
MODEL 4
REMARK VINA RESULT:   -24.448      1.750      2.420
REMARK INTER + INTRA:         -26.387
REMARK INTER:                 -25.641
REMARK INTRA:                  -0.747
REMARK CONF_INDEPENDENT:        1.193
REMARK UNBOUND:                -0.747
REMARK  4 active torsions:
REMARK  status: ('A' for Active; 'I' for Inactive)
REMARK    1  A    between atoms: C_7  and  S_8 
REMARK    2  A    between atoms: S_8  and  C_9 
REMARK    3  A    between atoms: C_9  and  C_10 
REMARK       I    between atoms: C_10  and  N_12 
REMARK    4  A    between atoms: N_12  and  N_13 
ROOT
ATOM      1  C   UNL d   1      24.960 -17.512  -0.738  0.00  0.00     0.246 C 
ATOM      2  O   UNL d   1      24.759 -16.694  -1.623  0.00  0.00    -0.271 OA
ATOM      3  N   UNL d   1      26.153 -17.593   0.004  0.00  0.00    -0.256 N 
ATOM      4  H   UNL d   1      26.412 -18.336   0.649  0.00  0.00     0.191 HD
ENDROOT
BRANCH   1   5
ATOM      5  C   UNL d   1      23.979 -18.576  -0.348  0.00  0.00     0.187 C 
BRANCH   5   6
ATOM      6  S   UNL d   1      22.632 -18.202   0.753  0.00  0.00    -0.080 SA
BRANCH   6   7
ATOM      7  C   UNL d   1      21.104 -18.903   0.214  0.00  0.00     0.211 A 
ATOM      8  N   UNL d   1      20.116 -19.667   0.844  0.00  0.00    -0.122 N 
ATOM      9  C   UNL d   1      19.893 -20.200   2.121  0.00  0.00     0.035 A 
ATOM     10  C   UNL d   1      19.145 -19.903  -0.156  0.00  0.00     0.754 A 
ATOM     11  C   UNL d   1      18.796 -20.905   2.385  0.00  0.00     0.053 A 
ATOM     12  C   UNL d   1      20.782 -20.068   3.269  0.00  0.00     0.069 C 
ATOM     13  C   UNL d   1      17.845 -21.106   1.289  0.00  0.00     0.051 A 
ATOM     14  C   UNL d   1      16.649 -21.926   1.688  0.00  0.00     0.071 C 
ATOM     15  N   UNL d   1      18.001 -20.635   0.087  0.00  0.00    -0.066 NA
ATOM     16  N   UNL d   1      19.537 -19.324  -1.270  0.00  0.00     0.047 NA
ATOM     17  N   UNL d   1      20.743 -18.708  -1.042  0.00  0.00    -0.107 NA
ENDBRANCH   6   7
ENDBRANCH   5   6
ENDBRANCH   1   5
BRANCH   3  18
ATOM     18  N   UNL d   1      27.110 -16.616  -0.218  0.00  0.00    -0.167 N 
ATOM     19  C   UNL d   1      28.426 -16.861  -0.534  0.00  0.00     0.345 A 
ATOM     20  O   UNL d   1      29.004 -17.926  -0.587  0.00  0.00    -0.245 OA
ATOM     21  N   UNL d   1      29.022 -15.631  -0.758  0.00  0.00    -0.323 N 
ATOM     22  C   UNL d   1      28.098 -14.525  -0.566  0.00  0.00     0.117 A 
ATOM     23  H   UNL d   1      29.995 -15.551  -1.028  0.00  0.00     0.165 HD
ATOM     24  C   UNL d   1      28.522 -13.621   0.591  0.00  0.00     0.041 C 
ATOM     25  C   UNL d   1      27.869 -13.738  -1.856  0.00  0.00     0.041 C 
ATOM     26  C   UNL d   1      26.829 -15.274  -0.160  0.00  0.00     0.275 A 
ATOM     27  C   UNL d   1      29.747 -12.792   0.229  0.00  0.00     0.003 C 
ATOM     28  C   UNL d   1      29.536 -12.014  -1.067  0.00  0.00     0.000 C 
ATOM     29  C   UNL d   1      29.105 -12.919  -2.220  0.00  0.00     0.003 C 
ATOM     30  O   UNL d   1      25.781 -14.744   0.194  0.00  0.00    -0.268 OA
ENDBRANCH   3  18
TORSDOF 4
ENDMDL
MODEL 5
REMARK VINA RESULT:   -24.318      2.401      3.464
REMARK INTER + INTRA:         -26.229
REMARK INTER:                 -25.511
REMARK INTRA:                  -0.718
REMARK CONF_INDEPENDENT:        1.193
REMARK UNBOUND:                -0.718
REMARK  4 active torsions:
REMARK  status: ('A' for Active; 'I' for Inactive)
REMARK    1  A    between atoms: C_7  and  S_8 
REMARK    2  A    between atoms: S_8  and  C_9 
REMARK    3  A    between atoms: C_9  and  C_10 
REMARK       I    between atoms: C_10  and  N_12 
REMARK    4  A    between atoms: N_12  and  N_13 
ROOT
ATOM      1  C   UNL d   1      26.034 -15.505  -3.262  0.00  0.00     0.246 C 
ATOM      2  O   UNL d   1      25.339 -14.783  -3.963  0.00  0.00    -0.271 OA
ATOM      3  N   UNL d   1      27.437 -15.564  -3.339  0.00  0.00    -0.256 N 
ATOM      4  H   UNL d   1      28.038 -16.242  -2.875  0.00  0.00     0.191 HD
ENDROOT
BRANCH   1   5
ATOM      5  C   UNL d   1      25.482 -16.463  -2.251  0.00  0.00     0.187 C 
BRANCH   5   6
ATOM      6  S   UNL d   1      24.437 -15.883  -0.933  0.00  0.00    -0.080 SA
BRANCH   6   7
ATOM      7  C   UNL d   1      22.789 -16.504  -1.053  0.00  0.00     0.211 A 
ATOM      8  N   UNL d   1      22.191 -17.725  -0.724  0.00  0.00    -0.122 N 
ATOM      9  C   UNL d   1      22.598 -18.952  -0.180  0.00  0.00     0.035 A 
ATOM     10  C   UNL d   1      20.830 -17.570  -1.073  0.00  0.00     0.754 A 
ATOM     11  C   UNL d   1      21.726 -19.939   0.007  0.00  0.00     0.053 A 
ATOM     12  C   UNL d   1      23.953 -19.296   0.229  0.00  0.00     0.069 C 
ATOM     13  C   UNL d   1      20.337 -19.694  -0.387  0.00  0.00     0.051 A 
ATOM     14  C   UNL d   1      19.438 -20.876  -0.148  0.00  0.00     0.071 C 
ATOM     15  N   UNL d   1      19.904 -18.578  -0.897  0.00  0.00    -0.066 NA
ATOM     16  N   UNL d   1      20.655 -16.361  -1.561  0.00  0.00     0.047 NA
ATOM     17  N   UNL d   1      21.861 -15.705  -1.548  0.00  0.00    -0.107 NA
ENDBRANCH   6   7
ENDBRANCH   5   6
ENDBRANCH   1   5
BRANCH   3  18
ATOM     18  N   UNL d   1      28.068 -14.672  -4.191  0.00  0.00    -0.167 N 
ATOM     19  C   UNL d   1      29.029 -13.764  -3.809  0.00  0.00     0.345 A 
ATOM     20  O   UNL d   1      29.429 -13.513  -2.692  0.00  0.00    -0.245 OA
ATOM     21  N   UNL d   1      29.460 -13.126  -4.961  0.00  0.00    -0.323 N 
ATOM     22  C   UNL d   1      28.761 -13.593  -6.147  0.00  0.00     0.117 A 
ATOM     23  H   UNL d   1      30.188 -12.423  -4.939  0.00  0.00     0.165 HD
ATOM     24  C   UNL d   1      27.941 -12.482  -6.800  0.00  0.00     0.041 C 
ATOM     25  C   UNL d   1      29.706 -14.270  -7.140  0.00  0.00     0.041 C 
ATOM     26  C   UNL d   1      27.801 -14.614  -5.536  0.00  0.00     0.275 A 
ATOM     27  C   UNL d   1      28.836 -11.461  -7.490  0.00  0.00     0.003 C 
ATOM     28  C   UNL d   1      29.794 -12.128  -8.473  0.00  0.00     0.000 C 
ATOM     29  C   UNL d   1      30.609 -13.243  -7.819  0.00  0.00     0.003 C 
ATOM     30  O   UNL d   1      26.931 -15.220  -6.152  0.00  0.00    -0.268 OA
ENDBRANCH   3  18
TORSDOF 4
ENDMDL
MODEL 6
REMARK VINA RESULT:   -24.090      2.317      3.747
REMARK INTER + INTRA:         -26.098
REMARK INTER:                 -25.283
REMARK INTRA:                  -0.815
REMARK CONF_INDEPENDENT:        1.193
REMARK UNBOUND:                -0.815
REMARK  4 active torsions:
REMARK  status: ('A' for Active; 'I' for Inactive)
REMARK    1  A    between atoms: C_7  and  S_8 
REMARK    2  A    between atoms: S_8  and  C_9 
REMARK    3  A    between atoms: C_9  and  C_10 
REMARK       I    between atoms: C_10  and  N_12 
REMARK    4  A    between atoms: N_12  and  N_13 
ROOT
ATOM      1  C   UNL d   1      25.632 -15.074  -3.448  0.00  0.00     0.246 C 
ATOM      2  O   UNL d   1      24.767 -14.302  -3.838  0.00  0.00    -0.271 OA
ATOM      3  N   UNL d   1      26.972 -15.036  -3.874  0.00  0.00    -0.256 N 
ATOM      4  H   UNL d   1      27.685 -15.736  -3.682  0.00  0.00     0.191 HD
ENDROOT
BRANCH   1   5
ATOM      5  C   UNL d   1      25.374 -16.200  -2.493  0.00  0.00     0.187 C 
BRANCH   5   6
ATOM      6  S   UNL d   1      24.456 -15.921  -0.995  0.00  0.00    -0.080 SA
BRANCH   6   7
ATOM      7  C   UNL d   1      22.801 -16.528  -1.094  0.00  0.00     0.211 A 
ATOM      8  N   UNL d   1      22.195 -17.742  -0.752  0.00  0.00    -0.122 N 
ATOM      9  C   UNL d   1      22.596 -18.969  -0.205  0.00  0.00     0.035 A 
ATOM     10  C   UNL d   1      20.832 -17.575  -1.087  0.00  0.00     0.754 A 
ATOM     11  C   UNL d   1      21.717 -19.947  -0.003  0.00  0.00     0.053 A 
ATOM     12  C   UNL d   1      23.953 -19.323   0.191  0.00  0.00     0.069 C 
ATOM     13  C   UNL d   1      20.326 -19.691  -0.384  0.00  0.00     0.051 A 
ATOM     14  C   UNL d   1      19.419 -20.863  -0.128  0.00  0.00     0.071 C 
ATOM     15  N   UNL d   1      19.898 -18.574  -0.895  0.00  0.00    -0.066 NA
ATOM     16  N   UNL d   1      20.662 -16.368  -1.580  0.00  0.00     0.047 NA
ATOM     17  N   UNL d   1      21.874 -15.723  -1.584  0.00  0.00    -0.107 NA
ENDBRANCH   6   7
ENDBRANCH   5   6
ENDBRANCH   1   5
BRANCH   3  18
ATOM     18  N   UNL d   1      27.348 -13.993  -4.706  0.00  0.00    -0.167 N 
ATOM     19  C   UNL d   1      27.940 -14.144  -5.939  0.00  0.00     0.345 A 
ATOM     20  O   UNL d   1      28.316 -15.164  -6.476  0.00  0.00    -0.245 OA
ATOM     21  N   UNL d   1      28.075 -12.874  -6.477  0.00  0.00    -0.323 N 
ATOM     22  C   UNL d   1      27.588 -11.838  -5.581  0.00  0.00     0.117 A 
ATOM     23  H   UNL d   1      28.470 -12.726  -7.398  0.00  0.00     0.165 HD
ATOM     24  C   UNL d   1      28.706 -10.897  -5.136  0.00  0.00     0.041 C 
ATOM     25  C   UNL d   1      26.400 -11.080  -6.174  0.00  0.00     0.041 C 
ATOM     26  C   UNL d   1      27.148 -12.676  -4.380  0.00  0.00     0.275 A 
ATOM     27  C   UNL d   1      29.149  -9.983  -6.271  0.00  0.00     0.003 C 
ATOM     28  C   UNL d   1      27.968  -9.232  -6.881  0.00  0.00     0.000 C 
ATOM     29  C   UNL d   1      26.848 -10.175  -7.318  0.00  0.00     0.003 C 
ATOM     30  O   UNL d   1      26.739 -12.221  -3.317  0.00  0.00    -0.268 OA
ENDBRANCH   3  18
TORSDOF 4
ENDMDL
MODEL 7
REMARK VINA RESULT:   -23.493      2.614      3.846
REMARK INTER + INTRA:         -25.486
REMARK INTER:                 -24.686
REMARK INTRA:                  -0.800
REMARK CONF_INDEPENDENT:        1.193
REMARK UNBOUND:                -0.800
REMARK  4 active torsions:
REMARK  status: ('A' for Active; 'I' for Inactive)
REMARK    1  A    between atoms: C_7  and  S_8 
REMARK    2  A    between atoms: S_8  and  C_9 
REMARK    3  A    between atoms: C_9  and  C_10 
REMARK       I    between atoms: C_10  and  N_12 
REMARK    4  A    between atoms: N_12  and  N_13 
ROOT
ATOM      1  C   UNL d   1      25.805 -14.372  -3.250  0.00  0.00     0.246 C 
ATOM      2  O   UNL d   1      25.942 -13.546  -4.142  0.00  0.00    -0.271 OA
ATOM      3  N   UNL d   1      26.762 -15.354  -2.932  0.00  0.00    -0.256 N 
ATOM      4  H   UNL d   1      26.632 -16.136  -2.296  0.00  0.00     0.191 HD
ENDROOT
BRANCH   1   5
ATOM      5  C   UNL d   1      24.578 -14.481  -2.398  0.00  0.00     0.187 C 
BRANCH   5   6
ATOM      6  S   UNL d   1      24.384 -15.838  -1.264  0.00  0.00    -0.080 SA
BRANCH   6   7
ATOM      7  C   UNL d   1      22.739 -16.481  -1.253  0.00  0.00     0.211 A 
ATOM      8  N   UNL d   1      22.187 -17.718  -0.904  0.00  0.00    -0.122 N 
ATOM      9  C   UNL d   1      22.656 -18.950  -0.428  0.00  0.00     0.035 A 
ATOM     10  C   UNL d   1      20.799 -17.574  -1.127  0.00  0.00     0.754 A 
ATOM     11  C   UNL d   1      21.816 -19.955  -0.189  0.00  0.00     0.053 A 
ATOM     12  C   UNL d   1      24.047 -19.285  -0.149  0.00  0.00     0.069 C 
ATOM     13  C   UNL d   1      20.395 -19.720  -0.453  0.00  0.00     0.051 A 
ATOM     14  C   UNL d   1      19.536 -20.920  -0.165  0.00  0.00     0.071 C 
ATOM     15  N   UNL d   1      19.905 -18.599  -0.895  0.00  0.00    -0.066 NA
ATOM     16  N   UNL d   1      20.567 -16.356  -1.568  0.00  0.00     0.047 NA
ATOM     17  N   UNL d   1      21.761 -15.684  -1.645  0.00  0.00    -0.107 NA
ENDBRANCH   6   7
ENDBRANCH   5   6
ENDBRANCH   1   5
BRANCH   3  18
ATOM     18  N   UNL d   1      27.971 -15.309  -3.607  0.00  0.00    -0.167 N 
ATOM     19  C   UNL d   1      29.206 -15.233  -3.005  0.00  0.00     0.345 A 
ATOM     20  O   UNL d   1      29.465 -15.104  -1.828  0.00  0.00    -0.245 OA
ATOM     21  N   UNL d   1      30.150 -15.295  -4.017  0.00  0.00    -0.323 N 
ATOM     22  C   UNL d   1      29.545 -15.390  -5.335  0.00  0.00     0.117 A 
ATOM     23  H   UNL d   1      31.144 -15.278  -3.820  0.00  0.00     0.165 HD
ATOM     24  C   UNL d   1      29.869 -14.174  -6.201  0.00  0.00     0.041 C 
ATOM     25  C   UNL d   1      29.896 -16.704  -6.034  0.00  0.00     0.041 C 
ATOM     26  C   UNL d   1      28.059 -15.352  -4.976  0.00  0.00     0.275 A 
ATOM     27  C   UNL d   1      31.323 -14.184  -6.653  0.00  0.00     0.003 C 
ATOM     28  C   UNL d   1      31.689 -15.498  -7.339  0.00  0.00     0.000 C 
ATOM     29  C   UNL d   1      31.358 -16.713  -6.474  0.00  0.00     0.003 C 
ATOM     30  O   UNL d   1      27.139 -15.319  -5.786  0.00  0.00    -0.268 OA
ENDBRANCH   3  18
TORSDOF 4
ENDMDL
MODEL 8
REMARK VINA RESULT:   -23.061      2.489      3.754
REMARK INTER + INTRA:         -24.967
REMARK INTER:                 -24.254
REMARK INTRA:                  -0.713
REMARK CONF_INDEPENDENT:        1.193
REMARK UNBOUND:                -0.713
REMARK  4 active torsions:
REMARK  status: ('A' for Active; 'I' for Inactive)
REMARK    1  A    between atoms: C_7  and  S_8 
REMARK    2  A    between atoms: S_8  and  C_9 
REMARK    3  A    between atoms: C_9  and  C_10 
REMARK       I    between atoms: C_10  and  N_12 
REMARK    4  A    between atoms: N_12  and  N_13 
ROOT
ATOM      1  C   UNL d   1      25.056 -14.079  -3.238  0.00  0.00     0.246 C 
ATOM      2  O   UNL d   1      24.050 -13.488  -3.606  0.00  0.00    -0.271 OA
ATOM      3  N   UNL d   1      26.346 -13.517  -3.246  0.00  0.00    -0.256 N 
ATOM      4  H   UNL d   1      27.219 -14.012  -3.079  0.00  0.00     0.191 HD
ENDROOT
BRANCH   1   5
ATOM      5  C   UNL d   1      25.062 -15.501  -2.767  0.00  0.00     0.187 C 
BRANCH   5   6
ATOM      6  S   UNL d   1      24.454 -15.919  -1.148  0.00  0.00    -0.080 SA
BRANCH   6   7
ATOM      7  C   UNL d   1      22.796 -16.524  -1.184  0.00  0.00     0.211 A 
ATOM      8  N   UNL d   1      22.205 -17.745  -0.839  0.00  0.00    -0.122 N 
ATOM      9  C   UNL d   1      22.630 -18.982  -0.335  0.00  0.00     0.035 A 
ATOM     10  C   UNL d   1      20.828 -17.573  -1.109  0.00  0.00     0.754 A 
ATOM     11  C   UNL d   1      21.761 -19.964  -0.113  0.00  0.00     0.053 A 
ATOM     12  C   UNL d   1      24.003 -19.344  -0.007  0.00  0.00     0.069 C 
ATOM     13  C   UNL d   1      20.354 -19.702  -0.426  0.00  0.00     0.051 A 
ATOM     14  C   UNL d   1      19.459 -20.879  -0.152  0.00  0.00     0.071 C 
ATOM     15  N   UNL d   1      19.904 -18.575  -0.895  0.00  0.00    -0.066 NA
ATOM     16  N   UNL d   1      20.638 -16.356  -1.570  0.00  0.00     0.047 NA
ATOM     17  N   UNL d   1      21.848 -15.711  -1.616  0.00  0.00    -0.107 NA
ENDBRANCH   6   7
ENDBRANCH   5   6
ENDBRANCH   1   5
BRANCH   3  18
ATOM     18  N   UNL d   1      26.459 -12.181  -3.596  0.00  0.00    -0.167 N 
ATOM     19  C   UNL d   1      27.089 -11.220  -2.839  0.00  0.00     0.345 A 
ATOM     20  O   UNL d   1      27.567 -11.325  -1.730  0.00  0.00    -0.245 OA
ATOM     21  N   UNL d   1      27.055 -10.045  -3.573  0.00  0.00    -0.323 N 
ATOM     22  C   UNL d   1      26.366 -10.205  -4.843  0.00  0.00     0.117 A 
ATOM     23  H   UNL d   1      27.479  -9.191  -3.231  0.00  0.00     0.165 HD
ATOM     24  C   UNL d   1      25.104  -9.348  -4.920  0.00  0.00     0.041 C 
ATOM     25  C   UNL d   1      27.296  -9.968  -6.033  0.00  0.00     0.041 C 
ATOM     26  C   UNL d   1      25.953 -11.675  -4.767  0.00  0.00     0.275 A 
ATOM     27  C   UNL d   1      25.443  -7.869  -5.066  0.00  0.00     0.003 C 
ATOM     28  C   UNL d   1      26.383  -7.623  -6.243  0.00  0.00     0.000 C 
ATOM     29  C   UNL d   1      27.641  -8.487  -6.168  0.00  0.00     0.003 C 
ATOM     30  O   UNL d   1      25.258 -12.255  -5.594  0.00  0.00    -0.268 OA
ENDBRANCH   3  18
TORSDOF 4
ENDMDL
MODEL 9
REMARK VINA RESULT:   -23.056      2.525      4.109
REMARK INTER + INTRA:         -24.892
REMARK INTER:                 -24.249
REMARK INTRA:                  -0.643
REMARK CONF_INDEPENDENT:        1.193
REMARK UNBOUND:                -0.643
REMARK  4 active torsions:
REMARK  status: ('A' for Active; 'I' for Inactive)
REMARK    1  A    between atoms: C_7  and  S_8 
REMARK    2  A    between atoms: S_8  and  C_9 
REMARK    3  A    between atoms: C_9  and  C_10 
REMARK       I    between atoms: C_10  and  N_12 
REMARK    4  A    between atoms: N_12  and  N_13 
ROOT
ATOM      1  C   UNL d   1      25.267 -14.202  -3.265  0.00  0.00     0.246 C 
ATOM      2  O   UNL d   1      24.531 -13.674  -4.086  0.00  0.00    -0.271 OA
ATOM      3  N   UNL d   1      26.393 -13.577  -2.698  0.00  0.00    -0.256 N 
ATOM      4  H   UNL d   1      27.103 -14.023  -2.122  0.00  0.00     0.191 HD
ENDROOT
BRANCH   1   5
ATOM      5  C   UNL d   1      25.099 -15.610  -2.780  0.00  0.00     0.187 C 
BRANCH   5   6
ATOM      6  S   UNL d   1      24.459 -15.933  -1.151  0.00  0.00    -0.080 SA
BRANCH   6   7
ATOM      7  C   UNL d   1      22.799 -16.534  -1.184  0.00  0.00     0.211 A 
ATOM      8  N   UNL d   1      22.207 -17.755  -0.844  0.00  0.00    -0.122 N 
ATOM      9  C   UNL d   1      22.630 -18.996  -0.349  0.00  0.00     0.035 A 
ATOM     10  C   UNL d   1      20.830 -17.577  -1.107  0.00  0.00     0.754 A 
ATOM     11  C   UNL d   1      21.759 -19.978  -0.129  0.00  0.00     0.053 A 
ATOM     12  C   UNL d   1      24.004 -19.364  -0.029  0.00  0.00     0.069 C 
ATOM     13  C   UNL d   1      20.352 -19.709  -0.434  0.00  0.00     0.051 A 
ATOM     14  C   UNL d   1      19.455 -20.886  -0.164  0.00  0.00     0.071 C 
ATOM     15  N   UNL d   1      19.904 -18.579  -0.895  0.00  0.00    -0.066 NA
ATOM     16  N   UNL d   1      20.640 -16.357  -1.560  0.00  0.00     0.047 NA
ATOM     17  N   UNL d   1      21.852 -15.715  -1.607  0.00  0.00    -0.107 NA
ENDBRANCH   6   7
ENDBRANCH   5   6
ENDBRANCH   1   5
BRANCH   3  18
ATOM     18  N   UNL d   1      26.612 -12.247  -3.018  0.00  0.00    -0.167 N 
ATOM     19  C   UNL d   1      26.449 -11.701  -4.270  0.00  0.00     0.345 A 
ATOM     20  O   UNL d   1      26.184 -12.265  -5.311  0.00  0.00    -0.245 OA
ATOM     21  N   UNL d   1      26.684 -10.341  -4.150  0.00  0.00    -0.323 N 
ATOM     22  C   UNL d   1      27.038  -9.958  -2.793  0.00  0.00     0.117 A 
ATOM     23  H   UNL d   1      26.602  -9.714  -4.941  0.00  0.00     0.165 HD
ATOM     24  C   UNL d   1      28.457  -9.397  -2.710  0.00  0.00     0.041 C 
ATOM     25  C   UNL d   1      26.008  -9.011  -2.177  0.00  0.00     0.041 C 
ATOM     26  C   UNL d   1      27.009 -11.316  -2.091  0.00  0.00     0.275 A 
ATOM     27  C   UNL d   1      28.543  -8.010  -3.334  0.00  0.00     0.003 C 
ATOM     28  C   UNL d   1      27.509  -7.060  -2.737  0.00  0.00     0.000 C 
ATOM     29  C   UNL d   1      26.092  -7.627  -2.814  0.00  0.00     0.003 C 
ATOM     30  O   UNL d   1      27.331 -11.512  -0.924  0.00  0.00    -0.268 OA
ENDBRANCH   3  18
TORSDOF 4
ENDMDL
