MODEL 1
REMARK VINA RESULT:    -7.982      0.000      0.000
REMARK INTER + INTRA:          -9.978
REMARK INTER:                  -9.473
REMARK INTRA:                  -0.505
REMARK CONF_INDEPENDENT:        1.492
REMARK UNBOUND:                -0.505
REMARK  5 active torsions:
REMARK  status: ('A' for Active; 'I' for Inactive)
REMARK       I    between atoms: C_2  and  N_3 
REMARK       I    between atoms: C_2  and  N_13 
REMARK    1  A    between atoms: N_3  and  C_4 
REMARK    2  A    between atoms: C_4  and  C_5 
REMARK    3  A    between atoms: N_13  and  O_14 
REMARK    4  A    between atoms: O_14  and  C_15 
REMARK    5  A    between atoms: C_15  and  C_16 
ROOT
ATOM      1  O   UNL d   1      25.567 -18.678   0.535  0.00  0.00    -0.245 OA
ATOM      2  C   UNL d   1      24.698 -18.467  -0.313  0.00  0.00     0.340 C 
ATOM      3  N   UNL d   1      24.744 -17.415  -1.179  0.00  0.00    -0.337 N 
ATOM      4  N   UNL d   1      23.633 -19.300  -0.414  0.00  0.00    -0.216 N 
ATOM      5  H   UNL d   1      24.000 -17.349  -1.862  0.00  0.00     0.164 HD
ATOM      6  H   UNL d   1      23.578 -20.081   0.226  0.00  0.00     0.199 HD
ENDROOT
BRANCH   3   7
ATOM      7  C   UNL d   1      25.847 -16.475  -1.151  0.00  0.00     0.163 C 
BRANCH   7   8
ATOM      8  C   UNL d   1      25.869 -15.496  -2.303  0.00  0.00    -0.039 A 
ATOM      9  C   UNL d   1      24.813 -14.577  -2.465  0.00  0.00     0.012 A 
ATOM     10  C   UNL d   1      24.787 -13.696  -3.550  0.00  0.00     0.044 A 
ATOM     11  C   UNL d   1      25.809 -13.733  -4.492  0.00  0.00     0.138 A 
ATOM     12  F   UNL d   1      25.765 -12.878  -5.525  0.00  0.00    -0.204 F 
ATOM     13  C   UNL d   1      26.850 -14.648  -4.364  0.00  0.00     0.073 A 
ATOM     14 CL   UNL d   1      28.109 -14.707  -5.538  0.00  0.00    -0.081 Cl
ATOM     15  C   UNL d   1      26.879 -15.532  -3.280  0.00  0.00     0.035 A 
ENDBRANCH   7   8
ENDBRANCH   3   7
BRANCH   4  16
ATOM     16  O   UNL d   1      22.613 -19.108  -1.363  0.00  0.00    -0.272 OA
BRANCH  16  17
ATOM     17  C   UNL d   1      21.598 -18.236  -0.819  0.00  0.00     0.240 C 
BRANCH  17  18
ATOM     18  C   UNL d   1      20.552 -19.063  -0.113  0.00  0.00    -0.032 A 
ATOM     19  C   UNL d   1      20.660 -19.325   1.260  0.00  0.00     0.009 A 
ATOM     20  C   UNL d   1      19.786 -20.216   1.880  0.00  0.00     0.001 A 
ATOM     21  C   UNL d   1      18.727 -20.767   1.164  0.00  0.00     0.000 A 
ATOM     22  C   UNL d   1      18.558 -20.451  -0.182  0.00  0.00     0.001 A 
ATOM     23  C   UNL d   1      19.467 -19.603  -0.820  0.00  0.00     0.009 A 
ENDBRANCH  17  18
ENDBRANCH  16  17
ENDBRANCH   4  16
TORSDOF 5
ENDMDL
MODEL 2
REMARK VINA RESULT:    -7.975      1.304      2.085
REMARK INTER + INTRA:         -10.032
REMARK INTER:                  -9.467
REMARK INTRA:                  -0.566
REMARK CONF_INDEPENDENT:        1.492
REMARK UNBOUND:                -0.566
REMARK  5 active torsions:
REMARK  status: ('A' for Active; 'I' for Inactive)
REMARK       I    between atoms: C_2  and  N_3 
REMARK       I    between atoms: C_2  and  N_13 
REMARK    1  A    between atoms: N_3  and  C_4 
REMARK    2  A    between atoms: C_4  and  C_5 
REMARK    3  A    between atoms: N_13  and  O_14 
REMARK    4  A    between atoms: O_14  and  C_15 
REMARK    5  A    between atoms: C_15  and  C_16 
ROOT
ATOM      1  O   UNL d   1      24.663 -18.569   0.770  0.00  0.00    -0.245 OA
ATOM      2  C   UNL d   1      23.855 -18.426  -0.149  0.00  0.00     0.340 C 
ATOM      3  N   UNL d   1      23.762 -17.282  -0.886  0.00  0.00    -0.337 N 
ATOM      4  N   UNL d   1      23.003 -19.431  -0.467  0.00  0.00    -0.216 N 
ATOM      5  H   UNL d   1      23.090 -17.275  -1.642  0.00  0.00     0.164 HD
ATOM      6  H   UNL d   1      23.052 -20.284   0.075  0.00  0.00     0.199 HD
ENDROOT
BRANCH   3   7
ATOM      7  C   UNL d   1      24.635 -16.155  -0.625  0.00  0.00     0.163 C 
BRANCH   7   8
ATOM      8  C   UNL d   1      25.721 -15.947  -1.657  0.00  0.00    -0.039 A 
ATOM      9  C   UNL d   1      26.985 -16.544  -1.477  0.00  0.00     0.012 A 
ATOM     10  C   UNL d   1      28.019 -16.325  -2.393  0.00  0.00     0.044 A 
ATOM     11  C   UNL d   1      27.805 -15.497  -3.488  0.00  0.00     0.138 A 
ATOM     12  F   UNL d   1      28.811 -15.301  -4.355  0.00  0.00    -0.204 F 
ATOM     13  C   UNL d   1      26.571 -14.879  -3.673  0.00  0.00     0.073 A 
ATOM     14 CL   UNL d   1      26.309 -13.839  -5.020  0.00  0.00    -0.081 Cl
ATOM     15  C   UNL d   1      25.535 -15.095  -2.759  0.00  0.00     0.035 A 
ENDBRANCH   7   8
ENDBRANCH   3   7
BRANCH   4  16
ATOM     16  O   UNL d   1      22.061 -19.323  -1.506  0.00  0.00    -0.272 OA
BRANCH  16  17
ATOM     17  C   UNL d   1      20.917 -18.568  -1.050  0.00  0.00     0.240 C 
BRANCH  17  18
ATOM     18  C   UNL d   1      20.123 -19.401  -0.074  0.00  0.00    -0.032 A 
ATOM     19  C   UNL d   1      19.046 -20.182  -0.517  0.00  0.00     0.009 A 
ATOM     20  C   UNL d   1      18.214 -20.824   0.399  0.00  0.00     0.001 A 
ATOM     21  C   UNL d   1      18.515 -20.788   1.758  0.00  0.00     0.000 A 
ATOM     22  C   UNL d   1      19.630 -20.083   2.206  0.00  0.00     0.001 A 
ATOM     23  C   UNL d   1      20.432 -19.392   1.295  0.00  0.00     0.009 A 
ENDBRANCH  17  18
ENDBRANCH  16  17
ENDBRANCH   4  16
TORSDOF 5
ENDMDL
MODEL 3
REMARK VINA RESULT:    -6.533      4.884      9.191
REMARK INTER + INTRA:          -8.546
REMARK INTER:                  -8.025
REMARK INTRA:                  -0.521
REMARK CONF_INDEPENDENT:        1.492
REMARK UNBOUND:                -0.521
REMARK  5 active torsions:
REMARK  status: ('A' for Active; 'I' for Inactive)
REMARK       I    between atoms: C_2  and  N_3 
REMARK       I    between atoms: C_2  and  N_13 
REMARK    1  A    between atoms: N_3  and  C_4 
REMARK    2  A    between atoms: C_4  and  C_5 
REMARK    3  A    between atoms: N_13  and  O_14 
REMARK    4  A    between atoms: O_14  and  C_15 
REMARK    5  A    between atoms: C_15  and  C_16 
ROOT
ATOM      1  O   UNL d   1      24.724 -14.449  -4.612  0.00  0.00    -0.245 OA
ATOM      2  C   UNL d   1      25.410 -13.707  -3.907  0.00  0.00     0.340 C 
ATOM      3  N   UNL d   1      26.429 -14.159  -3.122  0.00  0.00    -0.337 N 
ATOM      4  N   UNL d   1      25.165 -12.374  -3.887  0.00  0.00    -0.216 N 
ATOM      5  H   UNL d   1      26.956 -13.465  -2.608  0.00  0.00     0.164 HD
ATOM      6  H   UNL d   1      24.406 -12.021  -4.457  0.00  0.00     0.199 HD
ENDROOT
BRANCH   3   7
ATOM      7  C   UNL d   1      26.770 -15.567  -3.083  0.00  0.00     0.163 C 
BRANCH   7   8
ATOM      8  C   UNL d   1      26.163 -16.331  -1.928  0.00  0.00    -0.039 A 
ATOM      9  C   UNL d   1      26.989 -16.813  -0.894  0.00  0.00     0.012 A 
ATOM     10  C   UNL d   1      26.457 -17.565   0.160  0.00  0.00     0.044 A 
ATOM     11  C   UNL d   1      25.098 -17.853   0.181  0.00  0.00     0.138 A 
ATOM     12  F   UNL d   1      24.608 -18.575   1.201  0.00  0.00    -0.204 F 
ATOM     13  C   UNL d   1      24.267 -17.405  -0.842  0.00  0.00     0.073 A 
ATOM     14 CL   UNL d   1      22.585 -17.776  -0.826  0.00  0.00    -0.081 Cl
ATOM     15  C   UNL d   1      24.796 -16.655  -1.898  0.00  0.00     0.035 A 
ENDBRANCH   7   8
ENDBRANCH   3   7
BRANCH   4  16
ATOM     16  O   UNL d   1      25.916 -11.480  -3.103  0.00  0.00    -0.272 OA
BRANCH  16  17
ATOM     17  C   UNL d   1      26.658 -10.584  -3.959  0.00  0.00     0.240 C 
BRANCH  17  18
ATOM     18  C   UNL d   1      25.759  -9.458  -4.406  0.00  0.00    -0.032 A 
ATOM     19  C   UNL d   1      25.156  -9.489  -5.671  0.00  0.00     0.009 A 
ATOM     20  C   UNL d   1      24.457  -8.382  -6.149  0.00  0.00     0.001 A 
ATOM     21  C   UNL d   1      24.258  -7.276  -5.327  0.00  0.00     0.000 A 
ATOM     22  C   UNL d   1      24.782  -7.263  -4.037  0.00  0.00     0.001 A 
ATOM     23  C   UNL d   1      25.531  -8.349  -3.577  0.00  0.00     0.009 A 
ENDBRANCH  17  18
ENDBRANCH  16  17
ENDBRANCH   4  16
TORSDOF 5
ENDMDL
MODEL 4
REMARK VINA RESULT:    -6.435      4.139      5.789
REMARK INTER + INTRA:          -8.423
REMARK INTER:                  -7.926
REMARK INTRA:                  -0.496
REMARK CONF_INDEPENDENT:        1.492
REMARK UNBOUND:                -0.496
REMARK  5 active torsions:
REMARK  status: ('A' for Active; 'I' for Inactive)
REMARK       I    between atoms: C_2  and  N_3 
REMARK       I    between atoms: C_2  and  N_13 
REMARK    1  A    between atoms: N_3  and  C_4 
REMARK    2  A    between atoms: C_4  and  C_5 
REMARK    3  A    between atoms: N_13  and  O_14 
REMARK    4  A    between atoms: O_14  and  C_15 
REMARK    5  A    between atoms: C_15  and  C_16 
ROOT
ATOM      1  O   UNL d   1      27.043 -15.207  -6.138  0.00  0.00    -0.245 OA
ATOM      2  C   UNL d   1      26.789 -15.030  -4.945  0.00  0.00     0.340 C 
ATOM      3  N   UNL d   1      27.726 -14.639  -4.036  0.00  0.00    -0.337 N 
ATOM      4  N   UNL d   1      25.530 -15.227  -4.483  0.00  0.00    -0.216 N 
ATOM      5  H   UNL d   1      27.411 -14.486  -3.087  0.00  0.00     0.164 HD
ATOM      6  H   UNL d   1      24.823 -15.526  -5.142  0.00  0.00     0.199 HD
ENDROOT
BRANCH   3   7
ATOM      7  C   UNL d   1      29.098 -14.397  -4.437  0.00  0.00     0.163 C 
BRANCH   7   8
ATOM      8  C   UNL d   1      29.747 -15.542  -5.183  0.00  0.00    -0.039 A 
ATOM      9  C   UNL d   1      30.069 -15.398  -6.547  0.00  0.00     0.012 A 
ATOM     10  C   UNL d   1      30.624 -16.459  -7.270  0.00  0.00     0.044 A 
ATOM     11  C   UNL d   1      30.849 -17.677  -6.641  0.00  0.00     0.138 A 
ATOM     12  F   UNL d   1      31.383 -18.681  -7.353  0.00  0.00    -0.204 F 
ATOM     13  C   UNL d   1      30.517 -17.848  -5.300  0.00  0.00     0.073 A 
ATOM     14 CL   UNL d   1      30.780 -19.362  -4.522  0.00  0.00    -0.081 Cl
ATOM     15  C   UNL d   1      29.961 -16.789  -4.574  0.00  0.00     0.035 A 
ENDBRANCH   7   8
ENDBRANCH   3   7
BRANCH   4  16
ATOM     16  O   UNL d   1      25.183 -15.039  -3.132  0.00  0.00    -0.272 OA
BRANCH  16  17
ATOM     17  C   UNL d   1      25.867 -16.013  -2.314  0.00  0.00     0.240 C 
BRANCH  17  18
ATOM     18  C   UNL d   1      24.871 -16.696  -1.409  0.00  0.00    -0.032 A 
ATOM     19  C   UNL d   1      25.229 -17.854  -0.704  0.00  0.00     0.009 A 
ATOM     20  C   UNL d   1      24.269 -18.575   0.005  0.00  0.00     0.001 A 
ATOM     21  C   UNL d   1      22.969 -18.088   0.110  0.00  0.00     0.000 A 
ATOM     22  C   UNL d   1      22.619 -16.895  -0.519  0.00  0.00     0.001 A 
ATOM     23  C   UNL d   1      23.565 -16.201  -1.276  0.00  0.00     0.009 A 
ENDBRANCH  17  18
ENDBRANCH  16  17
ENDBRANCH   4  16
TORSDOF 5
ENDMDL
MODEL 5
REMARK VINA RESULT:    -6.340      5.035      8.911
REMARK INTER + INTRA:          -8.443
REMARK INTER:                  -7.832
REMARK INTRA:                  -0.612
REMARK CONF_INDEPENDENT:        1.492
REMARK UNBOUND:                -0.612
REMARK  5 active torsions:
REMARK  status: ('A' for Active; 'I' for Inactive)
REMARK       I    between atoms: C_2  and  N_3 
REMARK       I    between atoms: C_2  and  N_13 
REMARK    1  A    between atoms: N_3  and  C_4 
REMARK    2  A    between atoms: C_4  and  C_5 
REMARK    3  A    between atoms: N_13  and  O_14 
REMARK    4  A    between atoms: O_14  and  C_15 
REMARK    5  A    between atoms: C_15  and  C_16 
ROOT
ATOM      1  O   UNL d   1      26.526 -15.283  -5.770  0.00  0.00    -0.245 OA
ATOM      2  C   UNL d   1      27.501 -15.205  -5.020  0.00  0.00     0.340 C 
ATOM      3  N   UNL d   1      27.389 -15.015  -3.674  0.00  0.00    -0.337 N 
ATOM      4  N   UNL d   1      28.755 -15.307  -5.523  0.00  0.00    -0.216 N 
ATOM      5  H   UNL d   1      28.247 -15.000  -3.139  0.00  0.00     0.164 HD
ATOM      6  H   UNL d   1      28.857 -15.439  -6.521  0.00  0.00     0.199 HD
ENDROOT
BRANCH   3   7
ATOM      7  C   UNL d   1      26.089 -14.902  -3.044  0.00  0.00     0.163 C 
BRANCH   7   8
ATOM      8  C   UNL d   1      25.866 -15.849  -1.886  0.00  0.00    -0.039 A 
ATOM      9  C   UNL d   1      26.935 -16.173  -1.027  0.00  0.00     0.012 A 
ATOM     10  C   UNL d   1      26.764 -17.084   0.021  0.00  0.00     0.044 A 
ATOM     11  C   UNL d   1      25.529 -17.692   0.210  0.00  0.00     0.138 A 
ATOM     12  F   UNL d   1      25.387 -18.563   1.221  0.00  0.00    -0.204 F 
ATOM     13  C   UNL d   1      24.466 -17.404  -0.641  0.00  0.00     0.073 A 
ATOM     14 CL   UNL d   1      22.938 -18.169  -0.419  0.00  0.00    -0.081 Cl
ATOM     15  C   UNL d   1      24.633 -16.494  -1.690  0.00  0.00     0.035 A 
ENDBRANCH   7   8
ENDBRANCH   3   7
BRANCH   4  16
ATOM     16  O   UNL d   1      29.902 -15.225  -4.714  0.00  0.00    -0.272 OA
BRANCH  16  17
ATOM     17  C   UNL d   1      30.179 -16.516  -4.128  0.00  0.00     0.240 C 
BRANCH  17  18
ATOM     18  C   UNL d   1      30.514 -17.501  -5.220  0.00  0.00    -0.032 A 
ATOM     19  C   UNL d   1      30.925 -17.051  -6.483  0.00  0.00     0.009 A 
ATOM     20  C   UNL d   1      31.081 -17.948  -7.538  0.00  0.00     0.001 A 
ATOM     21  C   UNL d   1      30.939 -19.315  -7.316  0.00  0.00     0.000 A 
ATOM     22  C   UNL d   1      30.611 -19.785  -6.046  0.00  0.00     0.001 A 
ATOM     23  C   UNL d   1      30.399 -18.883  -5.001  0.00  0.00     0.009 A 
ENDBRANCH  17  18
ENDBRANCH  16  17
ENDBRANCH   4  16
TORSDOF 5
ENDMDL
MODEL 6
REMARK VINA RESULT:    -6.295      4.822      8.964
REMARK INTER + INTRA:          -8.507
REMARK INTER:                  -7.786
REMARK INTRA:                  -0.721
REMARK CONF_INDEPENDENT:        1.492
REMARK UNBOUND:                -0.721
REMARK  5 active torsions:
REMARK  status: ('A' for Active; 'I' for Inactive)
REMARK       I    between atoms: C_2  and  N_3 
REMARK       I    between atoms: C_2  and  N_13 
REMARK    1  A    between atoms: N_3  and  C_4 
REMARK    2  A    between atoms: C_4  and  C_5 
REMARK    3  A    between atoms: N_13  and  O_14 
REMARK    4  A    between atoms: O_14  and  C_15 
REMARK    5  A    between atoms: C_15  and  C_16 
ROOT
ATOM      1  O   UNL d   1      24.927 -14.765  -4.531  0.00  0.00    -0.245 OA
ATOM      2  C   UNL d   1      25.523 -13.906  -3.880  0.00  0.00     0.340 C 
ATOM      3  N   UNL d   1      26.546 -14.196  -3.026  0.00  0.00    -0.337 N 
ATOM      4  N   UNL d   1      25.168 -12.602  -3.991  0.00  0.00    -0.216 N 
ATOM      5  H   UNL d   1      26.995 -13.416  -2.564  0.00  0.00     0.164 HD
ATOM      6  H   UNL d   1      24.405 -12.369  -4.613  0.00  0.00     0.199 HD
ENDROOT
BRANCH   3   7
ATOM      7  C   UNL d   1      27.001 -15.560  -2.846  0.00  0.00     0.163 C 
BRANCH   7   8
ATOM      8  C   UNL d   1      26.289 -16.322  -1.750  0.00  0.00    -0.039 A 
ATOM      9  C   UNL d   1      27.030 -17.114  -0.851  0.00  0.00     0.012 A 
ATOM     10  C   UNL d   1      26.390 -17.867   0.139  0.00  0.00     0.044 A 
ATOM     11  C   UNL d   1      25.003 -17.846   0.231  0.00  0.00     0.138 A 
ATOM     12  F   UNL d   1      24.409 -18.575   1.188  0.00  0.00    -0.204 F 
ATOM     13  C   UNL d   1      24.251 -17.088  -0.662  0.00  0.00     0.073 A 
ATOM     14 CL   UNL d   1      22.531 -17.074  -0.561  0.00  0.00    -0.081 Cl
ATOM     15  C   UNL d   1      24.887 -16.335  -1.654  0.00  0.00     0.035 A 
ENDBRANCH   7   8
ENDBRANCH   3   7
BRANCH   4  16
ATOM     16  O   UNL d   1      25.813 -11.580  -3.272  0.00  0.00    -0.272 OA
BRANCH  16  17
ATOM     17  C   UNL d   1      26.125 -10.482  -4.157  0.00  0.00     0.240 C 
BRANCH  17  18
ATOM     18  C   UNL d   1      26.652 -11.025  -5.463  0.00  0.00    -0.032 A 
ATOM     19  C   UNL d   1      27.677 -11.981  -5.473  0.00  0.00     0.009 A 
ATOM     20  C   UNL d   1      28.275 -12.365  -6.673  0.00  0.00     0.001 A 
ATOM     21  C   UNL d   1      27.780 -11.884  -7.882  0.00  0.00     0.000 A 
ATOM     22  C   UNL d   1      26.708 -10.995  -7.892  0.00  0.00     0.001 A 
ATOM     23  C   UNL d   1      26.145 -10.566  -6.688  0.00  0.00     0.009 A 
ENDBRANCH  17  18
ENDBRANCH  16  17
ENDBRANCH   4  16
TORSDOF 5
ENDMDL
MODEL 7
REMARK VINA RESULT:    -6.103      4.909      8.541
REMARK INTER + INTRA:          -8.514
REMARK INTER:                  -7.595
REMARK INTRA:                  -0.919
REMARK CONF_INDEPENDENT:        1.492
REMARK UNBOUND:                -0.919
REMARK  5 active torsions:
REMARK  status: ('A' for Active; 'I' for Inactive)
REMARK       I    between atoms: C_2  and  N_3 
REMARK       I    between atoms: C_2  and  N_13 
REMARK    1  A    between atoms: N_3  and  C_4 
REMARK    2  A    between atoms: C_4  and  C_5 
REMARK    3  A    between atoms: N_13  and  O_14 
REMARK    4  A    between atoms: O_14  and  C_15 
REMARK    5  A    between atoms: C_15  and  C_16 
ROOT
ATOM      1  O   UNL d   1      25.528 -15.886  -5.362  0.00  0.00    -0.245 OA
ATOM      2  C   UNL d   1      26.381 -15.043  -5.078  0.00  0.00     0.340 C 
ATOM      3  N   UNL d   1      26.332 -14.288  -3.944  0.00  0.00    -0.337 N 
ATOM      4  N   UNL d   1      27.428 -14.831  -5.912  0.00  0.00    -0.216 N 
ATOM      5  H   UNL d   1      27.100 -13.648  -3.784  0.00  0.00     0.164 HD
ATOM      6  H   UNL d   1      27.477 -15.376  -6.764  0.00  0.00     0.199 HD
ENDROOT
BRANCH   3   7
ATOM      7  C   UNL d   1      25.255 -14.449  -2.988  0.00  0.00     0.163 C 
BRANCH   7   8
ATOM      8  C   UNL d   1      25.455 -15.575  -1.998  0.00  0.00    -0.039 A 
ATOM      9  C   UNL d   1      26.738 -15.831  -1.475  0.00  0.00     0.012 A 
ATOM     10  C   UNL d   1      26.956 -16.896  -0.595  0.00  0.00     0.044 A 
ATOM     11  C   UNL d   1      25.897 -17.725  -0.242  0.00  0.00     0.138 A 
ATOM     12  F   UNL d   1      26.128 -18.741   0.603  0.00  0.00    -0.204 F 
ATOM     13  C   UNL d   1      24.626 -17.504  -0.765  0.00  0.00     0.073 A 
ATOM     14 CL   UNL d   1      23.316 -18.539  -0.342  0.00  0.00    -0.081 Cl
ATOM     15  C   UNL d   1      24.405 -16.439  -1.645  0.00  0.00     0.035 A 
ENDBRANCH   7   8
ENDBRANCH   3   7
BRANCH   4  16
ATOM     16  O   UNL d   1      28.431 -13.883  -5.640  0.00  0.00    -0.272 OA
BRANCH  16  17
ATOM     17  C   UNL d   1      29.695 -14.344  -6.163  0.00  0.00     0.240 C 
BRANCH  17  18
ATOM     18  C   UNL d   1      29.921 -15.775  -5.739  0.00  0.00    -0.032 A 
ATOM     19  C   UNL d   1      29.672 -16.173  -4.419  0.00  0.00     0.009 A 
ATOM     20  C   UNL d   1      30.030 -17.448  -3.985  0.00  0.00     0.001 A 
ATOM     21  C   UNL d   1      30.535 -18.376  -4.892  0.00  0.00     0.000 A 
ATOM     22  C   UNL d   1      30.712 -18.020  -6.227  0.00  0.00     0.001 A 
ATOM     23  C   UNL d   1      30.407 -16.725  -6.651  0.00  0.00     0.009 A 
ENDBRANCH  17  18
ENDBRANCH  16  17
ENDBRANCH   4  16
TORSDOF 5
ENDMDL
MODEL 8
REMARK VINA RESULT:    -6.084      4.902      8.572
REMARK INTER + INTRA:          -8.521
REMARK INTER:                  -7.575
REMARK INTRA:                  -0.945
REMARK CONF_INDEPENDENT:        1.492
REMARK UNBOUND:                -0.945
REMARK  5 active torsions:
REMARK  status: ('A' for Active; 'I' for Inactive)
REMARK       I    between atoms: C_2  and  N_3 
REMARK       I    between atoms: C_2  and  N_13 
REMARK    1  A    between atoms: N_3  and  C_4 
REMARK    2  A    between atoms: C_4  and  C_5 
REMARK    3  A    between atoms: N_13  and  O_14 
REMARK    4  A    between atoms: O_14  and  C_15 
REMARK    5  A    between atoms: C_15  and  C_16 
ROOT
ATOM      1  O   UNL d   1      25.529 -15.948  -5.333  0.00  0.00    -0.245 OA
ATOM      2  C   UNL d   1      26.384 -15.099  -5.077  0.00  0.00     0.340 C 
ATOM      3  N   UNL d   1      26.342 -14.314  -3.963  0.00  0.00    -0.337 N 
ATOM      4  N   UNL d   1      27.427 -14.909  -5.922  0.00  0.00    -0.216 N 
ATOM      5  H   UNL d   1      27.110 -13.670  -3.825  0.00  0.00     0.164 HD
ATOM      6  H   UNL d   1      27.470 -15.477  -6.759  0.00  0.00     0.199 HD
ENDROOT
BRANCH   3   7
ATOM      7  C   UNL d   1      25.270 -14.449  -2.997  0.00  0.00     0.163 C 
BRANCH   7   8
ATOM      8  C   UNL d   1      25.459 -15.570  -1.999  0.00  0.00    -0.039 A 
ATOM      9  C   UNL d   1      26.739 -15.834  -1.473  0.00  0.00     0.012 A 
ATOM     10  C   UNL d   1      26.946 -16.897  -0.587  0.00  0.00     0.044 A 
ATOM     11  C   UNL d   1      25.880 -17.714  -0.231  0.00  0.00     0.138 A 
ATOM     12  F   UNL d   1      26.101 -18.727   0.620  0.00  0.00    -0.204 F 
ATOM     13  C   UNL d   1      24.612 -17.485  -0.757  0.00  0.00     0.073 A 
ATOM     14 CL   UNL d   1      23.292 -18.507  -0.330  0.00  0.00    -0.081 Cl
ATOM     15  C   UNL d   1      24.401 -16.424  -1.644  0.00  0.00     0.035 A 
ENDBRANCH   7   8
ENDBRANCH   3   7
BRANCH   4  16
ATOM     16  O   UNL d   1      28.431 -13.954  -5.681  0.00  0.00    -0.272 OA
BRANCH  16  17
ATOM     17  C   UNL d   1      29.679 -14.403  -6.253  0.00  0.00     0.240 C 
BRANCH  17  18
ATOM     18  C   UNL d   1      30.001 -15.782  -5.734  0.00  0.00    -0.032 A 
ATOM     19  C   UNL d   1      30.456 -16.782  -6.606  0.00  0.00     0.009 A 
ATOM     20  C   UNL d   1      30.602 -18.095  -6.162  0.00  0.00     0.001 A 
ATOM     21  C   UNL d   1      30.405 -18.402  -4.819  0.00  0.00     0.000 A 
ATOM     22  C   UNL d   1      30.032 -17.403  -3.923  0.00  0.00     0.001 A 
ATOM     23  C   UNL d   1      29.830 -16.097  -4.377  0.00  0.00     0.009 A 
ENDBRANCH  17  18
ENDBRANCH  16  17
ENDBRANCH   4  16
TORSDOF 5
ENDMDL
MODEL 9
REMARK VINA RESULT:    -6.047      4.995      8.185
REMARK INTER + INTRA:          -8.530
REMARK INTER:                  -7.538
REMARK INTRA:                  -0.992
REMARK CONF_INDEPENDENT:        1.492
REMARK UNBOUND:                -0.992
REMARK  5 active torsions:
REMARK  status: ('A' for Active; 'I' for Inactive)
REMARK       I    between atoms: C_2  and  N_3 
REMARK       I    between atoms: C_2  and  N_13 
REMARK    1  A    between atoms: N_3  and  C_4 
REMARK    2  A    between atoms: C_4  and  C_5 
REMARK    3  A    between atoms: N_13  and  O_14 
REMARK    4  A    between atoms: O_14  and  C_15 
REMARK    5  A    between atoms: C_15  and  C_16 
ROOT
ATOM      1  O   UNL d   1      25.967 -12.439  -4.277  0.00  0.00    -0.245 OA
ATOM      2  C   UNL d   1      26.247 -13.581  -4.644  0.00  0.00     0.340 C 
ATOM      3  N   UNL d   1      25.747 -14.698  -4.044  0.00  0.00    -0.337 N 
ATOM      4  N   UNL d   1      27.089 -13.771  -5.689  0.00  0.00    -0.216 N 
ATOM      5  H   UNL d   1      26.008 -15.591  -4.442  0.00  0.00     0.164 HD
ATOM      6  H   UNL d   1      27.477 -12.953  -6.142  0.00  0.00     0.199 HD
ENDROOT
BRANCH   3   7
ATOM      7  C   UNL d   1      24.833 -14.596  -2.924  0.00  0.00     0.163 C 
BRANCH   7   8
ATOM      8  C   UNL d   1      25.037 -15.639  -1.846  0.00  0.00    -0.039 A 
ATOM      9  C   UNL d   1      26.293 -15.765  -1.220  0.00  0.00     0.012 A 
ATOM     10  C   UNL d   1      26.519 -16.753  -0.257  0.00  0.00     0.044 A 
ATOM     11  C   UNL d   1      25.499 -17.635   0.078  0.00  0.00     0.138 A 
ATOM     12  F   UNL d   1      25.737 -18.575   1.005  0.00  0.00    -0.204 F 
ATOM     13  C   UNL d   1      24.257 -17.542  -0.545  0.00  0.00     0.073 A 
ATOM     14 CL   UNL d   1      22.995 -18.644  -0.143  0.00  0.00    -0.081 Cl
ATOM     15  C   UNL d   1      24.027 -16.555  -1.509  0.00  0.00     0.035 A 
ENDBRANCH   7   8
ENDBRANCH   3   7
BRANCH   4  16
ATOM     16  O   UNL d   1      27.442 -15.051  -6.151  0.00  0.00    -0.272 OA
BRANCH  16  17
ATOM     17  C   UNL d   1      28.879 -15.199  -6.127  0.00  0.00     0.240 C 
BRANCH  17  18
ATOM     18  C   UNL d   1      29.279 -16.014  -4.922  0.00  0.00    -0.032 A 
ATOM     19  C   UNL d   1      28.880 -15.625  -3.636  0.00  0.00     0.009 A 
ATOM     20  C   UNL d   1      29.378 -16.281  -2.512  0.00  0.00     0.001 A 
ATOM     21  C   UNL d   1      30.189 -17.403  -2.663  0.00  0.00     0.000 A 
ATOM     22  C   UNL d   1      30.528 -17.851  -3.937  0.00  0.00     0.001 A 
ATOM     23  C   UNL d   1      30.076 -17.160  -5.064  0.00  0.00     0.009 A 
ENDBRANCH  17  18
ENDBRANCH  16  17
ENDBRANCH   4  16
TORSDOF 5
ENDMDL
