MODEL 1
REMARK VINA RESULT:   -31.861      0.000      0.000
REMARK INTER + INTRA:         -36.953
REMARK INTER:                 -34.844
REMARK INTRA:                  -2.109
REMARK CONF_INDEPENDENT:        2.983
REMARK UNBOUND:                -2.109
REMARK  10 active torsions:
REMARK  status: ('A' for Active; 'I' for Inactive)
REMARK    1  A    between atoms: C_2  and  C_3 
REMARK    2  A    between atoms: C_3  and  C_4 
REMARK    3  A    between atoms: C_3  and  N_32 
REMARK    4  A    between atoms: C_7  and  S_8 
REMARK    5  A    between atoms: S_8  and  C_9 
REMARK    6  A    between atoms: C_9  and  C_10 
REMARK    7  A    between atoms: C_12  and  C_10 
REMARK    8  A    between atoms: C_12  and  C_15 
REMARK    9  A    between atoms: N_24  and  C_25 
REMARK   10  A    between atoms: C_25  and  C_26 
ROOT
ATOM      1  C   UNL d   1      21.896 -17.923  -1.250  0.00  0.00     0.232 C 
ATOM      2  C   UNL d   1      22.378 -16.785  -0.396  0.00  0.00     0.079 C 
ATOM      3  N   UNL d   1      22.779 -15.892   0.195  0.00  0.00    -0.196 NA
ENDROOT
BRANCH   1   4
ATOM      4  C   UNL d   1      20.898 -18.772  -0.495  0.00  0.00     0.130 A 
ATOM      5  N   UNL d   1      19.905 -19.325  -1.140  0.00  0.00    -0.232 NA
ATOM      6  C   UNL d   1      19.184 -20.008  -0.228  0.00  0.00     0.082 A 
ATOM      7  C   UNL d   1      17.996 -20.669  -0.468  0.00  0.00     0.017 C 
ATOM      8  C   UNL d   1      19.743 -20.014   1.048  0.00  0.00     0.062 A 
ATOM      9  C   UNL d   1      17.333 -21.200   0.618  0.00  0.00     0.044 C 
ATOM     10  C   UNL d   1      17.997 -21.635   1.726  0.00  0.00    -0.015 C 
ATOM     11  C   UNL d   1      19.120 -20.827   2.093  0.00  0.00     0.028 C 
ATOM     12  N   UNL d   1      20.834 -19.139   0.865  0.00  0.00    -0.341 N 
ATOM     13  H   UNL d   1      21.504 -18.850   1.568  0.00  0.00     0.167 HD
ENDBRANCH   1   4
BRANCH   1  14
ATOM     14  C   UNL d   1      23.123 -18.720  -1.657  0.00  0.00     0.161 C 
ATOM     15  O   UNL d   1      23.099 -19.570  -2.541  0.00  0.00    -0.295 OA
BRANCH  14  16
ATOM     16  C   UNL d   1      24.382 -18.385  -0.901  0.00  0.00     0.162 C 
BRANCH  16  17
ATOM     17  S   UNL d   1      25.452 -17.127  -1.651  0.00  0.00    -0.083 SA
BRANCH  17  18
ATOM     18  C   UNL d   1      26.670 -16.603  -0.501  0.00  0.00     0.192 C 
ATOM     19  N   UNL d   1      26.611 -16.861   0.788  0.00  0.00    -0.122 NA
ATOM     20  N   UNL d   1      27.633 -16.191   1.419  0.00  0.00    -0.132 NA
ATOM     21  C   UNL d   1      28.320 -15.523   0.513  0.00  0.00     0.162 C 
ATOM     22  N   UNL d   1      27.801 -15.834  -0.742  0.00  0.00    -0.305 N 
BRANCH  21  23
ATOM     23  C   UNL d   1      29.424 -14.530   0.802  0.00  0.00     0.258 C 
BRANCH  23  24
ATOM     24  C   UNL d   1      29.888 -13.629  -0.333  0.00  0.00     0.037 C 
ATOM     25  C   UNL d   1      28.977 -12.438  -0.548  0.00  0.00     0.007 C 
ENDBRANCH  23  24
BRANCH  23  26
ATOM     26  N   UNL d   1      30.680 -15.127   1.491  0.00  0.00    -0.068 N 
ATOM     27  C   UNL d   1      31.819 -15.356   0.508  0.00  0.00     0.270 C 
ATOM     28  C   UNL d   1      31.192 -14.221   2.525  0.00  0.00     0.270 C 
ATOM     29  H   UNL d   1      30.405 -15.995   1.960  0.00  0.00     0.279 HD
ENDBRANCH  23  26
ENDBRANCH  21  23
BRANCH  22  30
ATOM     30  C   UNL d   1      28.120 -15.356  -2.098  0.00  0.00     0.171 C 
BRANCH  30  31
ATOM     31  C   UNL d   1      27.153 -14.672  -3.019  0.00  0.00    -0.040 C 
ATOM     32  C   UNL d   1      26.853 -15.213  -4.305  0.00  0.00     0.009 C 
ATOM     33  C   UNL d   1      25.619 -14.910  -4.890  0.00  0.00     0.001 C 
ATOM     34  C   UNL d   1      24.785 -13.972  -4.277  0.00  0.00     0.000 C 
ATOM     35  C   UNL d   1      25.187 -13.315  -3.108  0.00  0.00     0.001 C 
ATOM     36  C   UNL d   1      26.400 -13.622  -2.506  0.00  0.00     0.009 C 
ENDBRANCH  30  31
ENDBRANCH  22  30
ENDBRANCH  17  18
ENDBRANCH  16  17
ENDBRANCH  14  16
ENDBRANCH   1  14
TORSDOF 10
ENDMDL
MODEL 2
REMARK VINA RESULT:   -30.928      2.038      3.262
REMARK INTER + INTRA:         -35.802
REMARK INTER:                 -33.911
REMARK INTRA:                  -1.891
REMARK CONF_INDEPENDENT:        2.983
REMARK UNBOUND:                -1.891
REMARK  10 active torsions:
REMARK  status: ('A' for Active; 'I' for Inactive)
REMARK    1  A    between atoms: C_2  and  C_3 
REMARK    2  A    between atoms: C_3  and  C_4 
REMARK    3  A    between atoms: C_3  and  N_32 
REMARK    4  A    between atoms: C_7  and  S_8 
REMARK    5  A    between atoms: S_8  and  C_9 
REMARK    6  A    between atoms: C_9  and  C_10 
REMARK    7  A    between atoms: C_12  and  C_10 
REMARK    8  A    between atoms: C_12  and  C_15 
REMARK    9  A    between atoms: N_24  and  C_25 
REMARK   10  A    between atoms: C_25  and  C_26 
ROOT
ATOM      1  C   UNL d   1      21.914 -17.945  -1.251  0.00  0.00     0.232 C 
ATOM      2  C   UNL d   1      22.128 -16.638  -0.541  0.00  0.00     0.079 C 
ATOM      3  N   UNL d   1      22.331 -15.623  -0.059  0.00  0.00    -0.196 NA
ENDROOT
BRANCH   1   4
ATOM      4  C   UNL d   1      20.904 -18.795  -0.513  0.00  0.00     0.130 A 
ATOM      5  N   UNL d   1      19.905 -19.324  -1.168  0.00  0.00    -0.232 NA
ATOM      6  C   UNL d   1      19.174 -20.015  -0.270  0.00  0.00     0.082 A 
ATOM      7  C   UNL d   1      17.979 -20.656  -0.523  0.00  0.00     0.017 C 
ATOM      8  C   UNL d   1      19.732 -20.050   1.007  0.00  0.00     0.062 A 
ATOM      9  C   UNL d   1      17.308 -21.199   0.554  0.00  0.00     0.044 C 
ATOM     10  C   UNL d   1      17.966 -21.661   1.654  0.00  0.00    -0.015 C 
ATOM     11  C   UNL d   1      19.097 -20.874   2.037  0.00  0.00     0.028 C 
ATOM     12  N   UNL d   1      20.834 -19.185   0.841  0.00  0.00    -0.341 N 
ATOM     13  H   UNL d   1      21.506 -18.917   1.550  0.00  0.00     0.167 HD
ENDBRANCH   1   4
BRANCH   1  14
ATOM     14  C   UNL d   1      23.268 -18.626  -1.342  0.00  0.00     0.161 C 
ATOM     15  O   UNL d   1      23.395 -19.843  -1.423  0.00  0.00    -0.295 OA
BRANCH  14  16
ATOM     16  C   UNL d   1      24.452 -17.694  -1.333  0.00  0.00     0.162 C 
BRANCH  16  17
ATOM     17  S   UNL d   1      25.401 -17.626   0.211  0.00  0.00    -0.083 SA
BRANCH  17  18
ATOM     18  C   UNL d   1      27.053 -17.129  -0.114  0.00  0.00     0.192 C 
ATOM     19  N   UNL d   1      27.980 -17.943  -0.572  0.00  0.00    -0.122 NA
ATOM     20  N   UNL d   1      29.185 -17.279  -0.578  0.00  0.00    -0.132 NA
ATOM     21  C   UNL d   1      28.994 -16.056  -0.124  0.00  0.00     0.162 C 
ATOM     22  N   UNL d   1      27.628 -15.881   0.093  0.00  0.00    -0.305 N 
BRANCH  21  23
ATOM     23  C   UNL d   1      30.082 -15.052   0.183  0.00  0.00     0.258 C 
BRANCH  23  24
ATOM     24  C   UNL d   1      31.210 -14.891  -0.825  0.00  0.00     0.037 C 
ATOM     25  C   UNL d   1      31.815 -13.502  -0.813  0.00  0.00     0.007 C 
ENDBRANCH  23  24
BRANCH  23  26
ATOM     26  N   UNL d   1      30.711 -15.177   1.597  0.00  0.00    -0.068 N 
ATOM     27  C   UNL d   1      31.968 -16.034   1.591  0.00  0.00     0.270 C 
ATOM     28  C   UNL d   1      31.099 -13.862   2.117  0.00  0.00     0.270 C 
ATOM     29  H   UNL d   1      29.999 -15.554   2.230  0.00  0.00     0.279 HD
ENDBRANCH  23  26
ENDBRANCH  21  23
BRANCH  22  30
ATOM     30  C   UNL d   1      26.842 -14.763   0.637  0.00  0.00     0.171 C 
BRANCH  30  31
ATOM     31  C   UNL d   1      27.106 -14.083   1.949  0.00  0.00    -0.040 C 
ATOM     32  C   UNL d   1      27.779 -14.763   3.007  0.00  0.00     0.009 C 
ATOM     33  C   UNL d   1      28.479 -14.005   3.954  0.00  0.00     0.001 C 
ATOM     34  C   UNL d   1      28.373 -12.613   3.927  0.00  0.00     0.000 C 
ATOM     35  C   UNL d   1      27.554 -11.977   2.988  0.00  0.00     0.001 C 
ATOM     36  C   UNL d   1      26.871 -12.715   2.031  0.00  0.00     0.009 C 
ENDBRANCH  30  31
ENDBRANCH  22  30
ENDBRANCH  17  18
ENDBRANCH  16  17
ENDBRANCH  14  16
ENDBRANCH   1  14
TORSDOF 10
ENDMDL
MODEL 3
REMARK VINA RESULT:   -30.808      1.955      4.193
REMARK INTER + INTRA:         -36.120
REMARK INTER:                 -33.791
REMARK INTRA:                  -2.330
REMARK CONF_INDEPENDENT:        2.983
REMARK UNBOUND:                -2.330
REMARK  10 active torsions:
REMARK  status: ('A' for Active; 'I' for Inactive)
REMARK    1  A    between atoms: C_2  and  C_3 
REMARK    2  A    between atoms: C_3  and  C_4 
REMARK    3  A    between atoms: C_3  and  N_32 
REMARK    4  A    between atoms: C_7  and  S_8 
REMARK    5  A    between atoms: S_8  and  C_9 
REMARK    6  A    between atoms: C_9  and  C_10 
REMARK    7  A    between atoms: C_12  and  C_10 
REMARK    8  A    between atoms: C_12  and  C_15 
REMARK    9  A    between atoms: N_24  and  C_25 
REMARK   10  A    between atoms: C_25  and  C_26 
ROOT
ATOM      1  C   UNL d   1      21.842 -17.835  -1.270  0.00  0.00     0.232 C 
ATOM      2  C   UNL d   1      22.162 -16.598  -0.481  0.00  0.00     0.079 C 
ATOM      3  N   UNL d   1      22.441 -15.631   0.060  0.00  0.00    -0.196 NA
ENDROOT
BRANCH   1   4
ATOM      4  C   UNL d   1      20.876 -18.717  -0.511  0.00  0.00     0.130 A 
ATOM      5  N   UNL d   1      19.905 -19.311  -1.153  0.00  0.00    -0.232 NA
ATOM      6  C   UNL d   1      19.209 -20.016  -0.239  0.00  0.00     0.082 A 
ATOM      7  C   UNL d   1      18.048 -20.722  -0.476  0.00  0.00     0.017 C 
ATOM      8  C   UNL d   1      19.766 -19.994   1.038  0.00  0.00     0.062 A 
ATOM      9  C   UNL d   1      17.404 -21.272   0.613  0.00  0.00     0.044 C 
ATOM     10  C   UNL d   1      18.083 -21.675   1.723  0.00  0.00    -0.015 C 
ATOM     11  C   UNL d   1      19.173 -20.823   2.087  0.00  0.00     0.028 C 
ATOM     12  N   UNL d   1      20.824 -19.079   0.851  0.00  0.00    -0.341 N 
ATOM     13  H   UNL d   1      21.481 -18.761   1.553  0.00  0.00     0.167 HD
ENDBRANCH   1   4
BRANCH   1  14
ATOM     14  C   UNL d   1      23.160 -18.541  -1.539  0.00  0.00     0.161 C 
ATOM     15  O   UNL d   1      23.280 -19.422  -2.384  0.00  0.00    -0.295 OA
BRANCH  14  16
ATOM     16  C   UNL d   1      24.317 -18.073  -0.697  0.00  0.00     0.162 C 
BRANCH  16  17
ATOM     17  S   UNL d   1      25.762 -17.451  -1.602  0.00  0.00    -0.083 SA
BRANCH  17  18
ATOM     18  C   UNL d   1      25.474 -15.808  -2.147  0.00  0.00     0.192 C 
ATOM     19  N   UNL d   1      24.374 -15.429  -2.763  0.00  0.00    -0.122 NA
ATOM     20  N   UNL d   1      24.529 -14.127  -3.179  0.00  0.00    -0.132 NA
ATOM     21  C   UNL d   1      25.725 -13.708  -2.815  0.00  0.00     0.162 C 
ATOM     22  N   UNL d   1      26.329 -14.716  -2.065  0.00  0.00    -0.305 N 
BRANCH  21  23
ATOM     23  C   UNL d   1      26.356 -12.393  -3.216  0.00  0.00     0.258 C 
BRANCH  23  24
ATOM     24  C   UNL d   1      26.832 -11.464  -2.109  0.00  0.00     0.037 C 
ATOM     25  C   UNL d   1      28.191 -10.858  -2.395  0.00  0.00     0.007 C 
ENDBRANCH  23  24
BRANCH  23  26
ATOM     26  N   UNL d   1      25.537 -11.555  -4.233  0.00  0.00    -0.068 N 
ATOM     27  C   UNL d   1      25.530 -10.074  -3.882  0.00  0.00     0.270 C 
ATOM     28  C   UNL d   1      26.104 -11.666  -5.582  0.00  0.00     0.270 C 
ATOM     29  H   UNL d   1      24.588 -11.939  -4.273  0.00  0.00     0.279 HD
ENDBRANCH  23  26
ENDBRANCH  21  23
BRANCH  22  30
ATOM     30  C   UNL d   1      27.662 -14.839  -1.453  0.00  0.00     0.171 C 
BRANCH  30  31
ATOM     31  C   UNL d   1      28.022 -14.367  -0.075  0.00  0.00    -0.040 C 
ATOM     32  C   UNL d   1      28.206 -12.981   0.204  0.00  0.00     0.009 C 
ATOM     33  C   UNL d   1      27.998 -12.526   1.511  0.00  0.00     0.001 C 
ATOM     34  C   UNL d   1      27.769 -13.454   2.529  0.00  0.00     0.000 C 
ATOM     35  C   UNL d   1      27.779 -14.827   2.259  0.00  0.00     0.001 C 
ATOM     36  C   UNL d   1      27.963 -15.291   0.963  0.00  0.00     0.009 C 
ENDBRANCH  30  31
ENDBRANCH  22  30
ENDBRANCH  17  18
ENDBRANCH  16  17
ENDBRANCH  14  16
ENDBRANCH   1  14
TORSDOF 10
ENDMDL
MODEL 4
REMARK VINA RESULT:   -30.182      2.084      4.005
REMARK INTER + INTRA:         -35.087
REMARK INTER:                 -33.165
REMARK INTRA:                  -1.922
REMARK CONF_INDEPENDENT:        2.983
REMARK UNBOUND:                -1.922
REMARK  10 active torsions:
REMARK  status: ('A' for Active; 'I' for Inactive)
REMARK    1  A    between atoms: C_2  and  C_3 
REMARK    2  A    between atoms: C_3  and  C_4 
REMARK    3  A    between atoms: C_3  and  N_32 
REMARK    4  A    between atoms: C_7  and  S_8 
REMARK    5  A    between atoms: S_8  and  C_9 
REMARK    6  A    between atoms: C_9  and  C_10 
REMARK    7  A    between atoms: C_12  and  C_10 
REMARK    8  A    between atoms: C_12  and  C_15 
REMARK    9  A    between atoms: N_24  and  C_25 
REMARK   10  A    between atoms: C_25  and  C_26 
ROOT
ATOM      1  C   UNL d   1      21.951 -18.003  -1.268  0.00  0.00     0.232 C 
ATOM      2  C   UNL d   1      22.044 -16.638  -0.649  0.00  0.00     0.079 C 
ATOM      3  N   UNL d   1      22.156 -15.579  -0.235  0.00  0.00    -0.196 NA
ENDROOT
BRANCH   1   4
ATOM      4  C   UNL d   1      20.942 -18.856  -0.533  0.00  0.00     0.130 A 
ATOM      5  N   UNL d   1      19.905 -19.325  -1.175  0.00  0.00    -0.232 NA
ATOM      6  C   UNL d   1      19.185 -20.034  -0.282  0.00  0.00     0.082 A 
ATOM      7  C   UNL d   1      17.962 -20.628  -0.521  0.00  0.00     0.017 C 
ATOM      8  C   UNL d   1      19.784 -20.144   0.971  0.00  0.00     0.062 A 
ATOM      9  C   UNL d   1      17.312 -21.199   0.554  0.00  0.00     0.044 C 
ATOM     10  C   UNL d   1      17.993 -21.730   1.608  0.00  0.00    -0.015 C 
ATOM     11  C   UNL d   1      19.161 -20.995   1.985  0.00  0.00     0.028 C 
ATOM     12  N   UNL d   1      20.906 -19.305   0.804  0.00  0.00    -0.341 N 
ATOM     13  H   UNL d   1      21.610 -19.090   1.499  0.00  0.00     0.167 HD
ENDBRANCH   1   4
BRANCH   1  14
ATOM     14  C   UNL d   1      23.345 -18.606  -1.218  0.00  0.00     0.161 C 
ATOM     15  O   UNL d   1      23.597 -19.645  -0.617  0.00  0.00    -0.295 OA
BRANCH  14  16
ATOM     16  C   UNL d   1      24.399 -17.837  -1.970  0.00  0.00     0.162 C 
BRANCH  16  17
ATOM     17  S   UNL d   1      25.057 -16.365  -1.138  0.00  0.00    -0.083 SA
BRANCH  17  18
ATOM     18  C   UNL d   1      25.079 -15.002  -2.244  0.00  0.00     0.192 C 
ATOM     19  N   UNL d   1      24.145 -14.784  -3.145  0.00  0.00    -0.122 NA
ATOM     20  N   UNL d   1      24.535 -13.727  -3.935  0.00  0.00    -0.132 NA
ATOM     21  C   UNL d   1      25.708 -13.297  -3.515  0.00  0.00     0.162 C 
ATOM     22  N   UNL d   1      26.051 -14.019  -2.373  0.00  0.00    -0.305 N 
BRANCH  21  23
ATOM     23  C   UNL d   1      26.565 -12.259  -4.205  0.00  0.00     0.258 C 
BRANCH  23  24
ATOM     24  C   UNL d   1      25.896 -11.342  -5.218  0.00  0.00     0.037 C 
ATOM     25  C   UNL d   1      26.705 -10.092  -5.502  0.00  0.00     0.007 C 
ENDBRANCH  23  24
BRANCH  23  26
ATOM     26  N   UNL d   1      27.875 -12.803  -4.836  0.00  0.00    -0.068 N 
ATOM     27  C   UNL d   1      29.009 -12.879  -3.825  0.00  0.00     0.270 C 
ATOM     28  C   UNL d   1      27.682 -14.161  -5.355  0.00  0.00     0.270 C 
ATOM     29  H   UNL d   1      28.117 -12.207  -5.633  0.00  0.00     0.279 HD
ENDBRANCH  23  26
ENDBRANCH  21  23
BRANCH  22  30
ATOM     30  C   UNL d   1      27.249 -14.018  -1.517  0.00  0.00     0.171 C 
BRANCH  30  31
ATOM     31  C   UNL d   1      28.121 -15.211  -1.256  0.00  0.00    -0.040 C 
ATOM     32  C   UNL d   1      28.195 -16.287  -2.189  0.00  0.00     0.009 C 
ATOM     33  C   UNL d   1      29.352 -17.074  -2.216  0.00  0.00     0.001 C 
ATOM     34  C   UNL d   1      30.329 -16.885  -1.237  0.00  0.00     0.000 C 
ATOM     35  C   UNL d   1      30.146 -15.945  -0.217  0.00  0.00     0.001 C 
ATOM     36  C   UNL d   1      29.012 -15.143  -0.191  0.00  0.00     0.009 C 
ENDBRANCH  30  31
ENDBRANCH  22  30
ENDBRANCH  17  18
ENDBRANCH  16  17
ENDBRANCH  14  16
ENDBRANCH   1  14
TORSDOF 10
ENDMDL
