MODEL 1
REMARK VINA RESULT:   -11.354      0.000      0.000
REMARK INTER + INTRA:         -14.641
REMARK INTER:                 -12.845
REMARK INTRA:                  -1.796
REMARK CONF_INDEPENDENT:        1.492
REMARK UNBOUND:                -1.796
REMARK  5 active torsions:
REMARK  status: ('A' for Active; 'I' for Inactive)
REMARK    1  A    between atoms: C_8  and  N_9 
REMARK       I    between atoms: N_9  and  C_10 
REMARK       I    between atoms: C_10  and  N_12 
REMARK    2  A    between atoms: N_12  and  C_13 
REMARK    3  A    between atoms: C_15  and  N_16 
REMARK       I    between atoms: N_16  and  C_17 
REMARK    4  A    between atoms: C_17  and  C_19 
REMARK    5  A    between atoms: C_28  and  N_29 
ROOT
ATOM      1  C   UNL d   1      24.704 -15.950  -1.589  0.00  0.00     0.065 C 
ATOM      2  C   UNL d   1      23.658 -16.870  -1.259  0.00  0.00     0.061 C 
ATOM      3  C   UNL d   1      23.907 -17.982  -0.420  0.00  0.00     0.037 C 
ATOM      4  C   UNL d   1      25.230 -18.243  -0.073  0.00  0.00     0.032 C 
ATOM      5  C   UNL d   1      26.269 -17.391  -0.436  0.00  0.00     0.034 C 
ATOM      6  C   UNL d   1      26.051 -16.223  -1.171  0.00  0.00     0.057 C 
ENDROOT
BRANCH   1   7
ATOM      7  N   UNL d   1      24.409 -14.758  -2.395  0.00  0.00    -0.306 N 
ATOM      8  C   UNL d   1      25.213 -14.583  -3.515  0.00  0.00     0.325 C 
ATOM      9  N   UNL d   1      25.225 -13.336  -4.140  0.00  0.00    -0.308 N 
ATOM     10  O   UNL d   1      25.854 -15.563  -3.894  0.00  0.00    -0.247 OA
ATOM     11  H   UNL d   1      24.428 -12.733  -3.972  0.00  0.00     0.170 HD
ATOM     12  H   UNL d   1      23.434 -14.522  -2.511  0.00  0.00     0.170 HD
BRANCH   9  13
ATOM     13  C   UNL d   1      26.237 -12.816  -5.082  0.00  0.00     0.043 A 
ATOM     14  C   UNL d   1      27.143 -13.740  -5.649  0.00  0.00     0.030 A 
ATOM     15  C   UNL d   1      28.109 -13.348  -6.605  0.00  0.00     0.004 A 
ATOM     16  C   UNL d   1      28.155 -12.044  -7.080  0.00  0.00     0.024 A 
ATOM     17  C   UNL d   1      27.265 -11.116  -6.579  0.00  0.00     0.042 A 
ATOM     18  C   UNL d   1      26.350 -11.466  -5.559  0.00  0.00    -0.013 A 
ATOM     19 CL   UNL d   1      27.330  -9.528  -7.286  0.00  0.00    -0.084 Cl
ATOM     20  C   UNL d   1      25.530 -10.344  -5.029  0.00  0.00     0.052 C 
ENDBRANCH   9  13
ENDBRANCH   1   7
BRANCH   6  21
ATOM     21  N   UNL d   1      27.149 -15.403  -1.360  0.00  0.00    -0.379 N 
ATOM     22  C   UNL d   1      27.200 -14.026  -0.921  0.00  0.00     0.123 C 
ATOM     23  C   UNL d   1      27.928 -13.314  -2.044  0.00  0.00     0.021 C 
ATOM     24  C   UNL d   1      28.934 -14.357  -2.534  0.00  0.00     0.021 C 
ATOM     25  C   UNL d   1      28.255 -15.728  -2.270  0.00  0.00     0.123 C 
ENDBRANCH   6  21
BRANCH   3  26
ATOM     26  N   UNL d   1      22.839 -18.775   0.125  0.00  0.00    -0.323 N 
ATOM     27  C   UNL d   1      21.489 -18.581  -0.196  0.00  0.00     0.256 C 
ATOM     28  O   UNL d   1      21.021 -17.685  -0.896  0.00  0.00    -0.267 OA
ATOM     29  H   UNL d   1      23.097 -19.622   0.613  0.00  0.00     0.169 HD
BRANCH  27  30
ATOM     30  C   UNL d   1      20.465 -19.519   0.323  0.00  0.00     0.032 A 
ATOM     31  C   UNL d   1      19.501 -19.994  -0.594  0.00  0.00     0.020 A 
ATOM     32  C   UNL d   1      18.344 -20.629  -0.145  0.00  0.00     0.043 A 
ATOM     33  C   UNL d   1      18.189 -20.856   1.214  0.00  0.00     0.116 A 
ATOM     34  F   UNL d   1      17.099 -21.499   1.652  0.00  0.00    -0.206 F 
ATOM     35  C   UNL d   1      19.148 -20.424   2.131  0.00  0.00     0.043 A 
ATOM     36  C   UNL d   1      20.290 -19.743   1.689  0.00  0.00     0.020 A 
ENDBRANCH  27  30
ENDBRANCH   3  26
TORSDOF 5
ENDMDL
MODEL 2
REMARK VINA RESULT:   -11.013      1.443      2.112
REMARK INTER + INTRA:         -14.468
REMARK INTER:                 -12.505
REMARK INTRA:                  -1.964
REMARK CONF_INDEPENDENT:        1.492
REMARK UNBOUND:                -1.964
REMARK  5 active torsions:
REMARK  status: ('A' for Active; 'I' for Inactive)
REMARK    1  A    between atoms: C_8  and  N_9 
REMARK       I    between atoms: N_9  and  C_10 
REMARK       I    between atoms: C_10  and  N_12 
REMARK    2  A    between atoms: N_12  and  C_13 
REMARK    3  A    between atoms: C_15  and  N_16 
REMARK       I    between atoms: N_16  and  C_17 
REMARK    4  A    between atoms: C_17  and  C_19 
REMARK    5  A    between atoms: C_28  and  N_29 
ROOT
ATOM      1  C   UNL d   1      25.160 -15.705  -1.410  0.00  0.00     0.065 C 
ATOM      2  C   UNL d   1      23.867 -16.276  -1.181  0.00  0.00     0.061 C 
ATOM      3  C   UNL d   1      23.717 -17.444  -0.396  0.00  0.00     0.037 C 
ATOM      4  C   UNL d   1      24.876 -18.108  -0.003  0.00  0.00     0.032 C 
ATOM      5  C   UNL d   1      26.144 -17.598  -0.268  0.00  0.00     0.034 C 
ATOM      6  C   UNL d   1      26.333 -16.391  -0.945  0.00  0.00     0.057 C 
ENDROOT
BRANCH   1   7
ATOM      7  N   UNL d   1      25.288 -14.449  -2.160  0.00  0.00    -0.306 N 
ATOM      8  C   UNL d   1      25.780 -14.575  -3.453  0.00  0.00     0.325 C 
ATOM      9  N   UNL d   1      26.237 -13.432  -4.108  0.00  0.00    -0.308 N 
ATOM     10  O   UNL d   1      25.759 -15.704  -3.944  0.00  0.00    -0.247 OA
ATOM     11  H   UNL d   1      25.894 -12.541  -3.767  0.00  0.00     0.170 HD
ATOM     12  H   UNL d   1      24.550 -13.771  -2.033  0.00  0.00     0.170 HD
BRANCH   9  13
ATOM     13  C   UNL d   1      27.112 -13.370  -5.297  0.00  0.00     0.043 A 
ATOM     14  C   UNL d   1      26.992 -12.245  -6.144  0.00  0.00     0.030 A 
ATOM     15  C   UNL d   1      27.826 -12.068  -7.273  0.00  0.00     0.004 A 
ATOM     16  C   UNL d   1      28.850 -12.963  -7.551  0.00  0.00     0.024 A 
ATOM     17  C   UNL d   1      29.026 -14.058  -6.730  0.00  0.00     0.042 A 
ATOM     18  C   UNL d   1      28.148 -14.301  -5.648  0.00  0.00    -0.013 A 
ATOM     19 CL   UNL d   1      30.382 -15.084  -7.095  0.00  0.00    -0.084 Cl
ATOM     20  C   UNL d   1      28.379 -15.575  -4.916  0.00  0.00     0.052 C 
ENDBRANCH   9  13
ENDBRANCH   1   7
BRANCH   6  21
ATOM     21  N   UNL d   1      27.636 -15.936  -1.036  0.00  0.00    -0.379 N 
ATOM     22  C   UNL d   1      28.027 -14.572  -0.750  0.00  0.00     0.123 C 
ATOM     23  C   UNL d   1      29.070 -14.265  -1.805  0.00  0.00     0.021 C 
ATOM     24  C   UNL d   1      29.785 -15.603  -2.000  0.00  0.00     0.021 C 
ATOM     25  C   UNL d   1      28.710 -16.683  -1.705  0.00  0.00     0.123 C 
ENDBRANCH   6  21
BRANCH   3  26
ATOM     26  N   UNL d   1      22.429 -17.896   0.052  0.00  0.00    -0.323 N 
ATOM     27  C   UNL d   1      21.651 -18.832  -0.644  0.00  0.00     0.256 C 
ATOM     28  O   UNL d   1      21.901 -19.325  -1.742  0.00  0.00    -0.267 OA
ATOM     29  H   UNL d   1      22.164 -17.665   1.000  0.00  0.00     0.169 HD
BRANCH  27  30
ATOM     30  C   UNL d   1      20.386 -19.328  -0.049  0.00  0.00     0.032 A 
ATOM     31  C   UNL d   1      20.387 -19.596   1.338  0.00  0.00     0.020 A 
ATOM     32  C   UNL d   1      19.357 -20.334   1.920  0.00  0.00     0.043 A 
ATOM     33  C   UNL d   1      18.292 -20.737   1.128  0.00  0.00     0.116 A 
ATOM     34  F   UNL d   1      17.280 -21.414   1.686  0.00  0.00    -0.206 F 
ATOM     35  C   UNL d   1      18.259 -20.450  -0.236  0.00  0.00     0.043 A 
ATOM     36  C   UNL d   1      19.314 -19.750  -0.836  0.00  0.00     0.020 A 
ENDBRANCH  27  30
ENDBRANCH   3  26
TORSDOF 5
ENDMDL
MODEL 3
REMARK VINA RESULT:   -10.170      2.879      4.831
REMARK INTER + INTRA:         -13.201
REMARK INTER:                 -11.661
REMARK INTRA:                  -1.539
REMARK CONF_INDEPENDENT:        1.492
REMARK UNBOUND:                -1.539
REMARK  5 active torsions:
REMARK  status: ('A' for Active; 'I' for Inactive)
REMARK    1  A    between atoms: C_8  and  N_9 
REMARK       I    between atoms: N_9  and  C_10 
REMARK       I    between atoms: C_10  and  N_12 
REMARK    2  A    between atoms: N_12  and  C_13 
REMARK    3  A    between atoms: C_15  and  N_16 
REMARK       I    between atoms: N_16  and  C_17 
REMARK    4  A    between atoms: C_17  and  C_19 
REMARK    5  A    between atoms: C_28  and  N_29 
ROOT
ATOM      1  C   UNL d   1      26.270 -17.386  -0.550  0.00  0.00     0.065 C 
ATOM      2  C   UNL d   1      25.210 -18.024   0.169  0.00  0.00     0.061 C 
ATOM      3  C   UNL d   1      23.856 -17.788  -0.170  0.00  0.00     0.037 C 
ATOM      4  C   UNL d   1      23.592 -16.790  -1.105  0.00  0.00     0.032 C 
ATOM      5  C   UNL d   1      24.611 -16.117  -1.771  0.00  0.00     0.034 C 
ATOM      6  C   UNL d   1      25.961 -16.397  -1.545  0.00  0.00     0.057 C 
ENDROOT
BRANCH   1   7
ATOM      7  N   UNL d   1      27.669 -17.704  -0.236  0.00  0.00    -0.306 N 
ATOM      8  C   UNL d   1      28.434 -16.638   0.223  0.00  0.00     0.325 C 
ATOM      9  N   UNL d   1      29.822 -16.767   0.230  0.00  0.00    -0.308 N 
ATOM     10  O   UNL d   1      27.819 -15.646   0.615  0.00  0.00    -0.247 OA
ATOM     11  H   UNL d   1      30.194 -17.710   0.226  0.00  0.00     0.170 HD
ATOM     12  H   UNL d   1      27.840 -18.594   0.211  0.00  0.00     0.170 HD
BRANCH   9  13
ATOM     13  C   UNL d   1      30.822 -15.683   0.318  0.00  0.00     0.043 A 
ATOM     14  C   UNL d   1      31.117 -15.163   1.599  0.00  0.00     0.030 A 
ATOM     15  C   UNL d   1      32.101 -14.165   1.790  0.00  0.00     0.004 A 
ATOM     16  C   UNL d   1      32.871 -13.708   0.729  0.00  0.00     0.024 A 
ATOM     17  C   UNL d   1      32.641 -14.215  -0.534  0.00  0.00     0.042 A 
ATOM     18  C   UNL d   1      31.602 -15.147  -0.762  0.00  0.00    -0.013 A 
ATOM     19 CL   UNL d   1      33.703 -13.656  -1.793  0.00  0.00    -0.084 Cl
ATOM     20  C   UNL d   1      31.388 -15.523  -2.186  0.00  0.00     0.052 C 
ENDBRANCH   9  13
ENDBRANCH   1   7
BRANCH   6  21
ATOM     21  N   UNL d   1      26.868 -15.744  -2.359  0.00  0.00    -0.379 N 
ATOM     22  C   UNL d   1      26.542 -14.564  -3.130  0.00  0.00     0.123 C 
ATOM     23  C   UNL d   1      27.274 -14.773  -4.441  0.00  0.00     0.021 C 
ATOM     24  C   UNL d   1      28.551 -15.504  -4.024  0.00  0.00     0.021 C 
ATOM     25  C   UNL d   1      28.155 -16.324  -2.767  0.00  0.00     0.123 C 
ENDBRANCH   6  21
BRANCH   3  26
ATOM     26  N   UNL d   1      22.790 -18.592   0.361  0.00  0.00    -0.323 N 
ATOM     27  C   UNL d   1      21.486 -18.584  -0.151  0.00  0.00     0.256 C 
ATOM     28  O   UNL d   1      21.049 -17.857  -1.040  0.00  0.00    -0.267 OA
ATOM     29  H   UNL d   1      23.045 -19.324   1.010  0.00  0.00     0.169 HD
BRANCH  27  30
ATOM     30  C   UNL d   1      20.477 -19.531   0.385  0.00  0.00     0.032 A 
ATOM     31  C   UNL d   1      19.547 -20.069  -0.532  0.00  0.00     0.020 A 
ATOM     32  C   UNL d   1      18.399 -20.719  -0.082  0.00  0.00     0.043 A 
ATOM     33  C   UNL d   1      18.222 -20.897   1.282  0.00  0.00     0.116 A 
ATOM     34  F   UNL d   1      17.141 -21.554   1.723  0.00  0.00    -0.206 F 
ATOM     35  C   UNL d   1      19.148 -20.402   2.200  0.00  0.00     0.043 A 
ATOM     36  C   UNL d   1      20.280 -19.706   1.755  0.00  0.00     0.020 A 
ENDBRANCH  27  30
ENDBRANCH   3  26
TORSDOF 5
ENDMDL
MODEL 4
REMARK VINA RESULT:   -10.134      3.218      5.009
REMARK INTER + INTRA:         -13.274
REMARK INTER:                 -11.625
REMARK INTRA:                  -1.649
REMARK CONF_INDEPENDENT:        1.492
REMARK UNBOUND:                -1.649
REMARK  5 active torsions:
REMARK  status: ('A' for Active; 'I' for Inactive)
REMARK    1  A    between atoms: C_8  and  N_9 
REMARK       I    between atoms: N_9  and  C_10 
REMARK       I    between atoms: C_10  and  N_12 
REMARK    2  A    between atoms: N_12  and  C_13 
REMARK    3  A    between atoms: C_15  and  N_16 
REMARK       I    between atoms: N_16  and  C_17 
REMARK    4  A    between atoms: C_17  and  C_19 
REMARK    5  A    between atoms: C_28  and  N_29 
ROOT
ATOM      1  C   UNL d   1      26.162 -17.019  -0.223  0.00  0.00     0.065 C 
ATOM      2  C   UNL d   1      25.029 -17.617   0.418  0.00  0.00     0.061 C 
ATOM      3  C   UNL d   1      23.840 -17.878  -0.304  0.00  0.00     0.037 C 
ATOM      4  C   UNL d   1      23.753 -17.381  -1.602  0.00  0.00     0.032 C 
ATOM      5  C   UNL d   1      24.825 -16.745  -2.221  0.00  0.00     0.034 C 
ATOM      6  C   UNL d   1      26.053 -16.563  -1.580  0.00  0.00     0.057 C 
ENDROOT
BRANCH   1   7
ATOM      7  N   UNL d   1      27.413 -16.828   0.522  0.00  0.00    -0.306 N 
ATOM      8  C   UNL d   1      27.705 -15.514   0.867  0.00  0.00     0.325 C 
ATOM      9  N   UNL d   1      29.003 -15.204   1.274  0.00  0.00    -0.308 N 
ATOM     10  O   UNL d   1      26.778 -14.707   0.806  0.00  0.00    -0.247 OA
ATOM     11  H   UNL d   1      29.570 -15.971   1.618  0.00  0.00     0.170 HD
ATOM     12  H   UNL d   1      27.635 -17.527   1.217  0.00  0.00     0.170 HD
BRANCH   9  13
ATOM     13  C   UNL d   1      29.628 -13.867   1.333  0.00  0.00     0.043 A 
ATOM     14  C   UNL d   1      29.402 -12.988   0.249  0.00  0.00     0.030 A 
ATOM     15  C   UNL d   1      29.910 -11.668   0.240  0.00  0.00     0.004 A 
ATOM     16  C   UNL d   1      30.592 -11.158   1.337  0.00  0.00     0.024 A 
ATOM     17  C   UNL d   1      30.805 -11.971   2.432  0.00  0.00     0.042 A 
ATOM     18  C   UNL d   1      30.384 -13.321   2.425  0.00  0.00    -0.013 A 
ATOM     19 CL   UNL d   1      31.592 -11.233   3.796  0.00  0.00    -0.084 Cl
ATOM     20  C   UNL d   1      30.779 -14.116   3.619  0.00  0.00     0.052 C 
ENDBRANCH   9  13
ENDBRANCH   1   7
BRANCH   6  21
ATOM     21  N   UNL d   1      27.071 -16.027  -2.347  0.00  0.00    -0.379 N 
ATOM     22  C   UNL d   1      26.852 -15.054  -3.395  0.00  0.00     0.123 C 
ATOM     23  C   UNL d   1      27.816 -15.473  -4.487  0.00  0.00     0.021 C 
ATOM     24  C   UNL d   1      29.020 -16.012  -3.712  0.00  0.00     0.021 C 
ATOM     25  C   UNL d   1      28.429 -16.586  -2.397  0.00  0.00     0.123 C 
ENDBRANCH   6  21
BRANCH   3  26
ATOM     26  N   UNL d   1      22.787 -18.692   0.239  0.00  0.00    -0.323 N 
ATOM     27  C   UNL d   1      21.446 -18.585  -0.153  0.00  0.00     0.256 C 
ATOM     28  O   UNL d   1      20.969 -17.756  -0.926  0.00  0.00    -0.267 OA
ATOM     29  H   UNL d   1      23.062 -19.495   0.788  0.00  0.00     0.169 HD
BRANCH  27  30
ATOM     30  C   UNL d   1      20.444 -19.543   0.375  0.00  0.00     0.032 A 
ATOM     31  C   UNL d   1      19.487 -20.043  -0.536  0.00  0.00     0.020 A 
ATOM     32  C   UNL d   1      18.346 -20.701  -0.079  0.00  0.00     0.043 A 
ATOM     33  C   UNL d   1      18.202 -20.925   1.282  0.00  0.00     0.116 A 
ATOM     34  F   UNL d   1      17.128 -21.589   1.728  0.00  0.00    -0.206 F 
ATOM     35  C   UNL d   1      19.156 -20.468   2.193  0.00  0.00     0.043 A 
ATOM     36  C   UNL d   1      20.281 -19.765   1.743  0.00  0.00     0.020 A 
ENDBRANCH  27  30
ENDBRANCH   3  26
TORSDOF 5
ENDMDL
MODEL 5
REMARK VINA RESULT:   -10.101      2.942      4.772
REMARK INTER + INTRA:         -13.410
REMARK INTER:                 -11.593
REMARK INTRA:                  -1.817
REMARK CONF_INDEPENDENT:        1.492
REMARK UNBOUND:                -1.817
REMARK  5 active torsions:
REMARK  status: ('A' for Active; 'I' for Inactive)
REMARK    1  A    between atoms: C_8  and  N_9 
REMARK       I    between atoms: N_9  and  C_10 
REMARK       I    between atoms: C_10  and  N_12 
REMARK    2  A    between atoms: N_12  and  C_13 
REMARK    3  A    between atoms: C_15  and  N_16 
REMARK       I    between atoms: N_16  and  C_17 
REMARK    4  A    between atoms: C_17  and  C_19 
REMARK    5  A    between atoms: C_28  and  N_29 
ROOT
ATOM      1  C   UNL d   1      26.174 -17.049  -0.267  0.00  0.00     0.065 C 
ATOM      2  C   UNL d   1      25.042 -17.641   0.378  0.00  0.00     0.061 C 
ATOM      3  C   UNL d   1      23.856 -17.917  -0.343  0.00  0.00     0.037 C 
ATOM      4  C   UNL d   1      23.770 -17.438  -1.648  0.00  0.00     0.032 C 
ATOM      5  C   UNL d   1      24.842 -16.806  -2.272  0.00  0.00     0.034 C 
ATOM      6  C   UNL d   1      26.067 -16.611  -1.631  0.00  0.00     0.057 C 
ENDROOT
BRANCH   1   7
ATOM      7  N   UNL d   1      27.422 -16.843   0.478  0.00  0.00    -0.306 N 
ATOM      8  C   UNL d   1      27.638 -15.548   0.934  0.00  0.00     0.325 C 
ATOM      9  N   UNL d   1      28.919 -15.192   1.353  0.00  0.00    -0.308 N 
ATOM     10  O   UNL d   1      26.660 -14.800   0.953  0.00  0.00    -0.247 OA
ATOM     11  H   UNL d   1      29.539 -15.948   1.623  0.00  0.00     0.170 HD
ATOM     12  H   UNL d   1      27.699 -17.584   1.107  0.00  0.00     0.170 HD
BRANCH   9  13
ATOM     13  C   UNL d   1      29.460 -13.827   1.521  0.00  0.00     0.043 A 
ATOM     14  C   UNL d   1      30.688 -13.525   0.890  0.00  0.00     0.030 A 
ATOM     15  C   UNL d   1      31.256 -12.231   0.945  0.00  0.00     0.004 A 
ATOM     16  C   UNL d   1      30.588 -11.183   1.564  0.00  0.00     0.024 A 
ATOM     17  C   UNL d   1      29.369 -11.426   2.163  0.00  0.00     0.042 A 
ATOM     18  C   UNL d   1      28.825 -12.731   2.197  0.00  0.00    -0.013 A 
ATOM     19 CL   UNL d   1      28.556 -10.046   2.842  0.00  0.00    -0.084 Cl
ATOM     20  C   UNL d   1      27.565 -12.875   2.974  0.00  0.00     0.052 C 
ENDBRANCH   9  13
ENDBRANCH   1   7
BRANCH   6  21
ATOM     21  N   UNL d   1      27.086 -16.081  -2.403  0.00  0.00    -0.379 N 
ATOM     22  C   UNL d   1      28.449 -16.565  -2.364  0.00  0.00     0.123 C 
ATOM     23  C   UNL d   1      29.284 -15.304  -2.463  0.00  0.00     0.021 C 
ATOM     24  C   UNL d   1      28.456 -14.399  -3.378  0.00  0.00     0.021 C 
ATOM     25  C   UNL d   1      26.980 -14.801  -3.116  0.00  0.00     0.123 C 
ENDBRANCH   6  21
BRANCH   3  26
ATOM     26  N   UNL d   1      22.804 -18.727   0.208  0.00  0.00    -0.323 N 
ATOM     27  C   UNL d   1      21.456 -18.594  -0.150  0.00  0.00     0.256 C 
ATOM     28  O   UNL d   1      20.973 -17.743  -0.894  0.00  0.00    -0.267 OA
ATOM     29  H   UNL d   1      23.080 -19.545   0.734  0.00  0.00     0.169 HD
BRANCH  27  30
ATOM     30  C   UNL d   1      20.453 -19.549   0.382  0.00  0.00     0.032 A 
ATOM     31  C   UNL d   1      19.508 -20.066  -0.531  0.00  0.00     0.020 A 
ATOM     32  C   UNL d   1      18.365 -20.722  -0.076  0.00  0.00     0.043 A 
ATOM     33  C   UNL d   1      18.209 -20.927   1.287  0.00  0.00     0.116 A 
ATOM     34  F   UNL d   1      17.133 -21.590   1.732  0.00  0.00    -0.206 F 
ATOM     35  C   UNL d   1      19.151 -20.453   2.200  0.00  0.00     0.043 A 
ATOM     36  C   UNL d   1      20.277 -19.751   1.751  0.00  0.00     0.020 A 
ENDBRANCH  27  30
ENDBRANCH   3  26
TORSDOF 5
ENDMDL
MODEL 6
REMARK VINA RESULT:    -9.944      3.270      5.187
REMARK INTER + INTRA:         -12.672
REMARK INTER:                 -11.436
REMARK INTRA:                  -1.236
REMARK CONF_INDEPENDENT:        1.492
REMARK UNBOUND:                -1.236
REMARK  5 active torsions:
REMARK  status: ('A' for Active; 'I' for Inactive)
REMARK    1  A    between atoms: C_8  and  N_9 
REMARK       I    between atoms: N_9  and  C_10 
REMARK       I    between atoms: C_10  and  N_12 
REMARK    2  A    between atoms: N_12  and  C_13 
REMARK    3  A    between atoms: C_15  and  N_16 
REMARK       I    between atoms: N_16  and  C_17 
REMARK    4  A    between atoms: C_17  and  C_19 
REMARK    5  A    between atoms: C_28  and  N_29 
ROOT
ATOM      1  C   UNL d   1      26.325 -16.873  -0.370  0.00  0.00     0.065 C 
ATOM      2  C   UNL d   1      25.256 -17.617   0.226  0.00  0.00     0.061 C 
ATOM      3  C   UNL d   1      23.929 -17.490  -0.249  0.00  0.00     0.037 C 
ATOM      4  C   UNL d   1      23.675 -16.497  -1.191  0.00  0.00     0.032 C 
ATOM      5  C   UNL d   1      24.694 -15.722  -1.738  0.00  0.00     0.034 C 
ATOM      6  C   UNL d   1      26.033 -15.891  -1.377  0.00  0.00     0.057 C 
ENDROOT
BRANCH   1   7
ATOM      7  N   UNL d   1      27.707 -17.077   0.083  0.00  0.00    -0.306 N 
ATOM      8  C   UNL d   1      28.608 -17.453  -0.906  0.00  0.00     0.325 C 
ATOM      9  N   UNL d   1      29.841 -17.978  -0.520  0.00  0.00    -0.308 N 
ATOM     10  O   UNL d   1      28.255 -17.274  -2.072  0.00  0.00    -0.247 OA
ATOM     11  H   UNL d   1      30.159 -17.759   0.417  0.00  0.00     0.170 HD
ATOM     12  H   UNL d   1      28.055 -16.428   0.774  0.00  0.00     0.170 HD
BRANCH   9  13
ATOM     13  C   UNL d   1      30.780 -18.762  -1.349  0.00  0.00     0.043 A 
ATOM     14  C   UNL d   1      31.303 -19.955  -0.801  0.00  0.00     0.030 A 
ATOM     15  C   UNL d   1      32.162 -20.802  -1.539  0.00  0.00     0.004 A 
ATOM     16  C   UNL d   1      32.468 -20.528  -2.865  0.00  0.00     0.024 A 
ATOM     17  C   UNL d   1      31.950 -19.392  -3.452  0.00  0.00     0.042 A 
ATOM     18  C   UNL d   1      31.161 -18.485  -2.706  0.00  0.00    -0.013 A 
ATOM     19 CL   UNL d   1      32.309 -19.165  -5.139  0.00  0.00    -0.084 Cl
ATOM     20  C   UNL d   1      30.765 -17.245  -3.426  0.00  0.00     0.052 C 
ENDBRANCH   9  13
ENDBRANCH   1   7
BRANCH   6  21
ATOM     21  N   UNL d   1      26.957 -15.143  -2.083  0.00  0.00    -0.379 N 
ATOM     22  C   UNL d   1      27.911 -14.254  -1.455  0.00  0.00     0.123 C 
ATOM     23  C   UNL d   1      27.959 -13.058  -2.384  0.00  0.00     0.021 C 
ATOM     24  C   UNL d   1      27.768 -13.675  -3.770  0.00  0.00     0.021 C 
ATOM     25  C   UNL d   1      26.891 -14.933  -3.535  0.00  0.00     0.123 C 
ENDBRANCH   6  21
BRANCH   3  26
ATOM     26  N   UNL d   1      22.889 -18.395   0.157  0.00  0.00    -0.323 N 
ATOM     27  C   UNL d   1      21.554 -18.274  -0.252  0.00  0.00     0.256 C 
ATOM     28  O   UNL d   1      21.070 -17.365  -0.923  0.00  0.00    -0.267 OA
ATOM     29  H   UNL d   1      23.175 -19.255   0.605  0.00  0.00     0.169 HD
BRANCH  27  30
ATOM     30  C   UNL d   1      20.570 -19.319   0.122  0.00  0.00     0.032 A 
ATOM     31  C   UNL d   1      19.635 -19.706  -0.864  0.00  0.00     0.020 A 
ATOM     32  C   UNL d   1      18.505 -20.447  -0.520  0.00  0.00     0.043 A 
ATOM     33  C   UNL d   1      18.352 -20.864   0.794  0.00  0.00     0.116 A 
ATOM     34  F   UNL d   1      17.290 -21.608   1.126  0.00  0.00    -0.206 F 
ATOM     35  C   UNL d   1      19.285 -20.520   1.773  0.00  0.00     0.043 A 
ATOM     36  C   UNL d   1      20.397 -19.735   1.442  0.00  0.00     0.020 A 
ENDBRANCH  27  30
ENDBRANCH   3  26
TORSDOF 5
ENDMDL
MODEL 7
REMARK VINA RESULT:    -9.450      1.785      2.633
REMARK INTER + INTRA:         -12.433
REMARK INTER:                 -10.941
REMARK INTRA:                  -1.491
REMARK CONF_INDEPENDENT:        1.492
REMARK UNBOUND:                -1.491
REMARK  5 active torsions:
REMARK  status: ('A' for Active; 'I' for Inactive)
REMARK    1  A    between atoms: C_8  and  N_9 
REMARK       I    between atoms: N_9  and  C_10 
REMARK       I    between atoms: C_10  and  N_12 
REMARK    2  A    between atoms: N_12  and  C_13 
REMARK    3  A    between atoms: C_15  and  N_16 
REMARK       I    between atoms: N_16  and  C_17 
REMARK    4  A    between atoms: C_17  and  C_19 
REMARK    5  A    between atoms: C_28  and  N_29 
ROOT
ATOM      1  C   UNL d   1      26.266 -16.319  -1.631  0.00  0.00     0.065 C 
ATOM      2  C   UNL d   1      24.943 -16.830  -1.434  0.00  0.00     0.061 C 
ATOM      3  C   UNL d   1      24.616 -17.572  -0.275  0.00  0.00     0.037 C 
ATOM      4  C   UNL d   1      25.660 -17.931   0.575  0.00  0.00     0.032 C 
ATOM      5  C   UNL d   1      26.964 -17.492   0.366  0.00  0.00     0.034 C 
ATOM      6  C   UNL d   1      27.309 -16.667  -0.707  0.00  0.00     0.057 C 
ENDROOT
BRANCH   1   7
ATOM      7  N   UNL d   1      26.566 -15.484  -2.802  0.00  0.00    -0.306 N 
ATOM      8  C   UNL d   1      26.721 -14.128  -2.542  0.00  0.00     0.325 C 
ATOM      9  N   UNL d   1      26.680 -13.235  -3.612  0.00  0.00    -0.308 N 
ATOM     10  O   UNL d   1      26.906 -13.808  -1.368  0.00  0.00    -0.247 OA
ATOM     11  H   UNL d   1      26.874 -13.613  -4.532  0.00  0.00     0.170 HD
ATOM     12  H   UNL d   1      27.197 -15.878  -3.486  0.00  0.00     0.170 HD
BRANCH   9  13
ATOM     13  C   UNL d   1      26.458 -11.775  -3.553  0.00  0.00     0.043 A 
ATOM     14  C   UNL d   1      26.726 -11.119  -2.330  0.00  0.00     0.030 A 
ATOM     15  C   UNL d   1      26.599  -9.717  -2.192  0.00  0.00     0.004 A 
ATOM     16  C   UNL d   1      26.274  -8.919  -3.281  0.00  0.00     0.024 A 
ATOM     17  C   UNL d   1      26.038  -9.515  -4.503  0.00  0.00     0.042 A 
ATOM     18  C   UNL d   1      26.072 -10.922  -4.642  0.00  0.00    -0.013 A 
ATOM     19 CL   UNL d   1      25.720  -8.442  -5.834  0.00  0.00    -0.084 Cl
ATOM     20  C   UNL d   1      25.685 -11.438  -5.982  0.00  0.00     0.052 C 
ENDBRANCH   9  13
ENDBRANCH   1   7
BRANCH   6  21
ATOM     21  N   UNL d   1      28.612 -16.204  -0.731  0.00  0.00    -0.379 N 
ATOM     22  C   UNL d   1      29.663 -16.821  -1.510  0.00  0.00     0.123 C 
ATOM     23  C   UNL d   1      30.877 -16.746  -0.606  0.00  0.00     0.021 C 
ATOM     24  C   UNL d   1      30.683 -15.426   0.143  0.00  0.00     0.021 C 
ATOM     25  C   UNL d   1      29.146 -15.238   0.239  0.00  0.00     0.123 C 
ENDBRANCH   6  21
BRANCH   3  26
ATOM     26  N   UNL d   1      23.256 -17.883   0.068  0.00  0.00    -0.323 N 
ATOM     27  C   UNL d   1      22.455 -18.768  -0.666  0.00  0.00     0.256 C 
ATOM     28  O   UNL d   1      22.752 -19.326  -1.721  0.00  0.00    -0.267 OA
ATOM     29  H   UNL d   1      22.932 -17.591   0.980  0.00  0.00     0.169 HD
BRANCH  27  30
ATOM     30  C   UNL d   1      21.100 -19.119  -0.175  0.00  0.00     0.032 A 
ATOM     31  C   UNL d   1      20.953 -19.329   1.214  0.00  0.00     0.020 A 
ATOM     32  C   UNL d   1      19.810 -19.944   1.723  0.00  0.00     0.043 A 
ATOM     33  C   UNL d   1      18.784 -20.278   0.851  0.00  0.00     0.116 A 
ATOM     34  F   UNL d   1      17.666 -20.834   1.335  0.00  0.00    -0.206 F 
ATOM     35  C   UNL d   1      18.900 -20.045  -0.520  0.00  0.00     0.043 A 
ATOM     36  C   UNL d   1      20.066 -19.471  -1.042  0.00  0.00     0.020 A 
ENDBRANCH  27  30
ENDBRANCH   3  26
TORSDOF 5
ENDMDL
MODEL 8
REMARK VINA RESULT:    -9.401      5.294     10.146
REMARK INTER + INTRA:         -12.412
REMARK INTER:                 -10.892
REMARK INTRA:                  -1.519
REMARK CONF_INDEPENDENT:        1.492
REMARK UNBOUND:                -1.519
REMARK  5 active torsions:
REMARK  status: ('A' for Active; 'I' for Inactive)
REMARK    1  A    between atoms: C_8  and  N_9 
REMARK       I    between atoms: N_9  and  C_10 
REMARK       I    between atoms: C_10  and  N_12 
REMARK    2  A    between atoms: N_12  and  C_13 
REMARK    3  A    between atoms: C_15  and  N_16 
REMARK       I    between atoms: N_16  and  C_17 
REMARK    4  A    between atoms: C_17  and  C_19 
REMARK    5  A    between atoms: C_28  and  N_29 
ROOT
ATOM      1  C   UNL d   1      26.918 -15.682  -1.294  0.00  0.00     0.065 C 
ATOM      2  C   UNL d   1      27.642 -14.965  -2.300  0.00  0.00     0.061 C 
ATOM      3  C   UNL d   1      27.063 -14.705  -3.565  0.00  0.00     0.037 C 
ATOM      4  C   UNL d   1      25.845 -15.315  -3.853  0.00  0.00     0.032 C 
ATOM      5  C   UNL d   1      25.155 -16.066  -2.906  0.00  0.00     0.034 C 
ATOM      6  C   UNL d   1      25.640 -16.257  -1.609  0.00  0.00     0.057 C 
ENDROOT
BRANCH   1   7
ATOM      7  N   UNL d   1      27.504 -15.874   0.039  0.00  0.00    -0.306 N 
ATOM      8  C   UNL d   1      27.173 -14.906   0.980  0.00  0.00     0.325 C 
ATOM      9  N   UNL d   1      27.929 -14.825   2.149  0.00  0.00    -0.308 N 
ATOM     10  O   UNL d   1      26.207 -14.189   0.718  0.00  0.00    -0.247 OA
ATOM     11  H   UNL d   1      28.448 -15.653   2.416  0.00  0.00     0.170 HD
ATOM     12  H   UNL d   1      27.547 -16.824   0.380  0.00  0.00     0.170 HD
BRANCH   9  13
ATOM     13  C   UNL d   1      28.004 -13.689   3.091  0.00  0.00     0.043 A 
ATOM     14  C   UNL d   1      27.786 -12.391   2.574  0.00  0.00     0.030 A 
ATOM     15  C   UNL d   1      27.780 -11.248   3.406  0.00  0.00     0.004 A 
ATOM     16  C   UNL d   1      27.917 -11.366   4.783  0.00  0.00     0.024 A 
ATOM     17  C   UNL d   1      28.096 -12.618   5.334  0.00  0.00     0.042 A 
ATOM     18  C   UNL d   1      28.194 -13.765   4.512  0.00  0.00    -0.013 A 
ATOM     19 CL   UNL d   1      28.173 -12.690   7.070  0.00  0.00    -0.084 Cl
ATOM     20  C   UNL d   1      28.504 -15.033   5.225  0.00  0.00     0.052 C 
ENDBRANCH   9  13
ENDBRANCH   1   7
BRANCH   6  21
ATOM     21  N   UNL d   1      24.801 -16.919  -0.732  0.00  0.00    -0.379 N 
ATOM     22  C   UNL d   1      25.118 -18.201  -0.140  0.00  0.00     0.123 C 
ATOM     23  C   UNL d   1      23.795 -18.939  -0.145  0.00  0.00     0.021 C 
ATOM     24  C   UNL d   1      22.767 -17.833   0.097  0.00  0.00     0.021 C 
ATOM     25  C   UNL d   1      23.391 -16.558  -0.530  0.00  0.00     0.123 C 
ENDBRANCH   6  21
BRANCH   3  26
ATOM     26  N   UNL d   1      27.658 -13.786  -4.496  0.00  0.00    -0.323 N 
ATOM     27  C   UNL d   1      27.926 -14.105  -5.834  0.00  0.00     0.256 C 
ATOM     28  O   UNL d   1      27.779 -15.200  -6.373  0.00  0.00    -0.267 OA
ATOM     29  H   UNL d   1      27.711 -12.816  -4.216  0.00  0.00     0.169 HD
BRANCH  27  30
ATOM     30  C   UNL d   1      28.434 -13.058  -6.754  0.00  0.00     0.032 A 
ATOM     31  C   UNL d   1      27.643 -11.899  -6.912  0.00  0.00     0.020 A 
ATOM     32  C   UNL d   1      27.883 -11.012  -7.961  0.00  0.00     0.043 A 
ATOM     33  C   UNL d   1      28.959 -11.247  -8.804  0.00  0.00     0.116 A 
ATOM     34  F   UNL d   1      29.220 -10.381  -9.791  0.00  0.00    -0.206 F 
ATOM     35  C   UNL d   1      29.771 -12.369  -8.640  0.00  0.00     0.043 A 
ATOM     36  C   UNL d   1      29.506 -13.288  -7.617  0.00  0.00     0.020 A 
ENDBRANCH  27  30
ENDBRANCH   3  26
TORSDOF 5
ENDMDL
MODEL 9
REMARK VINA RESULT:    -8.945      4.010      6.016
REMARK INTER + INTRA:         -12.100
REMARK INTER:                 -10.437
REMARK INTRA:                  -1.663
REMARK CONF_INDEPENDENT:        1.492
REMARK UNBOUND:                -1.663
REMARK  5 active torsions:
REMARK  status: ('A' for Active; 'I' for Inactive)
REMARK    1  A    between atoms: C_8  and  N_9 
REMARK       I    between atoms: N_9  and  C_10 
REMARK       I    between atoms: C_10  and  N_12 
REMARK    2  A    between atoms: N_12  and  C_13 
REMARK    3  A    between atoms: C_15  and  N_16 
REMARK       I    between atoms: N_16  and  C_17 
REMARK    4  A    between atoms: C_17  and  C_19 
REMARK    5  A    between atoms: C_28  and  N_29 
ROOT
ATOM      1  C   UNL d   1      27.150 -16.305  -0.352  0.00  0.00     0.065 C 
ATOM      2  C   UNL d   1      25.958 -16.993   0.042  0.00  0.00     0.061 C 
ATOM      3  C   UNL d   1      24.920 -17.238  -0.888  0.00  0.00     0.037 C 
ATOM      4  C   UNL d   1      25.024 -16.641  -2.142  0.00  0.00     0.032 C 
ATOM      5  C   UNL d   1      26.151 -15.918  -2.522  0.00  0.00     0.034 C 
ATOM      6  C   UNL d   1      27.246 -15.744  -1.671  0.00  0.00     0.057 C 
ENDROOT
BRANCH   1   7
ATOM      7  N   UNL d   1      28.250 -16.129   0.605  0.00  0.00    -0.306 N 
ATOM      8  C   UNL d   1      28.100 -15.074   1.497  0.00  0.00     0.325 C 
ATOM      9  N   UNL d   1      29.217 -14.636   2.208  0.00  0.00    -0.308 N 
ATOM     10  O   UNL d   1      26.967 -14.605   1.613  0.00  0.00    -0.247 OA
ATOM     11  H   UNL d   1      29.985 -15.291   2.301  0.00  0.00     0.170 HD
ATOM     12  H   UNL d   1      28.657 -16.972   0.984  0.00  0.00     0.170 HD
BRANCH   9  13
ATOM     13  C   UNL d   1      29.385 -13.346   2.907  0.00  0.00     0.043 A 
ATOM     14  C   UNL d   1      29.233 -12.163   2.149  0.00  0.00     0.030 A 
ATOM     15  C   UNL d   1      29.318 -10.881   2.741  0.00  0.00     0.004 A 
ATOM     16  C   UNL d   1      29.483 -10.737   4.113  0.00  0.00     0.024 A 
ATOM     17  C   UNL d   1      29.600 -11.867   4.896  0.00  0.00     0.042 A 
ATOM     18  C   UNL d   1      29.608 -13.156   4.313  0.00  0.00    -0.013 A 
ATOM     19 CL   UNL d   1      29.718 -11.606   6.611  0.00  0.00    -0.084 Cl
ATOM     20  C   UNL d   1      29.858 -14.279   5.256  0.00  0.00     0.052 C 
ENDBRANCH   9  13
ENDBRANCH   1   7
BRANCH   6  21
ATOM     21  N   UNL d   1      28.349 -15.110  -2.213  0.00  0.00    -0.379 N 
ATOM     22  C   UNL d   1      29.113 -15.646  -3.318  0.00  0.00     0.123 C 
ATOM     23  C   UNL d   1      30.549 -15.321  -2.958  0.00  0.00     0.021 C 
ATOM     24  C   UNL d   1      30.440 -13.976  -2.237  0.00  0.00     0.021 C 
ATOM     25  C   UNL d   1      29.044 -13.993  -1.559  0.00  0.00     0.123 C 
ENDBRANCH   6  21
BRANCH   3  26
ATOM     26  N   UNL d   1      23.833 -18.131  -0.593  0.00  0.00    -0.323 N 
ATOM     27  C   UNL d   1      22.531 -17.699  -0.311  0.00  0.00     0.256 C 
ATOM     28  O   UNL d   1      22.151 -16.536  -0.193  0.00  0.00    -0.267 OA
ATOM     29  H   UNL d   1      23.981 -19.114  -0.780  0.00  0.00     0.169 HD
BRANCH  27  30
ATOM     30  C   UNL d   1      21.445 -18.694  -0.131  0.00  0.00     0.032 A 
ATOM     31  C   UNL d   1      20.672 -19.017  -1.269  0.00  0.00     0.020 A 
ATOM     32  C   UNL d   1      19.464 -19.700  -1.136  0.00  0.00     0.043 A 
ATOM     33  C   UNL d   1      19.070 -20.125   0.123  0.00  0.00     0.116 A 
ATOM     34  F   UNL d   1      17.930 -20.816   0.256  0.00  0.00    -0.206 F 
ATOM     35  C   UNL d   1      19.839 -19.845   1.252  0.00  0.00     0.043 A 
ATOM     36  C   UNL d   1      21.030 -19.117   1.131  0.00  0.00     0.020 A 
ENDBRANCH  27  30
ENDBRANCH   3  26
TORSDOF 5
ENDMDL
