MODEL 1
REMARK VINA RESULT:   -10.014      0.000      0.000
REMARK INTER + INTRA:         -12.338
REMARK INTER:                 -11.505
REMARK INTRA:                  -0.833
REMARK CONF_INDEPENDENT:        1.492
REMARK UNBOUND:                -0.833
REMARK  5 active torsions:
REMARK  status: ('A' for Active; 'I' for Inactive)
REMARK    1  A    between atoms: C_2  and  C_4 
REMARK    2  A    between atoms: C_7  and  N_8 
REMARK    3  A    between atoms: N_11  and  C_12 
REMARK    4  A    between atoms: C_12  and  C_13 
REMARK    5  A    between atoms: C_18  and  O_19 
ROOT
ATOM      1  N   UNL d   1      25.848 -16.613  -1.011  0.00  0.00    -0.375 N 
ATOM      2  C   UNL d   1      27.010 -16.851  -0.153  0.00  0.00     0.150 C 
ATOM      3  C   UNL d   1      27.302 -15.642   0.764  0.00  0.00     0.255 C 
ATOM      4  N   UNL d   1      27.455 -14.340  -0.048  0.00  0.00    -0.064 N 
ATOM      5  C   UNL d   1      26.276 -14.189  -1.050  0.00  0.00     0.255 C 
ATOM      6  C   UNL d   1      25.995 -15.456  -1.886  0.00  0.00     0.150 C 
ATOM      7  H   UNL d   1      28.328 -14.393  -0.588  0.00  0.00     0.280 HD
ENDROOT
BRANCH   4   8
ATOM      8  C   UNL d   1      27.655 -13.125   0.896  0.00  0.00     0.276 C 
BRANCH   8   9
ATOM      9  C   UNL d   1      28.051 -13.504   2.296  0.00  0.00     0.001 C 
ATOM     10  C   UNL d   1      27.188 -13.217   3.342  0.00  0.00     0.019 C 
ATOM     11  C   UNL d   1      27.758 -13.281   4.574  0.00  0.00    -0.051 C 
ATOM     12  C   UNL d   1      29.043 -13.504   4.935  0.00  0.00    -0.049 C 
ATOM     13  C   UNL d   1      27.628 -13.308   5.960  0.00  0.00     0.039 C 
ATOM     14  C   UNL d   1      29.675 -14.327   3.947  0.00  0.00     0.044 C 
ATOM     15  C   UNL d   1      29.038 -13.302   6.900  0.00  0.00     0.039 C 
ATOM     16  C   UNL d   1      29.246 -14.186   2.612  0.00  0.00     0.074 C 
ATOM     17  C   UNL d   1      29.196 -14.508   6.227  0.00  0.00     0.009 C 
BRANCH  16  18
ATOM     18  O   UNL d   1      30.038 -14.660   1.609  0.00  0.00    -0.360 OA
ATOM     19  H   UNL d   1      30.303 -15.575   1.836  0.00  0.00     0.217 HD
ENDBRANCH  16  18
ENDBRANCH   8   9
ENDBRANCH   4   8
BRANCH   1  20
ATOM     20  C   UNL d   1      24.646 -17.250  -0.738  0.00  0.00     0.069 A 
ATOM     21  C   UNL d   1      23.434 -16.580  -0.951  0.00  0.00     0.033 A 
ATOM     22  C   UNL d   1      22.196 -17.251  -0.894  0.00  0.00     0.017 A 
ATOM     23  C   UNL d   1      22.135 -18.608  -0.576  0.00  0.00     0.012 A 
ATOM     24  C   UNL d   1      23.317 -19.289  -0.289  0.00  0.00     0.059 A 
ATOM     25  C   UNL d   1      24.541 -18.615  -0.388  0.00  0.00     0.143 A 
ATOM     26  F   UNL d   1      25.657 -19.322  -0.150  0.00  0.00    -0.204 F 
BRANCH  23  27
ATOM     27  C   UNL d   1      20.831 -19.324  -0.526  0.00  0.00     0.155 C 
ATOM     28  C   UNL d   1      20.228 -19.618   0.828  0.00  0.00     0.096 C 
ATOM     29  O   UNL d   1      20.270 -19.622  -1.576  0.00  0.00    -0.293 OA
ENDBRANCH  23  27
ENDBRANCH   1  20
TORSDOF 5
ENDMDL
MODEL 2
REMARK VINA RESULT:    -9.176      3.377      7.984
REMARK INTER + INTRA:         -11.456
REMARK INTER:                 -10.667
REMARK INTRA:                  -0.789
REMARK CONF_INDEPENDENT:        1.492
REMARK UNBOUND:                -0.789
REMARK  5 active torsions:
REMARK  status: ('A' for Active; 'I' for Inactive)
REMARK    1  A    between atoms: C_2  and  C_4 
REMARK    2  A    between atoms: C_7  and  N_8 
REMARK    3  A    between atoms: N_11  and  C_12 
REMARK    4  A    between atoms: C_12  and  C_13 
REMARK    5  A    between atoms: C_18  and  O_19 
ROOT
ATOM      1  N   UNL d   1      28.778 -13.267   2.153  0.00  0.00    -0.375 N 
ATOM      2  C   UNL d   1      30.020 -13.619   1.461  0.00  0.00     0.150 C 
ATOM      3  C   UNL d   1      29.766 -14.597   0.292  0.00  0.00     0.255 C 
ATOM      4  N   UNL d   1      29.003 -15.852   0.760  0.00  0.00    -0.064 N 
ATOM      5  C   UNL d   1      27.767 -15.445   1.611  0.00  0.00     0.255 C 
ATOM      6  C   UNL d   1      28.079 -14.415   2.718  0.00  0.00     0.150 C 
ATOM      7  H   UNL d   1      29.629 -16.413   1.353  0.00  0.00     0.280 HD
ENDROOT
BRANCH   4   8
ATOM      8  C   UNL d   1      28.678 -16.777  -0.443  0.00  0.00     0.276 C 
BRANCH   8   9
ATOM      9  C   UNL d   1      27.219 -17.109  -0.576  0.00  0.00     0.001 C 
ATOM     10  C   UNL d   1      26.406 -16.288  -1.343  0.00  0.00     0.019 C 
ATOM     11  C   UNL d   1      25.075 -16.463  -1.134  0.00  0.00    -0.051 C 
ATOM     12  C   UNL d   1      24.421 -17.251  -0.249  0.00  0.00    -0.049 C 
ATOM     13  C   UNL d   1      23.757 -16.233  -1.519  0.00  0.00     0.039 C 
ATOM     14  C   UNL d   1      25.222 -18.405   0.035  0.00  0.00     0.044 C 
ATOM     15  C   UNL d   1      22.515 -16.809  -0.520  0.00  0.00     0.039 C 
ATOM     16  C   UNL d   1      26.622 -18.250   0.005  0.00  0.00     0.074 C 
ATOM     17  C   UNL d   1      23.112 -18.009  -0.889  0.00  0.00     0.009 C 
BRANCH  16  18
ATOM     18  O   UNL d   1      27.405 -19.189   0.606  0.00  0.00    -0.360 OA
ATOM     19  H   UNL d   1      28.328 -18.865   0.604  0.00  0.00     0.217 HD
ENDBRANCH  16  18
ENDBRANCH   8   9
ENDBRANCH   4   8
BRANCH   1  20
ATOM     20  C   UNL d   1      28.218 -12.011   1.968  0.00  0.00     0.069 A 
ATOM     21  C   UNL d   1      28.209 -11.428   0.694  0.00  0.00     0.033 A 
ATOM     22  C   UNL d   1      27.468 -10.262   0.417  0.00  0.00     0.017 A 
ATOM     23  C   UNL d   1      26.747  -9.620   1.425  0.00  0.00     0.012 A 
ATOM     24  C   UNL d   1      26.792 -10.133   2.721  0.00  0.00     0.059 A 
ATOM     25  C   UNL d   1      27.503 -11.314   2.968  0.00  0.00     0.143 A 
ATOM     26  F   UNL d   1      27.479 -11.800   4.220  0.00  0.00    -0.204 F 
BRANCH  23  27
ATOM     27  C   UNL d   1      25.953  -8.394   1.135  0.00  0.00     0.155 C 
ATOM     28  C   UNL d   1      25.665  -8.054  -0.308  0.00  0.00     0.096 C 
ATOM     29  O   UNL d   1      25.530  -7.720   2.069  0.00  0.00    -0.293 OA
ENDBRANCH  23  27
ENDBRANCH   1  20
TORSDOF 5
ENDMDL
MODEL 3
REMARK VINA RESULT:    -8.951      3.323      8.039
REMARK INTER + INTRA:         -11.409
REMARK INTER:                 -10.443
REMARK INTRA:                  -0.967
REMARK CONF_INDEPENDENT:        1.492
REMARK UNBOUND:                -0.967
REMARK  5 active torsions:
REMARK  status: ('A' for Active; 'I' for Inactive)
REMARK    1  A    between atoms: C_2  and  C_4 
REMARK    2  A    between atoms: C_7  and  N_8 
REMARK    3  A    between atoms: N_11  and  C_12 
REMARK    4  A    between atoms: C_12  and  C_13 
REMARK    5  A    between atoms: C_18  and  O_19 
ROOT
ATOM      1  N   UNL d   1      28.886 -13.231   1.846  0.00  0.00    -0.375 N 
ATOM      2  C   UNL d   1      29.923 -13.642   0.898  0.00  0.00     0.150 C 
ATOM      3  C   UNL d   1      29.397 -14.692  -0.107  0.00  0.00     0.255 C 
ATOM      4  N   UNL d   1      28.775 -15.904   0.616  0.00  0.00    -0.064 N 
ATOM      5  C   UNL d   1      27.782 -15.427   1.712  0.00  0.00     0.255 C 
ATOM      6  C   UNL d   1      28.349 -14.330   2.639  0.00  0.00     0.150 C 
ATOM      7  H   UNL d   1      29.528 -16.432   1.074  0.00  0.00     0.280 HD
ENDROOT
BRANCH   4   8
ATOM      8  C   UNL d   1      28.170 -16.902  -0.408  0.00  0.00     0.276 C 
BRANCH   8   9
ATOM      9  C   UNL d   1      26.668 -16.921  -0.421  0.00  0.00     0.001 C 
ATOM     10  C   UNL d   1      26.000 -17.900   0.299  0.00  0.00     0.019 C 
ATOM     11  C   UNL d   1      24.691 -18.048  -0.036  0.00  0.00    -0.051 C 
ATOM     12  C   UNL d   1      23.960 -17.450  -1.005  0.00  0.00    -0.049 C 
ATOM     13  C   UNL d   1      23.432 -18.577   0.236  0.00  0.00     0.039 C 
ATOM     14  C   UNL d   1      24.492 -16.144  -1.259  0.00  0.00     0.044 C 
ATOM     15  C   UNL d   1      22.193 -18.326  -0.892  0.00  0.00     0.039 C 
ATOM     16  C   UNL d   1      25.880 -15.963  -1.096  0.00  0.00     0.074 C 
ATOM     17  C   UNL d   1      22.454 -17.013  -0.516  0.00  0.00     0.009 C 
BRANCH  16  18
ATOM     18  O   UNL d   1      26.476 -14.874  -1.658  0.00  0.00    -0.360 OA
ATOM     19  H   UNL d   1      25.825 -14.439  -2.245  0.00  0.00     0.217 HD
ENDBRANCH  16  18
ENDBRANCH   8   9
ENDBRANCH   4   8
BRANCH   1  20
ATOM     20  C   UNL d   1      28.293 -11.983   1.720  0.00  0.00     0.069 A 
ATOM     21  C   UNL d   1      28.306 -11.322   0.484  0.00  0.00     0.033 A 
ATOM     22  C   UNL d   1      27.538 -10.163   0.255  0.00  0.00     0.017 A 
ATOM     23  C   UNL d   1      26.767  -9.606   1.276  0.00  0.00     0.012 A 
ATOM     24  C   UNL d   1      26.786 -10.197   2.538  0.00  0.00     0.059 A 
ATOM     25  C   UNL d   1      27.526 -11.370   2.737  0.00  0.00     0.143 A 
ATOM     26  F   UNL d   1      27.477 -11.933   3.954  0.00  0.00    -0.204 F 
BRANCH  23  27
ATOM     27  C   UNL d   1      25.944  -8.388   1.035  0.00  0.00     0.155 C 
ATOM     28  C   UNL d   1      25.617  -8.018  -0.393  0.00  0.00     0.096 C 
ATOM     29  O   UNL d   1      25.531  -7.746   1.995  0.00  0.00    -0.293 OA
ENDBRANCH  23  27
ENDBRANCH   1  20
TORSDOF 5
ENDMDL
MODEL 4
REMARK VINA RESULT:    -8.852      2.774      8.564
REMARK INTER + INTRA:         -11.311
REMARK INTER:                 -10.344
REMARK INTRA:                  -0.968
REMARK CONF_INDEPENDENT:        1.492
REMARK UNBOUND:                -0.968
REMARK  5 active torsions:
REMARK  status: ('A' for Active; 'I' for Inactive)
REMARK    1  A    between atoms: C_2  and  C_4 
REMARK    2  A    between atoms: C_7  and  N_8 
REMARK    3  A    between atoms: N_11  and  C_12 
REMARK    4  A    between atoms: C_12  and  C_13 
REMARK    5  A    between atoms: C_18  and  O_19 
ROOT
ATOM      1  N   UNL d   1      28.602 -13.435   2.457  0.00  0.00    -0.375 N 
ATOM      2  C   UNL d   1      27.374 -13.319   1.669  0.00  0.00     0.150 C 
ATOM      3  C   UNL d   1      26.994 -14.659   0.999  0.00  0.00     0.255 C 
ATOM      4  N   UNL d   1      28.158 -15.220   0.158  0.00  0.00    -0.064 N 
ATOM      5  C   UNL d   1      29.477 -15.199   0.979  0.00  0.00     0.255 C 
ATOM      6  C   UNL d   1      29.761 -13.851   1.676  0.00  0.00     0.150 C 
ATOM      7  H   UNL d   1      28.285 -14.618  -0.666  0.00  0.00     0.280 HD
ENDROOT
BRANCH   4   8
ATOM      8  C   UNL d   1      27.789 -16.609  -0.430  0.00  0.00     0.276 C 
BRANCH   8   9
ATOM      9  C   UNL d   1      26.310 -16.848  -0.537  0.00  0.00     0.001 C 
ATOM     10  C   UNL d   1      25.744 -17.902   0.164  0.00  0.00     0.019 C 
ATOM     11  C   UNL d   1      24.496 -18.246  -0.249  0.00  0.00    -0.051 C 
ATOM     12  C   UNL d   1      23.752 -17.776  -1.278  0.00  0.00    -0.049 C 
ATOM     13  C   UNL d   1      23.312 -18.949  -0.043  0.00  0.00     0.039 C 
ATOM     14  C   UNL d   1      24.105 -16.411  -1.530  0.00  0.00     0.044 C 
ATOM     15  C   UNL d   1      22.127 -18.899  -1.254  0.00  0.00     0.039 C 
ATOM     16  C   UNL d   1      25.438 -16.026  -1.284  0.00  0.00     0.074 C 
ATOM     17  C   UNL d   1      22.169 -17.557  -0.895  0.00  0.00     0.009 C 
BRANCH  16  18
ATOM     18  O   UNL d   1      25.906 -14.871  -1.836  0.00  0.00    -0.360 OA
ATOM     19  H   UNL d   1      25.368 -14.672  -2.629  0.00  0.00     0.217 HD
ENDBRANCH  16  18
ENDBRANCH   8   9
ENDBRANCH   4   8
BRANCH   1  20
ATOM     20  C   UNL d   1      28.533 -13.458   3.843  0.00  0.00     0.069 A 
ATOM     21  C   UNL d   1      29.128 -14.507   4.557  0.00  0.00     0.033 A 
ATOM     22  C   UNL d   1      29.270 -14.463   5.959  0.00  0.00     0.017 A 
ATOM     23  C   UNL d   1      28.777 -13.382   6.691  0.00  0.00     0.012 A 
ATOM     24  C   UNL d   1      28.116 -12.355   6.020  0.00  0.00     0.059 A 
ATOM     25  C   UNL d   1      28.019 -12.397   4.622  0.00  0.00     0.143 A 
ATOM     26  F   UNL d   1      27.418 -11.363   4.013  0.00  0.00    -0.204 F 
BRANCH  23  27
ATOM     27  C   UNL d   1      28.935 -13.326   8.171  0.00  0.00     0.155 C 
ATOM     28  C   UNL d   1      30.075 -14.094   8.797  0.00  0.00     0.096 C 
ATOM     29  O   UNL d   1      28.164 -12.636   8.829  0.00  0.00    -0.293 OA
ENDBRANCH  23  27
ENDBRANCH   1  20
TORSDOF 5
ENDMDL
MODEL 5
REMARK VINA RESULT:    -8.406      1.660      2.245
REMARK INTER + INTRA:         -11.184
REMARK INTER:                  -9.898
REMARK INTRA:                  -1.287
REMARK CONF_INDEPENDENT:        1.492
REMARK UNBOUND:                -1.287
REMARK  5 active torsions:
REMARK  status: ('A' for Active; 'I' for Inactive)
REMARK    1  A    between atoms: C_2  and  C_4 
REMARK    2  A    between atoms: C_7  and  N_8 
REMARK    3  A    between atoms: N_11  and  C_12 
REMARK    4  A    between atoms: C_12  and  C_13 
REMARK    5  A    between atoms: C_18  and  O_19 
ROOT
ATOM      1  N   UNL d   1      25.704 -16.414  -0.841  0.00  0.00    -0.375 N 
ATOM      2  C   UNL d   1      26.991 -17.099  -0.714  0.00  0.00     0.150 C 
ATOM      3  C   UNL d   1      27.715 -16.717   0.597  0.00  0.00     0.255 C 
ATOM      4  N   UNL d   1      27.870 -15.189   0.734  0.00  0.00    -0.064 N 
ATOM      5  C   UNL d   1      26.514 -14.483   0.454  0.00  0.00     0.255 C 
ATOM      6  C   UNL d   1      25.812 -14.960  -0.837  0.00  0.00     0.150 C 
ATOM      7  H   UNL d   1      28.549 -14.866   0.033  0.00  0.00     0.280 HD
ENDROOT
BRANCH   4   8
ATOM      8  C   UNL d   1      28.515 -14.823   2.097  0.00  0.00     0.276 C 
BRANCH   8   9
ATOM      9  C   UNL d   1      28.457 -13.358   2.421  0.00  0.00     0.001 C 
ATOM     10  C   UNL d   1      28.333 -12.964   3.746  0.00  0.00     0.019 C 
ATOM     11  C   UNL d   1      27.953 -11.670   3.913  0.00  0.00    -0.051 C 
ATOM     12  C   UNL d   1      27.605 -10.732   3.000  0.00  0.00    -0.049 C 
ATOM     13  C   UNL d   1      27.777 -10.566   4.743  0.00  0.00     0.039 C 
ATOM     14  C   UNL d   1      28.292 -10.994   1.771  0.00  0.00     0.044 C 
ATOM     15  C   UNL d   1      27.068  -9.173   4.088  0.00  0.00     0.039 C 
ATOM     16  C   UNL d   1      28.567 -12.338   1.451  0.00  0.00     0.074 C 
ATOM     17  C   UNL d   1      28.225  -9.245   3.320  0.00  0.00     0.009 C 
BRANCH  16  18
ATOM     18  O   UNL d   1      28.880 -12.661   0.164  0.00  0.00    -0.360 OA
ATOM     19  H   UNL d   1      28.958 -11.832  -0.349  0.00  0.00     0.217 HD
ENDBRANCH  16  18
ENDBRANCH   8   9
ENDBRANCH   4   8
BRANCH   1  20
ATOM     20  C   UNL d   1      24.525 -17.119  -0.649  0.00  0.00     0.069 A 
ATOM     21  C   UNL d   1      23.290 -16.493  -0.868  0.00  0.00     0.033 A 
ATOM     22  C   UNL d   1      22.083 -17.221  -0.895  0.00  0.00     0.017 A 
ATOM     23  C   UNL d   1      22.076 -18.596  -0.658  0.00  0.00     0.012 A 
ATOM     24  C   UNL d   1      23.278 -19.239  -0.367  0.00  0.00     0.059 A 
ATOM     25  C   UNL d   1      24.472 -18.506  -0.383  0.00  0.00     0.143 A 
ATOM     26  F   UNL d   1      25.611 -19.174  -0.145  0.00  0.00    -0.204 F 
BRANCH  23  27
ATOM     27  C   UNL d   1      20.806 -19.372  -0.697  0.00  0.00     0.155 C 
ATOM     28  C   UNL d   1      20.125 -19.693   0.613  0.00  0.00     0.096 C 
ATOM     29  O   UNL d   1      20.334 -19.695  -1.782  0.00  0.00    -0.293 OA
ENDBRANCH  23  27
ENDBRANCH   1  20
TORSDOF 5
ENDMDL
MODEL 6
REMARK VINA RESULT:    -8.338      3.886      6.730
REMARK INTER + INTRA:         -11.387
REMARK INTER:                  -9.829
REMARK INTRA:                  -1.558
REMARK CONF_INDEPENDENT:        1.492
REMARK UNBOUND:                -1.558
REMARK  5 active torsions:
REMARK  status: ('A' for Active; 'I' for Inactive)
REMARK    1  A    between atoms: C_2  and  C_4 
REMARK    2  A    between atoms: C_7  and  N_8 
REMARK    3  A    between atoms: N_11  and  C_12 
REMARK    4  A    between atoms: C_12  and  C_13 
REMARK    5  A    between atoms: C_18  and  O_19 
ROOT
ATOM      1  N   UNL d   1      25.623 -16.161  -0.492  0.00  0.00    -0.375 N 
ATOM      2  C   UNL d   1      26.040 -15.568  -1.764  0.00  0.00     0.150 C 
ATOM      3  C   UNL d   1      27.248 -16.313  -2.375  0.00  0.00     0.255 C 
ATOM      4  N   UNL d   1      28.422 -16.400  -1.378  0.00  0.00    -0.064 N 
ATOM      5  C   UNL d   1      27.918 -16.901   0.005  0.00  0.00     0.255 C 
ATOM      6  C   UNL d   1      26.668 -16.157   0.525  0.00  0.00     0.150 C 
ATOM      7  H   UNL d   1      28.814 -15.458  -1.253  0.00  0.00     0.280 HD
ENDROOT
BRANCH   4   8
ATOM      8  C   UNL d   1      29.588 -17.231  -1.976  0.00  0.00     0.276 C 
BRANCH   8   9
ATOM      9  C   UNL d   1      29.939 -16.855  -3.387  0.00  0.00     0.001 C 
ATOM     10  C   UNL d   1      30.101 -17.857  -4.332  0.00  0.00     0.019 C 
ATOM     11  C   UNL d   1      30.734 -17.462  -5.468  0.00  0.00    -0.051 C 
ATOM     12  C   UNL d   1      31.296 -16.273  -5.790  0.00  0.00    -0.049 C 
ATOM     13  C   UNL d   1      31.109 -17.711  -6.785  0.00  0.00     0.039 C 
ATOM     14  C   UNL d   1      30.609 -15.223  -5.099  0.00  0.00     0.044 C 
ATOM     15  C   UNL d   1      32.110 -16.586  -7.562  0.00  0.00     0.039 C 
ATOM     16  C   UNL d   1      30.071 -15.521  -3.831  0.00  0.00     0.074 C 
ATOM     17  C   UNL d   1      30.987 -15.799  -7.332  0.00  0.00     0.009 C 
BRANCH  16  18
ATOM     18  O   UNL d   1      29.738 -14.496  -2.996  0.00  0.00    -0.360 OA
ATOM     19  H   UNL d   1      30.078 -13.664  -3.384  0.00  0.00     0.217 HD
ENDBRANCH  16  18
ENDBRANCH   8   9
ENDBRANCH   4   8
BRANCH   1  20
ATOM     20  C   UNL d   1      24.464 -16.921  -0.432  0.00  0.00     0.069 A 
ATOM     21  C   UNL d   1      23.226 -16.336  -0.733  0.00  0.00     0.033 A 
ATOM     22  C   UNL d   1      22.060 -17.110  -0.894  0.00  0.00     0.017 A 
ATOM     23  C   UNL d   1      22.092 -18.494  -0.713  0.00  0.00     0.012 A 
ATOM     24  C   UNL d   1      23.292 -19.099  -0.343  0.00  0.00     0.059 A 
ATOM     25  C   UNL d   1      24.449 -18.319  -0.225  0.00  0.00     0.143 A 
ATOM     26  F   UNL d   1      25.592 -18.950   0.085  0.00  0.00    -0.204 F 
BRANCH  23  27
ATOM     27  C   UNL d   1      20.865 -19.317  -0.894  0.00  0.00     0.155 C 
ATOM     28  C   UNL d   1      20.018 -19.613   0.322  0.00  0.00     0.096 C 
ATOM     29  O   UNL d   1      20.561 -19.699  -2.018  0.00  0.00    -0.293 OA
ENDBRANCH  23  27
ENDBRANCH   1  20
TORSDOF 5
ENDMDL
MODEL 7
REMARK VINA RESULT:    -8.280      5.311      8.341
REMARK INTER + INTRA:         -10.820
REMARK INTER:                  -9.771
REMARK INTRA:                  -1.049
REMARK CONF_INDEPENDENT:        1.492
REMARK UNBOUND:                -1.049
REMARK  5 active torsions:
REMARK  status: ('A' for Active; 'I' for Inactive)
REMARK    1  A    between atoms: C_2  and  C_4 
REMARK    2  A    between atoms: C_7  and  N_8 
REMARK    3  A    between atoms: N_11  and  C_12 
REMARK    4  A    between atoms: C_12  and  C_13 
REMARK    5  A    between atoms: C_18  and  O_19 
ROOT
ATOM      1  N   UNL d   1      29.830 -16.030  -3.775  0.00  0.00    -0.375 N 
ATOM      2  C   UNL d   1      30.605 -15.881  -2.542  0.00  0.00     0.150 C 
ATOM      3  C   UNL d   1      29.966 -16.654  -1.366  0.00  0.00     0.255 C 
ATOM      4  N   UNL d   1      28.491 -16.252  -1.161  0.00  0.00    -0.064 N 
ATOM      5  C   UNL d   1      27.730 -16.286  -2.516  0.00  0.00     0.255 C 
ATOM      6  C   UNL d   1      28.457 -15.552  -3.664  0.00  0.00     0.150 C 
ATOM      7  H   UNL d   1      28.462 -15.289  -0.802  0.00  0.00     0.280 HD
ENDROOT
BRANCH   4   8
ATOM      8  C   UNL d   1      27.842 -17.104  -0.038  0.00  0.00     0.276 C 
BRANCH   8   9
ATOM      9  C   UNL d   1      26.346 -17.202  -0.139  0.00  0.00     0.001 C 
ATOM     10  C   UNL d   1      25.724 -18.394   0.202  0.00  0.00     0.019 C 
ATOM     11  C   UNL d   1      24.441 -18.501  -0.234  0.00  0.00    -0.051 C 
ATOM     12  C   UNL d   1      23.704 -17.669  -1.007  0.00  0.00    -0.049 C 
ATOM     13  C   UNL d   1      23.214 -19.158  -0.210  0.00  0.00     0.039 C 
ATOM     14  C   UNL d   1      24.152 -16.323  -0.810  0.00  0.00     0.044 C 
ATOM     15  C   UNL d   1      22.000 -18.633  -1.270  0.00  0.00     0.039 C 
ATOM     16  C   UNL d   1      25.517 -16.125  -0.522  0.00  0.00     0.074 C 
ATOM     17  C   UNL d   1      22.155 -17.493  -0.488  0.00  0.00     0.009 C 
BRANCH  16  18
ATOM     18  O   UNL d   1      26.055 -14.883  -0.683  0.00  0.00    -0.360 OA
ATOM     19  H   UNL d   1      25.748 -14.320   0.055  0.00  0.00     0.217 HD
ENDBRANCH  16  18
ENDBRANCH   8   9
ENDBRANCH   4   8
BRANCH   1  20
ATOM     20  C   UNL d   1      30.304 -16.845  -4.793  0.00  0.00     0.069 A 
ATOM     21  C   UNL d   1      30.499 -18.214  -4.563  0.00  0.00     0.033 A 
ATOM     22  C   UNL d   1      30.770 -19.112  -5.614  0.00  0.00     0.017 A 
ATOM     23  C   UNL d   1      30.898 -18.654  -6.927  0.00  0.00     0.012 A 
ATOM     24  C   UNL d   1      30.780 -17.289  -7.182  0.00  0.00     0.059 A 
ATOM     25  C   UNL d   1      30.472 -16.416  -6.130  0.00  0.00     0.143 A 
ATOM     26  F   UNL d   1      30.320 -15.117  -6.428  0.00  0.00    -0.204 F 
BRANCH  23  27
ATOM     27  C   UNL d   1      31.172 -19.601  -8.043  0.00  0.00     0.155 C 
ATOM     28  C   UNL d   1      31.889 -20.892  -7.724  0.00  0.00     0.096 C 
ATOM     29  O   UNL d   1      30.782 -19.324  -9.172  0.00  0.00    -0.293 OA
ENDBRANCH  23  27
ENDBRANCH   1  20
TORSDOF 5
ENDMDL
MODEL 8
REMARK VINA RESULT:    -7.948      3.765      5.408
REMARK INTER + INTRA:         -10.864
REMARK INTER:                  -9.439
REMARK INTRA:                  -1.425
REMARK CONF_INDEPENDENT:        1.492
REMARK UNBOUND:                -1.425
REMARK  5 active torsions:
REMARK  status: ('A' for Active; 'I' for Inactive)
REMARK    1  A    between atoms: C_2  and  C_4 
REMARK    2  A    between atoms: C_7  and  N_8 
REMARK    3  A    between atoms: N_11  and  C_12 
REMARK    4  A    between atoms: C_12  and  C_13 
REMARK    5  A    between atoms: C_18  and  O_19 
ROOT
ATOM      1  N   UNL d   1      25.643 -16.863  -0.203  0.00  0.00    -0.375 N 
ATOM      2  C   UNL d   1      26.076 -15.794  -1.103  0.00  0.00     0.150 C 
ATOM      3  C   UNL d   1      27.240 -16.248  -2.013  0.00  0.00     0.255 C 
ATOM      4  N   UNL d   1      28.417 -16.807  -1.189  0.00  0.00    -0.064 N 
ATOM      5  C   UNL d   1      27.903 -17.838  -0.145  0.00  0.00     0.255 C 
ATOM      6  C   UNL d   1      26.696 -17.345   0.683  0.00  0.00     0.150 C 
ATOM      7  H   UNL d   1      28.857 -16.029  -0.680  0.00  0.00     0.280 HD
ENDROOT
BRANCH   4   8
ATOM      8  C   UNL d   1      29.536 -17.341  -2.123  0.00  0.00     0.276 C 
BRANCH   8   9
ATOM      9  C   UNL d   1      30.724 -17.895  -1.390  0.00  0.00     0.001 C 
ATOM     10  C   UNL d   1      31.480 -18.894  -1.986  0.00  0.00     0.019 C 
ATOM     11  C   UNL d   1      32.306 -19.557  -1.135  0.00  0.00    -0.051 C 
ATOM     12  C   UNL d   1      32.452 -19.450   0.207  0.00  0.00    -0.049 C 
ATOM     13  C   UNL d   1      33.364 -20.437  -0.927  0.00  0.00     0.039 C 
ATOM     14  C   UNL d   1      32.134 -18.113   0.611  0.00  0.00     0.044 C 
ATOM     15  C   UNL d   1      33.759 -20.859   0.666  0.00  0.00     0.039 C 
ATOM     16  C   UNL d   1      31.154 -17.424  -0.130  0.00  0.00     0.074 C 
ATOM     17  C   UNL d   1      34.018 -19.494   0.700  0.00  0.00     0.009 C 
BRANCH  16  18
ATOM     18  O   UNL d   1      30.567 -16.321   0.414  0.00  0.00    -0.360 OA
ATOM     19  H   UNL d   1      30.232 -16.560   1.302  0.00  0.00     0.217 HD
ENDBRANCH  16  18
ENDBRANCH   8   9
ENDBRANCH   4   8
BRANCH   1  20
ATOM     20  C   UNL d   1      24.448 -17.526  -0.443  0.00  0.00     0.069 A 
ATOM     21  C   UNL d   1      24.334 -18.893  -0.152  0.00  0.00     0.033 A 
ATOM     22  C   UNL d   1      23.090 -19.555  -0.176  0.00  0.00     0.017 A 
ATOM     23  C   UNL d   1      21.927 -18.873  -0.538  0.00  0.00     0.012 A 
ATOM     24  C   UNL d   1      22.015 -17.530  -0.903  0.00  0.00     0.059 A 
ATOM     25  C   UNL d   1      23.254 -16.879  -0.836  0.00  0.00     0.143 A 
ATOM     26  F   UNL d   1      23.285 -15.575  -1.149  0.00  0.00    -0.204 F 
BRANCH  23  27
ATOM     27  C   UNL d   1      20.609 -19.565  -0.554  0.00  0.00     0.155 C 
ATOM     28  C   UNL d   1      20.033 -20.036   0.761  0.00  0.00     0.096 C 
ATOM     29  O   UNL d   1      20.016 -19.700  -1.619  0.00  0.00    -0.293 OA
ENDBRANCH  23  27
ENDBRANCH   1  20
TORSDOF 5
ENDMDL
MODEL 9
REMARK VINA RESULT:    -7.919      4.151      5.382
REMARK INTER + INTRA:         -10.768
REMARK INTER:                  -9.410
REMARK INTRA:                  -1.358
REMARK CONF_INDEPENDENT:        1.492
REMARK UNBOUND:                -1.358
REMARK  5 active torsions:
REMARK  status: ('A' for Active; 'I' for Inactive)
REMARK    1  A    between atoms: C_2  and  C_4 
REMARK    2  A    between atoms: C_7  and  N_8 
REMARK    3  A    between atoms: N_11  and  C_12 
REMARK    4  A    between atoms: C_12  and  C_13 
REMARK    5  A    between atoms: C_18  and  O_19 
ROOT
ATOM      1  N   UNL d   1      28.992 -16.181  -0.258  0.00  0.00    -0.375 N 
ATOM      2  C   UNL d   1      27.826 -16.414   0.595  0.00  0.00     0.150 C 
ATOM      3  C   UNL d   1      27.405 -15.134   1.352  0.00  0.00     0.255 C 
ATOM      4  N   UNL d   1      28.582 -14.536   2.150  0.00  0.00    -0.064 N 
ATOM      5  C   UNL d   1      29.846 -14.434   1.252  0.00  0.00     0.255 C 
ATOM      6  C   UNL d   1      30.170 -15.727   0.473  0.00  0.00     0.150 C 
ATOM      7  H   UNL d   1      28.797 -15.166   2.934  0.00  0.00     0.280 HD
ENDROOT
BRANCH   4   8
ATOM      8  C   UNL d   1      28.165 -13.204   2.827  0.00  0.00     0.276 C 
BRANCH   8   9
ATOM      9  C   UNL d   1      28.243 -13.235   4.327  0.00  0.00     0.001 C 
ATOM     10  C   UNL d   1      28.206 -12.040   5.031  0.00  0.00     0.019 C 
ATOM     11  C   UNL d   1      28.616 -12.136   6.323  0.00  0.00    -0.051 C 
ATOM     12  C   UNL d   1      29.124 -13.189   7.006  0.00  0.00    -0.049 C 
ATOM     13  C   UNL d   1      28.728 -11.579   7.594  0.00  0.00     0.039 C 
ATOM     14  C   UNL d   1      28.597 -14.404   6.460  0.00  0.00     0.044 C 
ATOM     15  C   UNL d   1      29.578 -12.443   8.778  0.00  0.00     0.039 C 
ATOM     16  C   UNL d   1      28.309 -14.428   5.081  0.00  0.00     0.074 C 
ATOM     17  C   UNL d   1      28.532 -13.325   8.533  0.00  0.00     0.009 C 
BRANCH  16  18
ATOM     18  O   UNL d   1      28.157 -15.630   4.457  0.00  0.00    -0.360 OA
ATOM     19  H   UNL d   1      29.030 -16.071   4.428  0.00  0.00     0.217 HD
ENDBRANCH  16  18
ENDBRANCH   8   9
ENDBRANCH   4   8
BRANCH   1  20
ATOM     20  C   UNL d   1      28.836 -16.100  -1.634  0.00  0.00     0.069 A 
ATOM     21  C   UNL d   1      27.704 -15.473  -2.174  0.00  0.00     0.033 A 
ATOM     22  C   UNL d   1      27.605 -15.177  -3.549  0.00  0.00     0.017 A 
ATOM     23  C   UNL d   1      28.623 -15.543  -4.431  0.00  0.00     0.012 A 
ATOM     24  C   UNL d   1      29.731 -16.232  -3.938  0.00  0.00     0.059 A 
ATOM     25  C   UNL d   1      29.829 -16.483  -2.563  0.00  0.00     0.143 A 
ATOM     26  F   UNL d   1      30.935 -17.105  -2.125  0.00  0.00    -0.204 F 
BRANCH  23  27
ATOM     27  C   UNL d   1      28.529 -15.223  -5.882  0.00  0.00     0.155 C 
ATOM     28  C   UNL d   1      29.810 -15.135  -6.678  0.00  0.00     0.096 C 
ATOM     29  O   UNL d   1      27.424 -15.076  -6.392  0.00  0.00    -0.293 OA
ENDBRANCH  23  27
ENDBRANCH   1  20
TORSDOF 5
ENDMDL
