MODEL 1
REMARK VINA RESULT:   -11.043      0.000      0.000
REMARK INTER + INTRA:         -15.326
REMARK INTER:                 -14.026
REMARK INTRA:                  -1.300
REMARK CONF_INDEPENDENT:        2.983
REMARK UNBOUND:                -1.300
REMARK  10 active torsions:
REMARK  status: ('A' for Active; 'I' for Inactive)
REMARK    1  A    between atoms: O_2  and  C_3 
REMARK    2  A    between atoms: C_6  and  O_7 
REMARK    3  A    between atoms: C_9  and  C_10 
REMARK    4  A    between atoms: C_10  and  C_11 
REMARK    5  A    between atoms: C_10  and  N_30 
REMARK    6  A    between atoms: C_11  and  N_12 
REMARK       I    between atoms: N_12  and  C_13 
REMARK    7  A    between atoms: C_13  and  C_15 
REMARK    8  A    between atoms: C_18  and  S_19 
REMARK    9  A    between atoms: S_19  and  C_20 
REMARK   10  A    between atoms: C_20  and  C_21 
ROOT
ATOM      1  C   UNL d   1      29.828 -15.152   0.921  0.00  0.00     0.161 C 
ENDROOT
BRANCH   1   2
ATOM      2  C   UNL d   1      30.341 -14.303   2.240  0.00  0.00     0.241 C 
BRANCH   2   3
ATOM      3  C   UNL d   1      31.801 -14.523   2.483  0.00  0.00     0.010 C 
ATOM      4  C   UNL d   1      32.619 -13.471   2.834  0.00  0.00     0.076 C 
ATOM      5  C   UNL d   1      34.005 -13.752   2.780  0.00  0.00     0.040 C 
ATOM      6  C   UNL d   1      34.537 -15.047   2.495  0.00  0.00     0.039 C 
ATOM      7  C   UNL d   1      33.705 -16.123   2.319  0.00  0.00     0.069 C 
ATOM      8  C   UNL d   1      32.374 -15.821   2.308  0.00  0.00     0.049 C 
BRANCH   4   9
ATOM      9  O   UNL d   1      32.221 -12.175   3.084  0.00  0.00    -0.355 OA
ATOM     10  C   UNL d   1      32.003 -11.480   4.343  0.00  0.00     0.210 C 
ENDBRANCH   4   9
BRANCH   7  11
ATOM     11  O   UNL d   1      34.197 -17.394   2.269  0.00  0.00    -0.356 OA
ATOM     12  C   UNL d   1      33.433 -18.458   2.850  0.00  0.00     0.210 C 
ENDBRANCH   7  11
ENDBRANCH   2   3
BRANCH   2  13
ATOM     13  N   UNL d   1      29.481 -14.566   3.511  0.00  0.00    -0.061 N 
ATOM     14  C   UNL d   1      30.307 -14.309   4.772  0.00  0.00     0.236 C 
ATOM     15  C   UNL d   1      29.457 -14.347   6.010  0.00  0.00     0.028 C 
ATOM     16  C   UNL d   1      28.214 -13.490   5.883  0.00  0.00     0.003 C 
ATOM     17  C   UNL d   1      27.331 -14.003   4.763  0.00  0.00     0.028 C 
ATOM     18  C   UNL d   1      28.042 -13.910   3.422  0.00  0.00     0.236 C 
ATOM     19  H   UNL d   1      29.278 -15.573   3.500  0.00  0.00     0.280 HD
ENDBRANCH   2  13
ENDBRANCH   1   2
BRANCH   1  20
ATOM     20  N   UNL d   1      28.379 -15.579   0.811  0.00  0.00    -0.354 N 
ATOM     21  C   UNL d   1      27.608 -15.526  -0.340  0.00  0.00     0.256 C 
ATOM     22  O   UNL d   1      27.948 -14.805  -1.295  0.00  0.00    -0.268 OA
ATOM     23  H   UNL d   1      28.025 -16.228   1.514  0.00  0.00     0.162 HD
BRANCH  21  24
ATOM     24  C   UNL d   1      26.432 -16.447  -0.505  0.00  0.00     0.090 A 
ATOM     25  C   UNL d   1      26.323 -17.593   0.273  0.00  0.00     0.139 A 
ATOM     26  N   UNL d   1      25.313 -18.509   0.196  0.00  0.00    -0.234 NA
ATOM     27  C   UNL d   1      24.354 -18.249  -0.695  0.00  0.00     0.189 A 
ATOM     28  N   UNL d   1      24.325 -17.148  -1.449  0.00  0.00    -0.210 NA
ATOM     29  C   UNL d   1      25.363 -16.301  -1.358  0.00  0.00     0.146 A 
ATOM     30 CL   UNL d   1      25.194 -15.067  -2.534  0.00  0.00    -0.061 Cl
BRANCH  27  31
ATOM     31  S   UNL d   1      23.018 -19.322  -1.018  0.00  0.00    -0.086 SA
BRANCH  31  32
ATOM     32  C   UNL d   1      21.491 -18.387  -0.646  0.00  0.00     0.121 C 
BRANCH  32  33
ATOM     33  C   UNL d   1      20.471 -19.255   0.094  0.00  0.00    -0.049 A 
ATOM     34  C   UNL d   1      19.421 -19.874  -0.602  0.00  0.00     0.008 A 
ATOM     35  C   UNL d   1      18.408 -20.550   0.096  0.00  0.00     0.001 A 
ATOM     36  C   UNL d   1      18.471 -20.691   1.482  0.00  0.00     0.000 A 
ATOM     37  C   UNL d   1      19.519 -20.119   2.184  0.00  0.00     0.001 A 
ATOM     38  C   UNL d   1      20.490 -19.402   1.497  0.00  0.00     0.008 A 
ENDBRANCH  32  33
ENDBRANCH  31  32
ENDBRANCH  27  31
ENDBRANCH  21  24
ENDBRANCH   1  20
TORSDOF 10
ENDMDL
MODEL 2
REMARK VINA RESULT:   -10.510      1.762      3.878
REMARK INTER + INTRA:         -14.985
REMARK INTER:                 -13.493
REMARK INTRA:                  -1.492
REMARK CONF_INDEPENDENT:        2.983
REMARK UNBOUND:                -1.492
REMARK  10 active torsions:
REMARK  status: ('A' for Active; 'I' for Inactive)
REMARK    1  A    between atoms: O_2  and  C_3 
REMARK    2  A    between atoms: C_6  and  O_7 
REMARK    3  A    between atoms: C_9  and  C_10 
REMARK    4  A    between atoms: C_10  and  C_11 
REMARK    5  A    between atoms: C_10  and  N_30 
REMARK    6  A    between atoms: C_11  and  N_12 
REMARK       I    between atoms: N_12  and  C_13 
REMARK    7  A    between atoms: C_13  and  C_15 
REMARK    8  A    between atoms: C_18  and  S_19 
REMARK    9  A    between atoms: S_19  and  C_20 
REMARK   10  A    between atoms: C_20  and  C_21 
ROOT
ATOM      1  C   UNL d   1      30.200 -14.826   1.465  0.00  0.00     0.161 C 
ENDROOT
BRANCH   1   2
ATOM      2  C   UNL d   1      30.816 -14.594   2.979  0.00  0.00     0.241 C 
BRANCH   2   3
ATOM      3  C   UNL d   1      29.784 -14.015   3.894  0.00  0.00     0.010 C 
ATOM      4  C   UNL d   1      28.971 -12.986   3.471  0.00  0.00     0.076 C 
ATOM      5  C   UNL d   1      28.226 -12.357   4.497  0.00  0.00     0.040 C 
ATOM      6  C   UNL d   1      28.216 -12.806   5.853  0.00  0.00     0.039 C 
ATOM      7  C   UNL d   1      28.897 -13.938   6.223  0.00  0.00     0.069 C 
ATOM      8  C   UNL d   1      29.661 -14.492   5.236  0.00  0.00     0.049 C 
BRANCH   4   9
ATOM      9  O   UNL d   1      28.931 -12.444   2.205  0.00  0.00    -0.355 OA
ATOM     10  C   UNL d   1      27.816 -12.270   1.286  0.00  0.00     0.210 C 
ENDBRANCH   4   9
BRANCH   7  11
ATOM     11  O   UNL d   1      28.718 -14.499   7.452  0.00  0.00    -0.356 OA
ATOM     12  C   UNL d   1      29.612 -14.146   8.514  0.00  0.00     0.210 C 
ENDBRANCH   7  11
ENDBRANCH   2   3
BRANCH   2  13
ATOM     13  N   UNL d   1      32.140 -13.776   2.982  0.00  0.00    -0.061 N 
ATOM     14  C   UNL d   1      33.314 -14.668   2.578  0.00  0.00     0.236 C 
ATOM     15  C   UNL d   1      34.571 -13.871   2.365  0.00  0.00     0.028 C 
ATOM     16  C   UNL d   1      34.348 -12.673   1.464  0.00  0.00     0.003 C 
ATOM     17  C   UNL d   1      33.356 -11.716   2.095  0.00  0.00     0.028 C 
ATOM     18  C   UNL d   1      31.994 -12.373   2.261  0.00  0.00     0.236 C 
ATOM     19  H   UNL d   1      32.299 -13.518   3.963  0.00  0.00     0.280 HD
ENDBRANCH   2  13
ENDBRANCH   1   2
BRANCH   1  20
ATOM     20  N   UNL d   1      28.763 -15.274   1.293  0.00  0.00    -0.354 N 
ATOM     21  C   UNL d   1      28.085 -15.358   0.087  0.00  0.00     0.256 C 
ATOM     22  O   UNL d   1      28.499 -14.747  -0.915  0.00  0.00    -0.268 OA
ATOM     23  H   UNL d   1      28.354 -15.842   2.036  0.00  0.00     0.162 HD
BRANCH  21  24
ATOM     24  C   UNL d   1      26.924 -16.301  -0.064  0.00  0.00     0.090 A 
ATOM     25  C   UNL d   1      26.867 -17.470   0.685  0.00  0.00     0.139 A 
ATOM     26  N   UNL d   1      25.876 -18.406   0.618  0.00  0.00    -0.234 NA
ATOM     27  C   UNL d   1      24.880 -18.144  -0.231  0.00  0.00     0.189 A 
ATOM     28  N   UNL d   1      24.800 -17.024  -0.953  0.00  0.00    -0.210 NA
ATOM     29  C   UNL d   1      25.822 -16.156  -0.874  0.00  0.00     0.146 A 
ATOM     30 CL   UNL d   1      25.585 -14.895  -2.008  0.00  0.00    -0.061 Cl
BRANCH  27  31
ATOM     31  S   UNL d   1      23.557 -19.238  -0.538  0.00  0.00    -0.086 SA
BRANCH  31  32
ATOM     32  C   UNL d   1      22.025 -18.242  -0.472  0.00  0.00     0.121 C 
BRANCH  32  33
ATOM     33  C   UNL d   1      20.840 -19.073   0.024  0.00  0.00    -0.049 A 
ATOM     34  C   UNL d   1      19.849 -19.508  -0.870  0.00  0.00     0.008 A 
ATOM     35  C   UNL d   1      18.693 -20.145  -0.392  0.00  0.00     0.001 A 
ATOM     36  C   UNL d   1      18.548 -20.433   0.965  0.00  0.00     0.000 A 
ATOM     37  C   UNL d   1      19.532 -20.045   1.858  0.00  0.00     0.001 A 
ATOM     38  C   UNL d   1      20.649 -19.364   1.391  0.00  0.00     0.008 A 
ENDBRANCH  32  33
ENDBRANCH  31  32
ENDBRANCH  27  31
ENDBRANCH  21  24
ENDBRANCH   1  20
TORSDOF 10
ENDMDL
MODEL 3
REMARK VINA RESULT:   -10.295      2.583      4.531
REMARK INTER + INTRA:         -14.817
REMARK INTER:                 -13.278
REMARK INTRA:                  -1.539
REMARK CONF_INDEPENDENT:        2.983
REMARK UNBOUND:                -1.539
REMARK  10 active torsions:
REMARK  status: ('A' for Active; 'I' for Inactive)
REMARK    1  A    between atoms: O_2  and  C_3 
REMARK    2  A    between atoms: C_6  and  O_7 
REMARK    3  A    between atoms: C_9  and  C_10 
REMARK    4  A    between atoms: C_10  and  C_11 
REMARK    5  A    between atoms: C_10  and  N_30 
REMARK    6  A    between atoms: C_11  and  N_12 
REMARK       I    between atoms: N_12  and  C_13 
REMARK    7  A    between atoms: C_13  and  C_15 
REMARK    8  A    between atoms: C_18  and  S_19 
REMARK    9  A    between atoms: S_19  and  C_20 
REMARK   10  A    between atoms: C_20  and  C_21 
ROOT
ATOM      1  C   UNL d   1      27.852 -13.816   1.874  0.00  0.00     0.161 C 
ENDROOT
BRANCH   1   2
ATOM      2  C   UNL d   1      27.253 -12.950   3.146  0.00  0.00     0.241 C 
BRANCH   2   3
ATOM      3  C   UNL d   1      27.557 -11.493   2.993  0.00  0.00     0.010 C 
ATOM      4  C   UNL d   1      28.841 -11.024   3.167  0.00  0.00     0.076 C 
ATOM      5  C   UNL d   1      28.952  -9.616   3.254  0.00  0.00     0.040 C 
ATOM      6  C   UNL d   1      27.851  -8.725   3.067  0.00  0.00     0.039 C 
ATOM      7  C   UNL d   1      26.612  -9.202   2.723  0.00  0.00     0.069 C 
ATOM      8  C   UNL d   1      26.509 -10.564   2.709  0.00  0.00     0.049 C 
BRANCH   4   9
ATOM      9  O   UNL d   1      29.965 -11.786   3.399  0.00  0.00    -0.355 OA
ATOM     10  C   UNL d   1      30.847 -12.477   2.470  0.00  0.00     0.210 C 
ENDBRANCH   4   9
BRANCH   7  11
ATOM     11  O   UNL d   1      25.616  -8.360   2.327  0.00  0.00    -0.356 OA
ATOM     12  C   UNL d   1      25.882  -7.407   1.292  0.00  0.00     0.210 C 
ENDBRANCH   7  11
ENDBRANCH   2   3
BRANCH   2  13
ATOM     13  N   UNL d   1      27.698 -13.508   4.530  0.00  0.00    -0.061 N 
ATOM     14  C   UNL d   1      28.902 -14.436   4.364  0.00  0.00     0.236 C 
ATOM     15  C   UNL d   1      29.490 -14.826   5.690  0.00  0.00     0.028 C 
ATOM     16  C   UNL d   1      29.733 -13.630   6.588  0.00  0.00     0.003 C 
ATOM     17  C   UNL d   1      28.423 -12.936   6.908  0.00  0.00     0.028 C 
ATOM     18  C   UNL d   1      27.776 -12.387   5.646  0.00  0.00     0.236 C 
ATOM     19  H   UNL d   1      26.921 -14.100   4.848  0.00  0.00     0.280 HD
ENDBRANCH   2  13
ENDBRANCH   1   2
BRANCH   1  20
ATOM     20  N   UNL d   1      26.905 -14.503   0.912  0.00  0.00    -0.354 N 
ATOM     21  C   UNL d   1      27.142 -15.708   0.271  0.00  0.00     0.256 C 
ATOM     22  O   UNL d   1      28.300 -16.154   0.172  0.00  0.00    -0.268 OA
ATOM     23  H   UNL d   1      25.917 -14.251   0.965  0.00  0.00     0.162 HD
BRANCH  21  24
ATOM     24  C   UNL d   1      25.992 -16.561  -0.187  0.00  0.00     0.090 A 
ATOM     25  C   UNL d   1      25.654 -17.716   0.507  0.00  0.00     0.139 A 
ATOM     26  N   UNL d   1      24.646 -18.574   0.173  0.00  0.00    -0.234 NA
ATOM     27  C   UNL d   1      23.928 -18.242  -0.902  0.00  0.00     0.189 A 
ATOM     28  N   UNL d   1      24.123 -17.125  -1.605  0.00  0.00    -0.210 NA
ATOM     29  C   UNL d   1      25.152 -16.338  -1.254  0.00  0.00     0.146 A 
ATOM     30 CL   UNL d   1      25.314 -15.070  -2.394  0.00  0.00    -0.061 Cl
BRANCH  27  31
ATOM     31  S   UNL d   1      22.650 -19.235  -1.555  0.00  0.00    -0.086 SA
BRANCH  31  32
ATOM     32  C   UNL d   1      21.073 -18.448  -1.067  0.00  0.00     0.121 C 
BRANCH  32  33
ATOM     33  C   UNL d   1      20.294 -19.322  -0.082  0.00  0.00    -0.049 A 
ATOM     34  C   UNL d   1      19.190 -20.074  -0.513  0.00  0.00     0.008 A 
ATOM     35  C   UNL d   1      18.393 -20.760   0.417  0.00  0.00     0.001 A 
ATOM     36  C   UNL d   1      18.732 -20.778   1.769  0.00  0.00     0.000 A 
ATOM     37  C   UNL d   1      19.839 -20.073   2.209  0.00  0.00     0.001 A 
ATOM     38  C   UNL d   1      20.595 -19.348   1.296  0.00  0.00     0.008 A 
ENDBRANCH  32  33
ENDBRANCH  31  32
ENDBRANCH  27  31
ENDBRANCH  21  24
ENDBRANCH   1  20
TORSDOF 10
ENDMDL
MODEL 4
REMARK VINA RESULT:   -10.196      1.920      4.394
REMARK INTER + INTRA:         -14.948
REMARK INTER:                 -13.179
REMARK INTRA:                  -1.769
REMARK CONF_INDEPENDENT:        2.983
REMARK UNBOUND:                -1.769
REMARK  10 active torsions:
REMARK  status: ('A' for Active; 'I' for Inactive)
REMARK    1  A    between atoms: O_2  and  C_3 
REMARK    2  A    between atoms: C_6  and  O_7 
REMARK    3  A    between atoms: C_9  and  C_10 
REMARK    4  A    between atoms: C_10  and  C_11 
REMARK    5  A    between atoms: C_10  and  N_30 
REMARK    6  A    between atoms: C_11  and  N_12 
REMARK       I    between atoms: N_12  and  C_13 
REMARK    7  A    between atoms: C_13  and  C_15 
REMARK    8  A    between atoms: C_18  and  S_19 
REMARK    9  A    between atoms: S_19  and  C_20 
REMARK   10  A    between atoms: C_20  and  C_21 
ROOT
ATOM      1  C   UNL d   1      28.337 -13.494   0.810  0.00  0.00     0.161 C 
ENDROOT
BRANCH   1   2
ATOM      2  C   UNL d   1      28.783 -13.911   2.345  0.00  0.00     0.241 C 
BRANCH   2   3
ATOM      3  C   UNL d   1      28.533 -12.786   3.299  0.00  0.00     0.010 C 
ATOM      4  C   UNL d   1      28.668 -12.975   4.657  0.00  0.00     0.076 C 
ATOM      5  C   UNL d   1      28.157 -11.927   5.457  0.00  0.00     0.040 C 
ATOM      6  C   UNL d   1      27.637 -10.708   4.923  0.00  0.00     0.039 C 
ATOM      7  C   UNL d   1      27.668 -10.464   3.574  0.00  0.00     0.069 C 
ATOM      8  C   UNL d   1      28.103 -11.511   2.814  0.00  0.00     0.049 C 
BRANCH   4   9
ATOM      9  O   UNL d   1      29.113 -14.121   5.281  0.00  0.00    -0.355 OA
ATOM     10  C   UNL d   1      29.252 -14.433   6.695  0.00  0.00     0.210 C 
ENDBRANCH   4   9
BRANCH   7  11
ATOM     11  O   UNL d   1      27.384  -9.227   3.074  0.00  0.00    -0.356 OA
ATOM     12  C   UNL d   1      28.169  -8.108   3.502  0.00  0.00     0.210 C 
ENDBRANCH   7  11
ENDBRANCH   2   3
BRANCH   2  13
ATOM     13  N   UNL d   1      30.240 -14.452   2.433  0.00  0.00    -0.061 N 
ATOM     14  C   UNL d   1      30.619 -15.165   1.135  0.00  0.00     0.236 C 
ATOM     15  C   UNL d   1      32.079 -15.517   1.099  0.00  0.00     0.028 C 
ATOM     16  C   UNL d   1      32.964 -14.339   1.455  0.00  0.00     0.003 C 
ATOM     17  C   UNL d   1      32.687 -13.880   2.873  0.00  0.00     0.028 C 
ATOM     18  C   UNL d   1      31.256 -13.385   3.015  0.00  0.00     0.236 C 
ATOM     19  H   UNL d   1      30.219 -15.175   3.163  0.00  0.00     0.280 HD
ENDBRANCH   2  13
ENDBRANCH   1   2
BRANCH   1  20
ATOM     20  N   UNL d   1      27.288 -14.306   0.080  0.00  0.00    -0.354 N 
ATOM     21  C   UNL d   1      27.462 -15.591  -0.411  0.00  0.00     0.256 C 
ATOM     22  O   UNL d   1      28.604 -16.050  -0.590  0.00  0.00    -0.268 OA
ATOM     23  H   UNL d   1      26.311 -14.047   0.219  0.00  0.00     0.162 HD
BRANCH  21  24
ATOM     24  C   UNL d   1      26.276 -16.495  -0.598  0.00  0.00     0.090 A 
ATOM     25  C   UNL d   1      26.098 -17.600   0.226  0.00  0.00     0.139 A 
ATOM     26  N   UNL d   1      25.073 -18.498   0.136  0.00  0.00    -0.234 NA
ATOM     27  C   UNL d   1      24.171 -18.262  -0.818  0.00  0.00     0.189 A 
ATOM     28  N   UNL d   1      24.208 -17.199  -1.624  0.00  0.00    -0.210 NA
ATOM     29  C   UNL d   1      25.259 -16.369  -1.516  0.00  0.00     0.146 A 
ATOM     30 CL   UNL d   1      25.183 -15.191  -2.756  0.00  0.00    -0.061 Cl
BRANCH  27  31
ATOM     31  S   UNL d   1      22.830 -19.323  -1.165  0.00  0.00    -0.086 SA
BRANCH  31  32
ATOM     32  C   UNL d   1      21.313 -18.429  -0.674  0.00  0.00     0.121 C 
BRANCH  32  33
ATOM     33  C   UNL d   1      20.370 -19.328   0.130  0.00  0.00    -0.049 A 
ATOM     34  C   UNL d   1      19.370 -20.072  -0.515  0.00  0.00     0.008 A 
ATOM     35  C   UNL d   1      18.419 -20.782   0.235  0.00  0.00     0.001 A 
ATOM     36  C   UNL d   1      18.502 -20.831   1.626  0.00  0.00     0.000 A 
ATOM     37  C   UNL d   1      19.504 -20.134   2.280  0.00  0.00     0.001 A 
ATOM     38  C   UNL d   1      20.411 -19.386   1.539  0.00  0.00     0.008 A 
ENDBRANCH  32  33
ENDBRANCH  31  32
ENDBRANCH  27  31
ENDBRANCH  21  24
ENDBRANCH   1  20
TORSDOF 10
ENDMDL
MODEL 5
REMARK VINA RESULT:   -10.153      2.140      4.240
REMARK INTER + INTRA:         -15.564
REMARK INTER:                 -13.136
REMARK INTRA:                  -2.428
REMARK CONF_INDEPENDENT:        2.983
REMARK UNBOUND:                -2.428
REMARK  10 active torsions:
REMARK  status: ('A' for Active; 'I' for Inactive)
REMARK    1  A    between atoms: O_2  and  C_3 
REMARK    2  A    between atoms: C_6  and  O_7 
REMARK    3  A    between atoms: C_9  and  C_10 
REMARK    4  A    between atoms: C_10  and  C_11 
REMARK    5  A    between atoms: C_10  and  N_30 
REMARK    6  A    between atoms: C_11  and  N_12 
REMARK       I    between atoms: N_12  and  C_13 
REMARK    7  A    between atoms: C_13  and  C_15 
REMARK    8  A    between atoms: C_18  and  S_19 
REMARK    9  A    between atoms: S_19  and  C_20 
REMARK   10  A    between atoms: C_20  and  C_21 
ROOT
ATOM      1  C   UNL d   1      27.289 -13.219   1.479  0.00  0.00     0.161 C 
ENDROOT
BRANCH   1   2
ATOM      2  C   UNL d   1      28.126 -13.854   2.753  0.00  0.00     0.241 C 
BRANCH   2   3
ATOM      3  C   UNL d   1      28.233 -12.863   3.869  0.00  0.00     0.010 C 
ATOM      4  C   UNL d   1      28.528 -11.542   3.607  0.00  0.00     0.076 C 
ATOM      5  C   UNL d   1      28.857 -10.770   4.746  0.00  0.00     0.040 C 
ATOM      6  C   UNL d   1      28.789 -11.268   6.084  0.00  0.00     0.039 C 
ATOM      7  C   UNL d   1      28.328 -12.534   6.338  0.00  0.00     0.069 C 
ATOM      8  C   UNL d   1      28.078 -13.285   5.226  0.00  0.00     0.049 C 
BRANCH   4   9
ATOM      9  O   UNL d   1      28.664 -10.967   2.363  0.00  0.00    -0.355 OA
ATOM     10  C   UNL d   1      27.951  -9.854   1.753  0.00  0.00     0.210 C 
ENDBRANCH   4   9
BRANCH   7  11
ATOM     11  O   UNL d   1      28.049 -12.941   7.610  0.00  0.00    -0.356 OA
ATOM     12  C   UNL d   1      28.496 -12.139   8.709  0.00  0.00     0.210 C 
ENDBRANCH   7  11
ENDBRANCH   2   3
BRANCH   2  13
ATOM     13  N   UNL d   1      29.507 -14.444   2.346  0.00  0.00    -0.061 N 
ATOM     14  C   UNL d   1      29.996 -13.799   1.049  0.00  0.00     0.236 C 
ATOM     15  C   UNL d   1      31.415 -14.185   0.736  0.00  0.00     0.028 C 
ATOM     16  C   UNL d   1      32.338 -13.997   1.922  0.00  0.00     0.003 C 
ATOM     17  C   UNL d   1      31.913 -14.891   3.070  0.00  0.00     0.028 C 
ATOM     18  C   UNL d   1      30.521 -14.522   3.561  0.00  0.00     0.236 C 
ATOM     19  H   UNL d   1      29.329 -15.431   2.128  0.00  0.00     0.280 HD
ENDBRANCH   2  13
ENDBRANCH   1   2
BRANCH   1  20
ATOM     20  N   UNL d   1      26.502 -14.131   0.561  0.00  0.00    -0.354 N 
ATOM     21  C   UNL d   1      26.828 -15.442   0.254  0.00  0.00     0.256 C 
ATOM     22  O   UNL d   1      27.983 -15.866   0.441  0.00  0.00    -0.268 OA
ATOM     23  H   UNL d   1      25.520 -13.902   0.399  0.00  0.00     0.162 HD
BRANCH  21  24
ATOM     24  C   UNL d   1      25.759 -16.408  -0.174  0.00  0.00     0.090 A 
ATOM     25  C   UNL d   1      24.740 -15.995  -1.025  0.00  0.00     0.139 A 
ATOM     26  N   UNL d   1      23.709 -16.776  -1.462  0.00  0.00    -0.234 NA
ATOM     27  C   UNL d   1      23.714 -18.042  -1.039  0.00  0.00     0.189 A 
ATOM     28  N   UNL d   1      24.675 -18.561  -0.273  0.00  0.00    -0.210 NA
ATOM     29  C   UNL d   1      25.644 -17.738   0.158  0.00  0.00     0.146 A 
ATOM     30 CL   UNL d   1      26.655 -18.575   1.258  0.00  0.00    -0.061 Cl
BRANCH  27  31
ATOM     31  S   UNL d   1      22.451 -19.189  -1.405  0.00  0.00    -0.086 SA
BRANCH  31  32
ATOM     32  C   UNL d   1      20.875 -18.415  -0.895  0.00  0.00     0.121 C 
BRANCH  32  33
ATOM     33  C   UNL d   1      20.059 -19.349   0.002  0.00  0.00    -0.049 A 
ATOM     34  C   UNL d   1      18.982 -20.082  -0.522  0.00  0.00     0.008 A 
ATOM     35  C   UNL d   1      18.149 -20.824   0.329  0.00  0.00     0.001 A 
ATOM     36  C   UNL d   1      18.425 -20.917   1.693  0.00  0.00     0.000 A 
ATOM     37  C   UNL d   1      19.505 -20.232   2.223  0.00  0.00     0.001 A 
ATOM     38  C   UNL d   1      20.295 -19.451   1.389  0.00  0.00     0.008 A 
ENDBRANCH  32  33
ENDBRANCH  31  32
ENDBRANCH  27  31
ENDBRANCH  21  24
ENDBRANCH   1  20
TORSDOF 10
ENDMDL
MODEL 6
REMARK VINA RESULT:    -8.939      4.116      9.209
REMARK INTER + INTRA:         -14.658
REMARK INTER:                 -11.922
REMARK INTRA:                  -2.736
REMARK CONF_INDEPENDENT:        2.983
REMARK UNBOUND:                -2.736
REMARK  10 active torsions:
REMARK  status: ('A' for Active; 'I' for Inactive)
REMARK    1  A    between atoms: O_2  and  C_3 
REMARK    2  A    between atoms: C_6  and  O_7 
REMARK    3  A    between atoms: C_9  and  C_10 
REMARK    4  A    between atoms: C_10  and  C_11 
REMARK    5  A    between atoms: C_10  and  N_30 
REMARK    6  A    between atoms: C_11  and  N_12 
REMARK       I    between atoms: N_12  and  C_13 
REMARK    7  A    between atoms: C_13  and  C_15 
REMARK    8  A    between atoms: C_18  and  S_19 
REMARK    9  A    between atoms: S_19  and  C_20 
REMARK   10  A    between atoms: C_20  and  C_21 
ROOT
ATOM      1  C   UNL d   1      29.418 -16.273  -1.175  0.00  0.00     0.161 C 
ENDROOT
BRANCH   1   2
ATOM      2  C   UNL d   1      27.925 -16.471  -1.853  0.00  0.00     0.241 C 
BRANCH   2   3
ATOM      3  C   UNL d   1      27.618 -15.360  -2.806  0.00  0.00     0.010 C 
ATOM      4  C   UNL d   1      27.077 -14.177  -2.352  0.00  0.00     0.076 C 
ATOM      5  C   UNL d   1      26.594 -13.317  -3.366  0.00  0.00     0.040 C 
ATOM      6  C   UNL d   1      26.745 -13.580  -4.763  0.00  0.00     0.039 C 
ATOM      7  C   UNL d   1      27.440 -14.679  -5.198  0.00  0.00     0.069 C 
ATOM      8  C   UNL d   1      27.839 -15.531  -4.208  0.00  0.00     0.049 C 
BRANCH   4   9
ATOM      9  O   UNL d   1      26.844 -13.837  -1.037  0.00  0.00    -0.355 OA
ATOM     10  C   UNL d   1      27.030 -12.573  -0.341  0.00  0.00     0.210 C 
ENDBRANCH   4   9
BRANCH   7  11
ATOM     11  O   UNL d   1      27.780 -14.824  -6.510  0.00  0.00    -0.356 OA
ATOM     12  C   UNL d   1      29.085 -14.417  -6.938  0.00  0.00     0.210 C 
ENDBRANCH   7  11
ENDBRANCH   2   3
BRANCH   2  13
ATOM     13  N   UNL d   1      26.798 -16.681  -0.800  0.00  0.00    -0.061 N 
ATOM     14  C   UNL d   1      25.426 -16.587  -1.469  0.00  0.00     0.236 C 
ATOM     15  C   UNL d   1      24.322 -16.991  -0.533  0.00  0.00     0.028 C 
ATOM     16  C   UNL d   1      24.602 -18.312   0.153  0.00  0.00     0.003 C 
ATOM     17  C   UNL d   1      25.849 -18.209   1.009  0.00  0.00     0.028 C 
ATOM     18  C   UNL d   1      27.072 -17.914   0.155  0.00  0.00     0.236 C 
ATOM     19  H   UNL d   1      26.864 -15.876  -0.166  0.00  0.00     0.280 HD
ENDBRANCH   2  13
ENDBRANCH   1   2
BRANCH   1  20
ATOM     20  N   UNL d   1      29.541 -15.836   0.270  0.00  0.00    -0.354 N 
ATOM     21  C   UNL d   1      29.651 -14.526   0.709  0.00  0.00     0.256 C 
ATOM     22  O   UNL d   1      30.000 -13.625  -0.075  0.00  0.00    -0.268 OA
ATOM     23  H   UNL d   1      29.216 -16.485   0.987  0.00  0.00     0.162 HD
BRANCH  21  24
ATOM     24  C   UNL d   1      29.214 -14.155   2.098  0.00  0.00     0.090 A 
ATOM     25  C   UNL d   1      27.909 -14.396   2.511  0.00  0.00     0.139 A 
ATOM     26  N   UNL d   1      27.397 -14.084   3.737  0.00  0.00    -0.234 NA
ATOM     27  C   UNL d   1      28.245 -13.520   4.599  0.00  0.00     0.189 A 
ATOM     28  N   UNL d   1      29.534 -13.300   4.331  0.00  0.00    -0.210 NA
ATOM     29  C   UNL d   1      29.974 -13.592   3.097  0.00  0.00     0.146 A 
ATOM     30 CL   UNL d   1      31.596 -13.067   2.931  0.00  0.00    -0.061 Cl
BRANCH  27  31
ATOM     31  S   UNL d   1      27.784 -12.965   6.187  0.00  0.00    -0.086 SA
BRANCH  31  32
ATOM     32  C   UNL d   1      29.234 -13.217   7.273  0.00  0.00     0.121 C 
BRANCH  32  33
ATOM     33  C   UNL d   1      28.810 -13.439   8.727  0.00  0.00    -0.049 A 
ATOM     34  C   UNL d   1      28.224 -12.400   9.467  0.00  0.00     0.008 A 
ATOM     35  C   UNL d   1      27.970 -12.562  10.838  0.00  0.00     0.001 A 
ATOM     36  C   UNL d   1      28.213 -13.781  11.468  0.00  0.00     0.000 A 
ATOM     37  C   UNL d   1      28.756 -14.831  10.747  0.00  0.00     0.001 A 
ATOM     38  C   UNL d   1      29.061 -14.651   9.403  0.00  0.00     0.008 A 
ENDBRANCH  32  33
ENDBRANCH  31  32
ENDBRANCH  27  31
ENDBRANCH  21  24
ENDBRANCH   1  20
TORSDOF 10
ENDMDL
MODEL 7
REMARK VINA RESULT:    -8.771      3.621      5.884
REMARK INTER + INTRA:         -15.078
REMARK INTER:                 -11.754
REMARK INTRA:                  -3.324
REMARK CONF_INDEPENDENT:        2.983
REMARK UNBOUND:                -3.324
REMARK  10 active torsions:
REMARK  status: ('A' for Active; 'I' for Inactive)
REMARK    1  A    between atoms: O_2  and  C_3 
REMARK    2  A    between atoms: C_6  and  O_7 
REMARK    3  A    between atoms: C_9  and  C_10 
REMARK    4  A    between atoms: C_10  and  C_11 
REMARK    5  A    between atoms: C_10  and  N_30 
REMARK    6  A    between atoms: C_11  and  N_12 
REMARK       I    between atoms: N_12  and  C_13 
REMARK    7  A    between atoms: C_13  and  C_15 
REMARK    8  A    between atoms: C_18  and  S_19 
REMARK    9  A    between atoms: S_19  and  C_20 
REMARK   10  A    between atoms: C_20  and  C_21 
ROOT
ATOM      1  C   UNL d   1      28.787 -14.996   5.855  0.00  0.00     0.161 C 
ENDROOT
BRANCH   1   2
ATOM      2  C   UNL d   1      30.203 -14.169   6.054  0.00  0.00     0.241 C 
BRANCH   2   3
ATOM      3  C   UNL d   1      30.060 -13.111   7.102  0.00  0.00     0.010 C 
ATOM      4  C   UNL d   1      30.968 -12.077   7.181  0.00  0.00     0.076 C 
ATOM      5  C   UNL d   1      30.879 -11.297   8.358  0.00  0.00     0.040 C 
ATOM      6  C   UNL d   1      29.867 -11.477   9.350  0.00  0.00     0.039 C 
ATOM      7  C   UNL d   1      28.867 -12.399   9.172  0.00  0.00     0.069 C 
ATOM      8  C   UNL d   1      29.006 -13.186   8.065  0.00  0.00     0.049 C 
BRANCH   4   9
ATOM      9  O   UNL d   1      32.008 -11.835   6.310  0.00  0.00    -0.355 OA
ATOM     10  C   UNL d   1      33.381 -11.427   6.568  0.00  0.00     0.210 C 
ENDBRANCH   4   9
BRANCH   7  11
ATOM     11  O   UNL d   1      27.780 -12.428   9.994  0.00  0.00    -0.356 OA
ATOM     12  C   UNL d   1      27.777 -13.325  11.110  0.00  0.00     0.210 C 
ENDBRANCH   7  11
ENDBRANCH   2   3
BRANCH   2  13
ATOM     13  N   UNL d   1      30.780 -13.612   4.720  0.00  0.00    -0.061 N 
ATOM     14  C   UNL d   1      30.940 -14.741   3.701  0.00  0.00     0.236 C 
ATOM     15  C   UNL d   1      31.294 -14.215   2.339  0.00  0.00     0.028 C 
ATOM     16  C   UNL d   1      30.377 -13.092   1.899  0.00  0.00     0.003 C 
ATOM     17  C   UNL d   1      30.499 -11.910   2.841  0.00  0.00     0.028 C 
ATOM     18  C   UNL d   1      30.056 -12.286   4.246  0.00  0.00     0.236 C 
ATOM     19  H   UNL d   1      31.729 -13.292   4.946  0.00  0.00     0.280 HD
ENDBRANCH   2  13
ENDBRANCH   1   2
BRANCH   1  20
ATOM     20  N   UNL d   1      28.156 -15.096   4.481  0.00  0.00    -0.354 N 
ATOM     21  C   UNL d   1      27.487 -14.074   3.826  0.00  0.00     0.256 C 
ATOM     22  O   UNL d   1      27.058 -13.093   4.459  0.00  0.00    -0.268 OA
ATOM     23  H   UNL d   1      28.494 -15.832   3.860  0.00  0.00     0.162 HD
BRANCH  21  24
ATOM     24  C   UNL d   1      27.399 -14.068   2.326  0.00  0.00     0.090 A 
ATOM     25  C   UNL d   1      27.704 -15.213   1.600  0.00  0.00     0.139 A 
ATOM     26  N   UNL d   1      27.678 -15.318   0.239  0.00  0.00    -0.234 NA
ATOM     27  C   UNL d   1      27.307 -14.222  -0.425  0.00  0.00     0.189 A 
ATOM     28  N   UNL d   1      26.932 -13.088   0.171  0.00  0.00    -0.210 NA
ATOM     29  C   UNL d   1      27.013 -13.030   1.510  0.00  0.00     0.146 A 
ATOM     30 CL   UNL d   1      26.655 -11.439   2.033  0.00  0.00    -0.061 Cl
BRANCH  27  31
ATOM     31  S   UNL d   1      27.285 -14.106  -2.166  0.00  0.00    -0.086 SA
BRANCH  31  32
ATOM     32  C   UNL d   1      26.789 -15.751  -2.794  0.00  0.00     0.121 C 
BRANCH  32  33
ATOM     33  C   UNL d   1      25.707 -16.382  -1.915  0.00  0.00    -0.049 A 
ATOM     34  C   UNL d   1      24.405 -15.858  -1.897  0.00  0.00     0.008 A 
ATOM     35  C   UNL d   1      23.457 -16.347  -0.986  0.00  0.00     0.001 A 
ATOM     36  C   UNL d   1      23.762 -17.416  -0.145  0.00  0.00     0.000 A 
ATOM     37  C   UNL d   1      25.030 -17.972  -0.173  0.00  0.00     0.001 A 
ATOM     38  C   UNL d   1      25.986 -17.450  -1.036  0.00  0.00     0.008 A 
ENDBRANCH  32  33
ENDBRANCH  31  32
ENDBRANCH  27  31
ENDBRANCH  21  24
ENDBRANCH   1  20
TORSDOF 10
ENDMDL
MODEL 8
REMARK VINA RESULT:    -8.376      4.868      8.555
REMARK INTER + INTRA:         -14.802
REMARK INTER:                 -11.359
REMARK INTRA:                  -3.443
REMARK CONF_INDEPENDENT:        2.983
REMARK UNBOUND:                -3.443
REMARK  10 active torsions:
REMARK  status: ('A' for Active; 'I' for Inactive)
REMARK    1  A    between atoms: O_2  and  C_3 
REMARK    2  A    between atoms: C_6  and  O_7 
REMARK    3  A    between atoms: C_9  and  C_10 
REMARK    4  A    between atoms: C_10  and  C_11 
REMARK    5  A    between atoms: C_10  and  N_30 
REMARK    6  A    between atoms: C_11  and  N_12 
REMARK       I    between atoms: N_12  and  C_13 
REMARK    7  A    between atoms: C_13  and  C_15 
REMARK    8  A    between atoms: C_18  and  S_19 
REMARK    9  A    between atoms: S_19  and  C_20 
REMARK   10  A    between atoms: C_20  and  C_21 
ROOT
ATOM      1  C   UNL d   1      29.280 -17.214  -1.776  0.00  0.00     0.161 C 
ENDROOT
BRANCH   1   2
ATOM      2  C   UNL d   1      28.330 -17.124  -0.429  0.00  0.00     0.241 C 
BRANCH   2   3
ATOM      3  C   UNL d   1      26.895 -16.921  -0.798  0.00  0.00     0.010 C 
ATOM      4  C   UNL d   1      26.488 -15.759  -1.417  0.00  0.00     0.076 C 
ATOM      5  C   UNL d   1      25.087 -15.576  -1.477  0.00  0.00     0.040 C 
ATOM      6  C   UNL d   1      24.144 -16.556  -1.037  0.00  0.00     0.039 C 
ATOM      7  C   UNL d   1      24.564 -17.779  -0.582  0.00  0.00     0.069 C 
ATOM      8  C   UNL d   1      25.919 -17.912  -0.469  0.00  0.00     0.049 C 
BRANCH   4   9
ATOM      9  O   UNL d   1      27.303 -14.731  -1.839  0.00  0.00    -0.355 OA
ATOM     10  C   UNL d   1      27.038 -13.305  -1.963  0.00  0.00     0.210 C 
ENDBRANCH   4   9
BRANCH   7  11
ATOM     11  O   UNL d   1      23.680 -18.795  -0.370  0.00  0.00    -0.356 OA
ATOM     12  C   UNL d   1      22.324 -18.637  -0.803  0.00  0.00     0.210 C 
ENDBRANCH   7  11
ENDBRANCH   2   3
BRANCH   2  13
ATOM     13  N   UNL d   1      28.833 -16.074   0.605  0.00  0.00    -0.061 N 
ATOM     14  C   UNL d   1      29.933 -15.209  -0.012  0.00  0.00     0.236 C 
ATOM     15  C   UNL d   1      30.295 -14.052   0.877  0.00  0.00     0.028 C 
ATOM     16  C   UNL d   1      29.078 -13.284   1.349  0.00  0.00     0.003 C 
ATOM     17  C   UNL d   1      28.180 -14.178   2.182  0.00  0.00     0.028 C 
ATOM     18  C   UNL d   1      27.648 -15.338   1.356  0.00  0.00     0.236 C 
ATOM     19  H   UNL d   1      29.280 -16.618   1.352  0.00  0.00     0.280 HD
ENDBRANCH   2  13
ENDBRANCH   1   2
BRANCH   1  20
ATOM     20  N   UNL d   1      29.390 -16.023  -2.706  0.00  0.00    -0.354 N 
ATOM     21  C   UNL d   1      29.397 -16.081  -4.091  0.00  0.00     0.256 C 
ATOM     22  O   UNL d   1      29.655 -17.147  -4.678  0.00  0.00    -0.268 OA
ATOM     23  H   UNL d   1      29.133 -15.109  -2.333  0.00  0.00     0.162 HD
BRANCH  21  24
ATOM     24  C   UNL d   1      28.953 -14.894  -4.899  0.00  0.00     0.090 A 
ATOM     25  C   UNL d   1      29.884 -13.976  -5.369  0.00  0.00     0.139 A 
ATOM     26  N   UNL d   1      29.595 -12.855  -6.093  0.00  0.00    -0.234 NA
ATOM     27  C   UNL d   1      28.306 -12.657  -6.376  0.00  0.00     0.189 A 
ATOM     28  N   UNL d   1      27.335 -13.505  -6.030  0.00  0.00    -0.210 NA
ATOM     29  C   UNL d   1      27.673 -14.572  -5.287  0.00  0.00     0.146 A 
ATOM     30 CL   UNL d   1      26.255 -15.411  -4.819  0.00  0.00    -0.061 Cl
BRANCH  27  31
ATOM     31  S   UNL d   1      27.704 -11.251  -7.214  0.00  0.00    -0.086 SA
BRANCH  31  32
ATOM     32  C   UNL d   1      25.945 -11.075  -6.747  0.00  0.00     0.121 C 
BRANCH  32  33
ATOM     33  C   UNL d   1      25.793 -10.366  -5.399  0.00  0.00    -0.049 A 
ATOM     34  C   UNL d   1      25.165  -9.114  -5.317  0.00  0.00     0.008 A 
ATOM     35  C   UNL d   1      25.155  -8.403  -4.107  0.00  0.00     0.001 A 
ATOM     36  C   UNL d   1      25.689  -8.964  -2.947  0.00  0.00     0.000 A 
ATOM     37  C   UNL d   1      26.279 -10.216  -2.999  0.00  0.00     0.001 A 
ATOM     38  C   UNL d   1      26.339 -10.893  -4.210  0.00  0.00     0.008 A 
ENDBRANCH  32  33
ENDBRANCH  31  32
ENDBRANCH  27  31
ENDBRANCH  21  24
ENDBRANCH   1  20
TORSDOF 10
ENDMDL
MODEL 9
REMARK VINA RESULT:    -8.243      6.022      8.256
REMARK INTER + INTRA:         -14.752
REMARK INTER:                 -11.226
REMARK INTRA:                  -3.526
REMARK CONF_INDEPENDENT:        2.983
REMARK UNBOUND:                -3.526
REMARK  10 active torsions:
REMARK  status: ('A' for Active; 'I' for Inactive)
REMARK    1  A    between atoms: O_2  and  C_3 
REMARK    2  A    between atoms: C_6  and  O_7 
REMARK    3  A    between atoms: C_9  and  C_10 
REMARK    4  A    between atoms: C_10  and  C_11 
REMARK    5  A    between atoms: C_10  and  N_30 
REMARK    6  A    between atoms: C_11  and  N_12 
REMARK       I    between atoms: N_12  and  C_13 
REMARK    7  A    between atoms: C_13  and  C_15 
REMARK    8  A    between atoms: C_18  and  S_19 
REMARK    9  A    between atoms: S_19  and  C_20 
REMARK   10  A    between atoms: C_20  and  C_21 
ROOT
ATOM      1  C   UNL d   1      29.297 -14.413  -6.845  0.00  0.00     0.161 C 
ENDROOT
BRANCH   1   2
ATOM      2  C   UNL d   1      30.533 -15.422  -7.270  0.00  0.00     0.241 C 
BRANCH   2   3
ATOM      3  C   UNL d   1      30.745 -16.476  -6.230  0.00  0.00     0.010 C 
ATOM      4  C   UNL d   1      31.269 -16.150  -4.998  0.00  0.00     0.076 C 
ATOM      5  C   UNL d   1      31.661 -17.256  -4.207  0.00  0.00     0.040 C 
ATOM      6  C   UNL d   1      31.441 -18.615  -4.587  0.00  0.00     0.039 C 
ATOM      7  C   UNL d   1      30.762 -18.920  -5.739  0.00  0.00     0.069 C 
ATOM      8  C   UNL d   1      30.451 -17.845  -6.520  0.00  0.00     0.049 C 
BRANCH   4   9
ATOM      9  O   UNL d   1      31.563 -14.882  -4.546  0.00  0.00    -0.355 OA
ATOM     10  C   UNL d   1      31.409 -14.290  -3.226  0.00  0.00     0.210 C 
ENDBRANCH   4   9
BRANCH   7  11
ATOM     11  O   UNL d   1      30.353 -20.194  -6.001  0.00  0.00    -0.356 OA
ATOM     12  C   UNL d   1      31.338 -21.200  -6.266  0.00  0.00     0.210 C 
ENDBRANCH   7  11
ENDBRANCH   2   3
BRANCH   2  13
ATOM     13  N   UNL d   1      31.846 -14.665  -7.626  0.00  0.00    -0.061 N 
ATOM     14  C   UNL d   1      32.838 -15.615  -8.298  0.00  0.00     0.236 C 
ATOM     15  C   UNL d   1      34.029 -14.880  -8.845  0.00  0.00     0.028 C 
ATOM     16  C   UNL d   1      33.632 -13.683  -9.685  0.00  0.00     0.003 C 
ATOM     17  C   UNL d   1      32.877 -12.674  -8.843  0.00  0.00     0.028 C 
ATOM     18  C   UNL d   1      31.578 -13.265  -8.317  0.00  0.00     0.236 C 
ATOM     19  H   UNL d   1      32.263 -14.404  -6.725  0.00  0.00     0.280 HD
ENDBRANCH   2  13
ENDBRANCH   1   2
BRANCH   1  20
ATOM     20  N   UNL d   1      28.768 -14.419  -5.426  0.00  0.00    -0.354 N 
ATOM     21  C   UNL d   1      27.563 -14.969  -5.017  0.00  0.00     0.256 C 
ATOM     22  O   UNL d   1      26.662 -15.200  -5.844  0.00  0.00    -0.268 OA
ATOM     23  H   UNL d   1      29.445 -14.305  -4.671  0.00  0.00     0.162 HD
BRANCH  21  24
ATOM     24  C   UNL d   1      27.382 -15.424  -3.596  0.00  0.00     0.090 A 
ATOM     25  C   UNL d   1      28.372 -16.168  -2.966  0.00  0.00     0.139 A 
ATOM     26  N   UNL d   1      28.308 -16.650  -1.690  0.00  0.00    -0.234 NA
ATOM     27  C   UNL d   1      27.202 -16.351  -1.007  0.00  0.00     0.189 A 
ATOM     28  N   UNL d   1      26.216 -15.592  -1.490  0.00  0.00    -0.210 NA
ATOM     29  C   UNL d   1      26.315 -15.177  -2.764  0.00  0.00     0.146 A 
ATOM     30 CL   UNL d   1      24.870 -14.378  -3.215  0.00  0.00    -0.061 Cl
BRANCH  27  31
ATOM     31  S   UNL d   1      26.874 -16.933   0.605  0.00  0.00    -0.086 SA
BRANCH  31  32
ATOM     32  C   UNL d   1      25.913 -18.478   0.419  0.00  0.00     0.121 C 
BRANCH  32  33
ATOM     33  C   UNL d   1      24.504 -18.200  -0.110  0.00  0.00    -0.049 A 
ATOM     34  C   UNL d   1      24.003 -16.889  -0.153  0.00  0.00     0.008 A 
ATOM     35  C   UNL d   1      22.665 -16.652  -0.502  0.00  0.00     0.001 A 
ATOM     36  C   UNL d   1      21.835 -17.702  -0.895  0.00  0.00     0.000 A 
ATOM     37  C   UNL d   1      22.321 -18.998  -0.895  0.00  0.00     0.001 A 
ATOM     38  C   UNL d   1      23.630 -19.238  -0.494  0.00  0.00     0.008 A 
ENDBRANCH  32  33
ENDBRANCH  31  32
ENDBRANCH  27  31
ENDBRANCH  21  24
ENDBRANCH   1  20
TORSDOF 10
ENDMDL
