MODEL 1
REMARK VINA RESULT:   -29.660      0.000      0.000
REMARK INTER + INTRA:         -32.049
REMARK INTER:                 -31.450
REMARK INTRA:                  -0.600
REMARK CONF_INDEPENDENT:        1.790
REMARK UNBOUND:                -0.600
REMARK  6 active torsions:
REMARK  status: ('A' for Active; 'I' for Inactive)
REMARK    1  A    between atoms: C_2  and  C_4 
REMARK    2  A    between atoms: C_4  and  N_5 
REMARK       I    between atoms: N_5  and  C_6 
REMARK    3  A    between atoms: C_6  and  C_8 
REMARK    4  A    between atoms: C_8  and  N_9 
REMARK       I    between atoms: N_9  and  C_10 
REMARK       I    between atoms: C_10  and  N_12 
REMARK    5  A    between atoms: N_12  and  N_13 
REMARK    6  A    between atoms: N_13  and  C_14 
ROOT
ATOM      1  C   UNL d   1      24.635 -18.211  -0.444  0.00  0.00     0.049 A 
ATOM      2  C   UNL d   1      24.633 -16.810  -0.508  0.00  0.00     0.031 A 
ATOM      3  C   UNL d   1      23.442 -16.079  -0.654  0.00  0.00     0.004 A 
ATOM      4  C   UNL d   1      22.217 -16.738  -0.740  0.00  0.00     0.023 A 
ATOM      5  C   UNL d   1      22.189 -18.133  -0.729  0.00  0.00     0.046 A 
ATOM      6  C   UNL d   1      20.928 -18.808  -0.902  0.00  0.00     0.099 C 
ATOM      7  N   UNL d   1      19.905 -19.325  -1.060  0.00  0.00    -0.191 NA
ATOM      8  C   UNL d   1      23.391 -18.862  -0.573  0.00  0.00     0.053 A 
ENDROOT
BRANCH   1   9
ATOM      9  N   UNL d   1      25.846 -18.925  -0.286  0.00  0.00    -0.297 N 
ATOM     10  H   UNL d   1      25.797 -19.931  -0.111  0.00  0.00     0.187 HD
BRANCH   9  11
ATOM     11  N   UNL d   1      26.962 -18.279   0.347  0.00  0.00    -0.251 N 
ATOM     12  C   UNL d   1      27.566 -17.202  -0.313  0.00  0.00     0.335 C 
ATOM     13  N   UNL d   1      28.561 -16.551   0.394  0.00  0.00    -0.333 N 
ATOM     14  O   UNL d   1      27.236 -16.849  -1.444  0.00  0.00    -0.246 OA
ATOM     15  H   UNL d   1      28.829 -16.847   1.323  0.00  0.00     0.164 HD
ATOM     16  H   UNL d   1      27.250 -18.620   1.254  0.00  0.00     0.191 HD
BRANCH  13  17
ATOM     17  C   UNL d   1      29.285 -15.370  -0.138  0.00  0.00     0.227 C 
BRANCH  17  18
ATOM     18  C   UNL d   1      29.255 -14.152   0.829  0.00  0.00     0.235 C 
ATOM     19  N   UNL d   1      29.520 -14.399   2.170  0.00  0.00    -0.359 N 
ATOM     20  H   UNL d   1      29.718 -15.341   2.488  0.00  0.00     0.162 HD
ATOM     21  O   UNL d   1      29.004 -13.019   0.415  0.00  0.00    -0.272 OA
BRANCH  19  22
ATOM     22  C   UNL d   1      29.490 -13.320   3.165  0.00  0.00     0.126 C 
BRANCH  22  23
ATOM     23  C   UNL d   1      28.271 -13.363   4.107  0.00  0.00    -0.005 C 
ATOM     24  C   UNL d   1      26.962 -13.340   3.305  0.00  0.00     0.011 C 
ATOM     25  C   UNL d   1      28.297 -14.620   4.975  0.00  0.00     0.011 C 
ENDBRANCH  22  23
ENDBRANCH  19  22
ENDBRANCH  17  18
ENDBRANCH  13  17
ENDBRANCH   9  11
ENDBRANCH   1   9
TORSDOF 6
ENDMDL
MODEL 2
REMARK VINA RESULT:   -29.383      4.242      6.000
REMARK INTER + INTRA:         -32.262
REMARK INTER:                 -31.173
REMARK INTRA:                  -1.089
REMARK CONF_INDEPENDENT:        1.790
REMARK UNBOUND:                -1.089
REMARK  6 active torsions:
REMARK  status: ('A' for Active; 'I' for Inactive)
REMARK    1  A    between atoms: C_2  and  C_4 
REMARK    2  A    between atoms: C_4  and  N_5 
REMARK       I    between atoms: N_5  and  C_6 
REMARK    3  A    between atoms: C_6  and  C_8 
REMARK    4  A    between atoms: C_8  and  N_9 
REMARK       I    between atoms: N_9  and  C_10 
REMARK       I    between atoms: C_10  and  N_12 
REMARK    5  A    between atoms: N_12  and  N_13 
REMARK    6  A    between atoms: N_13  and  C_14 
ROOT
ATOM      1  C   UNL d   1      24.037 -16.745  -1.130  0.00  0.00     0.049 A 
ATOM      2  C   UNL d   1      24.964 -17.616  -0.538  0.00  0.00     0.031 A 
ATOM      3  C   UNL d   1      24.601 -18.907  -0.121  0.00  0.00     0.004 A 
ATOM      4  C   UNL d   1      23.294 -19.360  -0.287  0.00  0.00     0.023 A 
ATOM      5  C   UNL d   1      22.336 -18.501  -0.827  0.00  0.00     0.046 A 
ATOM      6  C   UNL d   1      20.969 -18.948  -0.918  0.00  0.00     0.099 C 
ATOM      7  N   UNL d   1      19.876 -19.324  -0.964  0.00  0.00    -0.191 NA
ATOM      8  C   UNL d   1      22.710 -17.205  -1.253  0.00  0.00     0.053 A 
ENDROOT
BRANCH   1   9
ATOM      9  N   UNL d   1      24.428 -15.453  -1.552  0.00  0.00    -0.297 N 
ATOM     10  H   UNL d   1      23.760 -14.894  -2.087  0.00  0.00     0.187 HD
BRANCH   9  11
ATOM     11  N   UNL d   1      25.799 -15.218  -1.910  0.00  0.00    -0.251 N 
ATOM     12  C   UNL d   1      26.071 -14.685  -3.177  0.00  0.00     0.335 C 
ATOM     13  N   UNL d   1      27.396 -14.377  -3.422  0.00  0.00    -0.333 N 
ATOM     14  O   UNL d   1      25.193 -14.498  -4.018  0.00  0.00    -0.246 OA
ATOM     15  H   UNL d   1      28.113 -14.536  -2.727  0.00  0.00     0.164 HD
ATOM     16  H   UNL d   1      26.508 -15.429  -1.222  0.00  0.00     0.191 HD
BRANCH  13  17
ATOM     17  C   UNL d   1      27.859 -13.777  -4.698  0.00  0.00     0.227 C 
BRANCH  17  18
ATOM     18  C   UNL d   1      28.486 -14.819  -5.669  0.00  0.00     0.235 C 
ATOM     19  N   UNL d   1      29.838 -15.098  -5.515  0.00  0.00    -0.359 N 
ATOM     20  H   UNL d   1      30.379 -14.628  -4.798  0.00  0.00     0.162 HD
ATOM     21  O   UNL d   1      27.805 -15.368  -6.536  0.00  0.00    -0.272 OA
BRANCH  19  22
ATOM     22  C   UNL d   1      30.527 -16.046  -6.398  0.00  0.00     0.126 C 
BRANCH  22  23
ATOM     23  C   UNL d   1      30.840 -17.406  -5.745  0.00  0.00    -0.005 C 
ATOM     24  C   UNL d   1      30.124 -17.538  -4.393  0.00  0.00     0.011 C 
ATOM     25  C   UNL d   1      30.405 -18.558  -6.649  0.00  0.00     0.011 C 
ENDBRANCH  22  23
ENDBRANCH  19  22
ENDBRANCH  17  18
ENDBRANCH  13  17
ENDBRANCH   9  11
ENDBRANCH   1   9
TORSDOF 6
ENDMDL
MODEL 3
REMARK VINA RESULT:   -29.234      2.323      3.718
REMARK INTER + INTRA:         -32.781
REMARK INTER:                 -31.023
REMARK INTRA:                  -1.758
REMARK CONF_INDEPENDENT:        1.790
REMARK UNBOUND:                -1.758
REMARK  6 active torsions:
REMARK  status: ('A' for Active; 'I' for Inactive)
REMARK    1  A    between atoms: C_2  and  C_4 
REMARK    2  A    between atoms: C_4  and  N_5 
REMARK       I    between atoms: N_5  and  C_6 
REMARK    3  A    between atoms: C_6  and  C_8 
REMARK    4  A    between atoms: C_8  and  N_9 
REMARK       I    between atoms: N_9  and  C_10 
REMARK       I    between atoms: C_10  and  N_12 
REMARK    5  A    between atoms: N_12  and  N_13 
REMARK    6  A    between atoms: N_13  and  C_14 
ROOT
ATOM      1  C   UNL d   1      24.562 -18.053  -0.377  0.00  0.00     0.049 A 
ATOM      2  C   UNL d   1      24.534 -16.662  -0.551  0.00  0.00     0.031 A 
ATOM      3  C   UNL d   1      23.337 -15.973  -0.807  0.00  0.00     0.004 A 
ATOM      4  C   UNL d   1      22.130 -16.666  -0.895  0.00  0.00     0.023 A 
ATOM      5  C   UNL d   1      22.131 -18.056  -0.775  0.00  0.00     0.046 A 
ATOM      6  C   UNL d   1      20.892 -18.772  -0.950  0.00  0.00     0.099 C 
ATOM      7  N   UNL d   1      19.889 -19.324  -1.113  0.00  0.00    -0.191 NA
ATOM      8  C   UNL d   1      23.339 -18.742  -0.509  0.00  0.00     0.053 A 
ENDROOT
BRANCH   1   9
ATOM      9  N   UNL d   1      25.778 -18.723  -0.109  0.00  0.00    -0.297 N 
ATOM     10  H   UNL d   1      25.737 -19.693   0.213  0.00  0.00     0.187 HD
BRANCH   9  11
ATOM     11  N   UNL d   1      26.884 -17.980   0.427  0.00  0.00    -0.251 N 
ATOM     12  C   UNL d   1      27.560 -17.094  -0.421  0.00  0.00     0.335 C 
ATOM     13  N   UNL d   1      28.541 -16.326   0.179  0.00  0.00    -0.333 N 
ATOM     14  O   UNL d   1      27.301 -16.997  -1.619  0.00  0.00    -0.246 OA
ATOM     15  H   UNL d   1      28.751 -16.412   1.165  0.00  0.00     0.164 HD
ATOM     16  H   UNL d   1      27.113 -18.115   1.403  0.00  0.00     0.191 HD
BRANCH  13  17
ATOM     17  C   UNL d   1      29.335 -15.314  -0.561  0.00  0.00     0.227 C 
BRANCH  17  18
ATOM     18  C   UNL d   1      28.465 -14.154  -1.128  0.00  0.00     0.235 C 
ATOM     19  N   UNL d   1      27.790 -14.391  -2.319  0.00  0.00    -0.359 N 
ATOM     20  H   UNL d   1      27.877 -15.285  -2.788  0.00  0.00     0.162 HD
ATOM     21  O   UNL d   1      28.384 -13.075  -0.540  0.00  0.00    -0.272 OA
BRANCH  19  22
ATOM     22  C   UNL d   1      26.966 -13.353  -2.948  0.00  0.00     0.126 C 
BRANCH  22  23
ATOM     23  C   UNL d   1      25.899 -13.895  -3.919  0.00  0.00    -0.005 C 
ATOM     24  C   UNL d   1      26.374 -15.198  -4.577  0.00  0.00     0.011 C 
ATOM     25  C   UNL d   1      24.582 -14.159  -3.192  0.00  0.00     0.011 C 
ENDBRANCH  22  23
ENDBRANCH  19  22
ENDBRANCH  17  18
ENDBRANCH  13  17
ENDBRANCH   9  11
ENDBRANCH   1   9
TORSDOF 6
ENDMDL
MODEL 4
REMARK VINA RESULT:   -29.228      5.282      6.218
REMARK INTER + INTRA:         -32.771
REMARK INTER:                 -31.018
REMARK INTRA:                  -1.753
REMARK CONF_INDEPENDENT:        1.790
REMARK UNBOUND:                -1.753
REMARK  6 active torsions:
REMARK  status: ('A' for Active; 'I' for Inactive)
REMARK    1  A    between atoms: C_2  and  C_4 
REMARK    2  A    between atoms: C_4  and  N_5 
REMARK       I    between atoms: N_5  and  C_6 
REMARK    3  A    between atoms: C_6  and  C_8 
REMARK    4  A    between atoms: C_8  and  N_9 
REMARK       I    between atoms: N_9  and  C_10 
REMARK       I    between atoms: C_10  and  N_12 
REMARK    5  A    between atoms: N_12  and  N_13 
REMARK    6  A    between atoms: N_13  and  C_14 
ROOT
ATOM      1  C   UNL d   1      23.946 -16.734  -1.155  0.00  0.00     0.049 A 
ATOM      2  C   UNL d   1      24.871 -17.578  -0.526  0.00  0.00     0.031 A 
ATOM      3  C   UNL d   1      24.511 -18.854  -0.063  0.00  0.00     0.004 A 
ATOM      4  C   UNL d   1      23.207 -19.319  -0.219  0.00  0.00     0.023 A 
ATOM      5  C   UNL d   1      22.249 -18.484  -0.797  0.00  0.00     0.046 A 
ATOM      6  C   UNL d   1      20.884 -18.940  -0.880  0.00  0.00     0.099 C 
ATOM      7  N   UNL d   1      19.793 -19.322  -0.919  0.00  0.00    -0.191 NA
ATOM      8  C   UNL d   1      22.621 -17.204  -1.269  0.00  0.00     0.053 A 
ENDROOT
BRANCH   1   9
ATOM      9  N   UNL d   1      24.334 -15.457  -1.623  0.00  0.00    -0.297 N 
ATOM     10  H   UNL d   1      23.603 -14.804  -1.915  0.00  0.00     0.187 HD
BRANCH   9  11
ATOM     11  N   UNL d   1      25.559 -15.324  -2.361  0.00  0.00    -0.251 N 
ATOM     12  C   UNL d   1      25.542 -14.574  -3.543  0.00  0.00     0.335 C 
ATOM     13  N   UNL d   1      26.771 -14.388  -4.150  0.00  0.00    -0.333 N 
ATOM     14  O   UNL d   1      24.507 -14.104  -4.014  0.00  0.00    -0.246 OA
ATOM     15  H   UNL d   1      27.618 -14.779  -3.759  0.00  0.00     0.164 HD
ATOM     16  H   UNL d   1      26.387 -15.764  -1.982  0.00  0.00     0.191 HD
BRANCH  13  17
ATOM     17  C   UNL d   1      26.943 -13.594  -5.391  0.00  0.00     0.227 C 
BRANCH  17  18
ATOM     18  C   UNL d   1      26.905 -12.058  -5.141  0.00  0.00     0.235 C 
ATOM     19  N   UNL d   1      25.683 -11.505  -4.779  0.00  0.00    -0.359 N 
ATOM     20  H   UNL d   1      24.861 -12.091  -4.693  0.00  0.00     0.162 HD
ATOM     21  O   UNL d   1      27.919 -11.370  -5.261  0.00  0.00    -0.272 OA
BRANCH  19  22
ATOM     22  C   UNL d   1      25.537 -10.063  -4.547  0.00  0.00     0.126 C 
BRANCH  22  23
ATOM     23  C   UNL d   1      25.155  -9.256  -5.803  0.00  0.00    -0.005 C 
ATOM     24  C   UNL d   1      24.132  -8.165  -5.459  0.00  0.00     0.011 C 
ATOM     25  C   UNL d   1      26.387  -8.600  -6.425  0.00  0.00     0.011 C 
ENDBRANCH  22  23
ENDBRANCH  19  22
ENDBRANCH  17  18
ENDBRANCH  13  17
ENDBRANCH   9  11
ENDBRANCH   1   9
TORSDOF 6
ENDMDL
MODEL 5
REMARK VINA RESULT:   -29.218      4.663      6.537
REMARK INTER + INTRA:         -32.116
REMARK INTER:                 -31.008
REMARK INTRA:                  -1.108
REMARK CONF_INDEPENDENT:        1.790
REMARK UNBOUND:                -1.108
REMARK  6 active torsions:
REMARK  status: ('A' for Active; 'I' for Inactive)
REMARK    1  A    between atoms: C_2  and  C_4 
REMARK    2  A    between atoms: C_4  and  N_5 
REMARK       I    between atoms: N_5  and  C_6 
REMARK    3  A    between atoms: C_6  and  C_8 
REMARK    4  A    between atoms: C_8  and  N_9 
REMARK       I    between atoms: N_9  and  C_10 
REMARK       I    between atoms: C_10  and  N_12 
REMARK    5  A    between atoms: N_12  and  N_13 
REMARK    6  A    between atoms: N_13  and  C_14 
ROOT
ATOM      1  C   UNL d   1      24.296 -16.535  -1.090  0.00  0.00     0.049 A 
ATOM      2  C   UNL d   1      25.092 -17.393  -0.317  0.00  0.00     0.031 A 
ATOM      3  C   UNL d   1      24.580 -18.578   0.236  0.00  0.00     0.004 A 
ATOM      4  C   UNL d   1      23.250 -18.936   0.026  0.00  0.00     0.023 A 
ATOM      5  C   UNL d   1      22.418 -18.080  -0.697  0.00  0.00     0.046 A 
ATOM      6  C   UNL d   1      21.023 -18.416  -0.838  0.00  0.00     0.099 C 
ATOM      7  N   UNL d   1      19.905 -18.700  -0.922  0.00  0.00    -0.191 NA
ATOM      8  C   UNL d   1      22.942 -16.892  -1.258  0.00  0.00     0.053 A 
ENDROOT
BRANCH   1   9
ATOM      9  N   UNL d   1      24.837 -15.352  -1.645  0.00  0.00    -0.297 N 
ATOM     10  H   UNL d   1      24.212 -14.728  -2.160  0.00  0.00     0.187 HD
BRANCH   9  11
ATOM     11  N   UNL d   1      26.184 -15.365  -2.144  0.00  0.00    -0.251 N 
ATOM     12  C   UNL d   1      26.382 -15.200  -3.520  0.00  0.00     0.335 C 
ATOM     13  N   UNL d   1      27.701 -15.109  -3.926  0.00  0.00    -0.333 N 
ATOM     14  O   UNL d   1      25.450 -15.136  -4.320  0.00  0.00    -0.246 OA
ATOM     15  H   UNL d   1      28.463 -15.165  -3.263  0.00  0.00     0.164 HD
ATOM     16  H   UNL d   1      26.933 -15.472  -1.473  0.00  0.00     0.191 HD
BRANCH  13  17
ATOM     17  C   UNL d   1      28.095 -14.902  -5.342  0.00  0.00     0.227 C 
BRANCH  17  18
ATOM     18  C   UNL d   1      29.467 -15.546  -5.692  0.00  0.00     0.235 C 
ATOM     19  N   UNL d   1      29.830 -15.575  -7.033  0.00  0.00    -0.359 N 
ATOM     20  H   UNL d   1      29.212 -15.195  -7.740  0.00  0.00     0.162 HD
ATOM     21  O   UNL d   1      30.195 -16.008  -4.812  0.00  0.00    -0.272 OA
BRANCH  19  22
ATOM     22  C   UNL d   1      31.093 -16.185  -7.468  0.00  0.00     0.126 C 
BRANCH  22  23
ATOM     23  C   UNL d   1      31.456 -17.486  -6.726  0.00  0.00    -0.005 C 
ATOM     24  C   UNL d   1      30.780 -18.696  -7.386  0.00  0.00     0.011 C 
ATOM     25  C   UNL d   1      32.967 -17.706  -6.719  0.00  0.00     0.011 C 
ENDBRANCH  22  23
ENDBRANCH  19  22
ENDBRANCH  17  18
ENDBRANCH  13  17
ENDBRANCH   9  11
ENDBRANCH   1   9
TORSDOF 6
ENDMDL
MODEL 6
REMARK VINA RESULT:   -28.842      2.782      4.744
REMARK INTER + INTRA:         -31.807
REMARK INTER:                 -30.632
REMARK INTRA:                  -1.175
REMARK CONF_INDEPENDENT:        1.790
REMARK UNBOUND:                -1.175
REMARK  6 active torsions:
REMARK  status: ('A' for Active; 'I' for Inactive)
REMARK    1  A    between atoms: C_2  and  C_4 
REMARK    2  A    between atoms: C_4  and  N_5 
REMARK       I    between atoms: N_5  and  C_6 
REMARK    3  A    between atoms: C_6  and  C_8 
REMARK    4  A    between atoms: C_8  and  N_9 
REMARK       I    between atoms: N_9  and  C_10 
REMARK       I    between atoms: C_10  and  N_12 
REMARK    5  A    between atoms: N_12  and  N_13 
REMARK    6  A    between atoms: N_13  and  C_14 
ROOT
ATOM      1  C   UNL d   1      24.595 -18.138  -0.399  0.00  0.00     0.049 A 
ATOM      2  C   UNL d   1      24.587 -16.743  -0.544  0.00  0.00     0.031 A 
ATOM      3  C   UNL d   1      23.400 -16.032  -0.783  0.00  0.00     0.004 A 
ATOM      4  C   UNL d   1      22.183 -16.705  -0.885  0.00  0.00     0.023 A 
ATOM      5  C   UNL d   1      22.163 -18.097  -0.795  0.00  0.00     0.046 A 
ATOM      6  C   UNL d   1      20.914 -18.791  -0.984  0.00  0.00     0.099 C 
ATOM      7  N   UNL d   1      19.903 -19.325  -1.157  0.00  0.00    -0.191 NA
ATOM      8  C   UNL d   1      23.361 -18.806  -0.545  0.00  0.00     0.053 A 
ENDROOT
BRANCH   1   9
ATOM      9  N   UNL d   1      25.801 -18.832  -0.147  0.00  0.00    -0.297 N 
ATOM     10  H   UNL d   1      25.746 -19.790   0.205  0.00  0.00     0.187 HD
BRANCH   9  11
ATOM     11  N   UNL d   1      26.942 -18.102   0.333  0.00  0.00    -0.251 N 
ATOM     12  C   UNL d   1      27.547 -17.179  -0.528  0.00  0.00     0.335 C 
ATOM     13  N   UNL d   1      28.568 -16.427   0.026  0.00  0.00    -0.333 N 
ATOM     14  O   UNL d   1      27.198 -17.037  -1.699  0.00  0.00    -0.246 OA
ATOM     15  H   UNL d   1      28.852 -16.550   0.989  0.00  0.00     0.164 HD
ATOM     16  H   UNL d   1      27.244 -18.273   1.282  0.00  0.00     0.191 HD
BRANCH  13  17
ATOM     17  C   UNL d   1      29.299 -15.382  -0.732  0.00  0.00     0.227 C 
BRANCH  17  18
ATOM     18  C   UNL d   1      29.958 -15.922  -2.034  0.00  0.00     0.235 C 
ATOM     19  N   UNL d   1      29.120 -16.171  -3.113  0.00  0.00    -0.359 N 
ATOM     20  H   UNL d   1      28.123 -16.007  -3.036  0.00  0.00     0.162 HD
ATOM     21  O   UNL d   1      31.172 -16.118  -2.096  0.00  0.00    -0.272 OA
BRANCH  19  22
ATOM     22  C   UNL d   1      29.641 -16.706  -4.377  0.00  0.00     0.126 C 
BRANCH  22  23
ATOM     23  C   UNL d   1      29.856 -15.644  -5.472  0.00  0.00    -0.005 C 
ATOM     24  C   UNL d   1      30.569 -16.253  -6.688  0.00  0.00     0.011 C 
ATOM     25  C   UNL d   1      28.524 -15.050  -5.925  0.00  0.00     0.011 C 
ENDBRANCH  22  23
ENDBRANCH  19  22
ENDBRANCH  17  18
ENDBRANCH  13  17
ENDBRANCH   9  11
ENDBRANCH   1   9
TORSDOF 6
ENDMDL
MODEL 7
REMARK VINA RESULT:   -28.625      5.611      6.948
REMARK INTER + INTRA:         -31.386
REMARK INTER:                 -30.415
REMARK INTRA:                  -0.971
REMARK CONF_INDEPENDENT:        1.790
REMARK UNBOUND:                -0.971
REMARK  6 active torsions:
REMARK  status: ('A' for Active; 'I' for Inactive)
REMARK    1  A    between atoms: C_2  and  C_4 
REMARK    2  A    between atoms: C_4  and  N_5 
REMARK       I    between atoms: N_5  and  C_6 
REMARK    3  A    between atoms: C_6  and  C_8 
REMARK    4  A    between atoms: C_8  and  N_9 
REMARK       I    between atoms: N_9  and  C_10 
REMARK       I    between atoms: C_10  and  N_12 
REMARK    5  A    between atoms: N_12  and  N_13 
REMARK    6  A    between atoms: N_13  and  C_14 
ROOT
ATOM      1  C   UNL d   1      24.277 -16.556  -1.116  0.00  0.00     0.049 A 
ATOM      2  C   UNL d   1      25.074 -17.378  -0.306  0.00  0.00     0.031 A 
ATOM      3  C   UNL d   1      24.569 -18.548   0.283  0.00  0.00     0.004 A 
ATOM      4  C   UNL d   1      23.244 -18.927   0.075  0.00  0.00     0.023 A 
ATOM      5  C   UNL d   1      22.410 -18.105  -0.685  0.00  0.00     0.046 A 
ATOM      6  C   UNL d   1      21.020 -18.460  -0.826  0.00  0.00     0.099 C 
ATOM      7  N   UNL d   1      19.905 -18.757  -0.909  0.00  0.00    -0.191 NA
ATOM      8  C   UNL d   1      22.928 -16.932  -1.282  0.00  0.00     0.053 A 
ENDROOT
BRANCH   1   9
ATOM      9  N   UNL d   1      24.811 -15.388  -1.707  0.00  0.00    -0.297 N 
ATOM     10  H   UNL d   1      24.161 -14.692  -2.080  0.00  0.00     0.187 HD
BRANCH   9  11
ATOM     11  N   UNL d   1      26.049 -15.472  -2.431  0.00  0.00    -0.251 N 
ATOM     12  C   UNL d   1      26.058 -15.080  -3.775  0.00  0.00     0.335 C 
ATOM     13  N   UNL d   1      27.298 -15.077  -4.388  0.00  0.00    -0.333 N 
ATOM     14  O   UNL d   1      25.035 -14.753  -4.377  0.00  0.00    -0.246 OA
ATOM     15  H   UNL d   1      28.134 -15.349  -3.888  0.00  0.00     0.164 HD
ATOM     16  H   UNL d   1      26.865 -15.794  -1.930  0.00  0.00     0.191 HD
BRANCH  13  17
ATOM     17  C   UNL d   1      27.498 -14.659  -5.797  0.00  0.00     0.227 C 
BRANCH  17  18
ATOM     18  C   UNL d   1      27.670 -13.121  -5.957  0.00  0.00     0.235 C 
ATOM     19  N   UNL d   1      28.314 -12.670  -7.102  0.00  0.00    -0.359 N 
ATOM     20  H   UNL d   1      28.657 -13.330  -7.791  0.00  0.00     0.162 HD
ATOM     21  O   UNL d   1      27.250 -12.343  -5.100  0.00  0.00    -0.272 OA
BRANCH  19  22
ATOM     22  C   UNL d   1      28.548 -11.240  -7.333  0.00  0.00     0.126 C 
BRANCH  22  23
ATOM     23  C   UNL d   1      28.577 -10.836  -8.820  0.00  0.00    -0.005 C 
ATOM     24  C   UNL d   1      28.419 -12.067  -9.722  0.00  0.00     0.011 C 
ATOM     25  C   UNL d   1      27.459  -9.843  -9.137  0.00  0.00     0.011 C 
ENDBRANCH  22  23
ENDBRANCH  19  22
ENDBRANCH  17  18
ENDBRANCH  13  17
ENDBRANCH   9  11
ENDBRANCH   1   9
TORSDOF 6
ENDMDL
MODEL 8
REMARK VINA RESULT:   -28.546      4.189      5.768
REMARK INTER + INTRA:         -31.814
REMARK INTER:                 -30.335
REMARK INTRA:                  -1.479
REMARK CONF_INDEPENDENT:        1.790
REMARK UNBOUND:                -1.479
REMARK  6 active torsions:
REMARK  status: ('A' for Active; 'I' for Inactive)
REMARK    1  A    between atoms: C_2  and  C_4 
REMARK    2  A    between atoms: C_4  and  N_5 
REMARK       I    between atoms: N_5  and  C_6 
REMARK    3  A    between atoms: C_6  and  C_8 
REMARK    4  A    between atoms: C_8  and  N_9 
REMARK       I    between atoms: N_9  and  C_10 
REMARK       I    between atoms: C_10  and  N_12 
REMARK    5  A    between atoms: N_12  and  N_13 
REMARK    6  A    between atoms: N_13  and  C_14 
ROOT
ATOM      1  C   UNL d   1      24.410 -16.655  -0.973  0.00  0.00     0.049 A 
ATOM      2  C   UNL d   1      25.200 -17.700  -0.472  0.00  0.00     0.031 A 
ATOM      3  C   UNL d   1      24.649 -18.949  -0.144  0.00  0.00     0.004 A 
ATOM      4  C   UNL d   1      23.285 -19.185  -0.311  0.00  0.00     0.023 A 
ATOM      5  C   UNL d   1      22.464 -18.150  -0.761  0.00  0.00     0.046 A 
ATOM      6  C   UNL d   1      21.043 -18.375  -0.852  0.00  0.00     0.099 C 
ATOM      7  N   UNL d   1      19.905 -18.576  -0.899  0.00  0.00    -0.191 NA
ATOM      8  C   UNL d   1      23.027 -16.897  -1.098  0.00  0.00     0.053 A 
ENDROOT
BRANCH   1   9
ATOM      9  N   UNL d   1      24.990 -15.408  -1.306  0.00  0.00    -0.297 N 
ATOM     10  H   UNL d   1      25.152 -14.733  -0.556  0.00  0.00     0.187 HD
BRANCH   9  11
ATOM     11  N   UNL d   1      24.674 -14.805  -2.571  0.00  0.00    -0.251 N 
ATOM     12  C   UNL d   1      25.645 -14.002  -3.182  0.00  0.00     0.335 C 
ATOM     13  N   UNL d   1      25.328 -13.541  -4.447  0.00  0.00    -0.333 N 
ATOM     14  O   UNL d   1      26.712 -13.723  -2.638  0.00  0.00    -0.246 OA
ATOM     15  H   UNL d   1      24.447 -13.772  -4.888  0.00  0.00     0.164 HD
ATOM     16  H   UNL d   1      23.770 -15.006  -2.975  0.00  0.00     0.191 HD
BRANCH  13  17
ATOM     17  C   UNL d   1      26.250 -12.704  -5.253  0.00  0.00     0.227 C 
BRANCH  17  18
ATOM     18  C   UNL d   1      27.416 -13.519  -5.885  0.00  0.00     0.235 C 
ATOM     19  N   UNL d   1      27.903 -14.597  -5.157  0.00  0.00    -0.359 N 
ATOM     20  H   UNL d   1      27.508 -14.826  -4.253  0.00  0.00     0.162 HD
ATOM     21  O   UNL d   1      27.882 -13.213  -6.983  0.00  0.00    -0.272 OA
BRANCH  19  22
ATOM     22  C   UNL d   1      29.018 -15.412  -5.655  0.00  0.00     0.126 C 
BRANCH  22  23
ATOM     23  C   UNL d   1      29.571 -16.421  -4.630  0.00  0.00    -0.005 C 
ATOM     24  C   UNL d   1      30.431 -17.487  -5.323  0.00  0.00     0.011 C 
ATOM     25  C   UNL d   1      30.416 -15.715  -3.571  0.00  0.00     0.011 C 
ENDBRANCH  22  23
ENDBRANCH  19  22
ENDBRANCH  17  18
ENDBRANCH  13  17
ENDBRANCH   9  11
ENDBRANCH   1   9
TORSDOF 6
ENDMDL
MODEL 9
REMARK VINA RESULT:   -28.130      4.365      4.974
REMARK INTER + INTRA:         -31.428
REMARK INTER:                 -29.920
REMARK INTRA:                  -1.508
REMARK CONF_INDEPENDENT:        1.790
REMARK UNBOUND:                -1.508
REMARK  6 active torsions:
REMARK  status: ('A' for Active; 'I' for Inactive)
REMARK    1  A    between atoms: C_2  and  C_4 
REMARK    2  A    between atoms: C_4  and  N_5 
REMARK       I    between atoms: N_5  and  C_6 
REMARK    3  A    between atoms: C_6  and  C_8 
REMARK    4  A    between atoms: C_8  and  N_9 
REMARK       I    between atoms: N_9  and  C_10 
REMARK       I    between atoms: C_10  and  N_12 
REMARK    5  A    between atoms: N_12  and  N_13 
REMARK    6  A    between atoms: N_13  and  C_14 
ROOT
ATOM      1  C   UNL d   1      24.419 -16.684  -1.045  0.00  0.00     0.049 A 
ATOM      2  C   UNL d   1      25.204 -17.717  -0.514  0.00  0.00     0.031 A 
ATOM      3  C   UNL d   1      24.647 -18.952  -0.145  0.00  0.00     0.004 A 
ATOM      4  C   UNL d   1      23.282 -19.185  -0.300  0.00  0.00     0.023 A 
ATOM      5  C   UNL d   1      22.465 -18.160  -0.781  0.00  0.00     0.046 A 
ATOM      6  C   UNL d   1      21.042 -18.381  -0.860  0.00  0.00     0.099 C 
ATOM      7  N   UNL d   1      19.903 -18.577  -0.897  0.00  0.00    -0.191 NA
ATOM      8  C   UNL d   1      23.033 -16.922  -1.158  0.00  0.00     0.053 A 
ENDROOT
BRANCH   1   9
ATOM      9  N   UNL d   1      25.004 -15.451  -1.420  0.00  0.00    -0.297 N 
ATOM     10  H   UNL d   1      25.305 -14.813  -0.680  0.00  0.00     0.187 HD
BRANCH   9  11
ATOM     11  N   UNL d   1      24.539 -14.787  -2.606  0.00  0.00    -0.251 N 
ATOM     12  C   UNL d   1      25.364 -13.818  -3.188  0.00  0.00     0.335 C 
ATOM     13  N   UNL d   1      24.915 -13.294  -4.387  0.00  0.00    -0.333 N 
ATOM     14  O   UNL d   1      26.422 -13.454  -2.676  0.00  0.00    -0.246 OA
ATOM     15  H   UNL d   1      24.043 -13.596  -4.802  0.00  0.00     0.164 HD
ATOM     16  H   UNL d   1      23.642 -15.065  -2.980  0.00  0.00     0.191 HD
BRANCH  13  17
ATOM     17  C   UNL d   1      25.677 -12.281  -5.158  0.00  0.00     0.227 C 
BRANCH  17  18
ATOM     18  C   UNL d   1      25.894 -10.955  -4.373  0.00  0.00     0.235 C 
ATOM     19  N   UNL d   1      26.943 -10.921  -3.463  0.00  0.00    -0.359 N 
ATOM     20  H   UNL d   1      27.529 -11.736  -3.325  0.00  0.00     0.162 HD
ATOM     21  O   UNL d   1      25.161  -9.982  -4.555  0.00  0.00    -0.272 OA
BRANCH  19  22
ATOM     22  C   UNL d   1      27.213  -9.726  -2.655  0.00  0.00     0.126 C 
BRANCH  22  23
ATOM     23  C   UNL d   1      27.391 -10.007  -1.150  0.00  0.00    -0.005 C 
ATOM     24  C   UNL d   1      27.462 -11.517  -0.883  0.00  0.00     0.011 C 
ATOM     25  C   UNL d   1      28.664  -9.350  -0.619  0.00  0.00     0.011 C 
ENDBRANCH  22  23
ENDBRANCH  19  22
ENDBRANCH  17  18
ENDBRANCH  13  17
ENDBRANCH   9  11
ENDBRANCH   1   9
TORSDOF 6
ENDMDL
