MODEL 1
REMARK VINA RESULT:    -8.208      0.000      0.000
REMARK INTER + INTRA:          -9.856
REMARK INTER:                  -9.401
REMARK INTRA:                  -0.454
REMARK CONF_INDEPENDENT:        1.193
REMARK UNBOUND:                -0.454
REMARK  4 active torsions:
REMARK  status: ('A' for Active; 'I' for Inactive)
REMARK    1  A    between atoms: C_4  and  N_5 
REMARK    2  A    between atoms: N_5  and  C_6 
REMARK    3  A    between atoms: C_10  and  C_11 
REMARK    4  A    between atoms: C_18  and  C_19 
ROOT
ATOM      1  O   UNL d   1      21.724 -16.262  -0.895  0.00  0.00    -0.265 OA
ATOM      2  C   UNL d   1      22.739 -16.945  -0.783  0.00  0.00     0.291 A 
ATOM      3  N   UNL d   1      23.991 -16.452  -0.993  0.00  0.00    -0.151 N 
ATOM      4  C   UNL d   1      25.113 -17.221  -0.837  0.00  0.00     0.726 A 
ATOM      5  N   UNL d   1      25.011 -18.462  -0.458  0.00  0.00     0.043 NA
ATOM      6  N   UNL d   1      23.774 -19.076  -0.202  0.00  0.00    -0.128 NA
ATOM      7  C   UNL d   1      22.681 -18.397  -0.371  0.00  0.00     0.158 A 
ATOM      8  H   UNL d   1      24.045 -15.483  -1.255  0.00  0.00     0.188 HD
ENDROOT
BRANCH   4   9
ATOM      9  N   UNL d   1      26.324 -16.600  -1.089  0.00  0.00    -0.188 N 
ATOM     10  H   UNL d   1      27.102 -16.705  -0.454  0.00  0.00     0.184 HD
BRANCH   9  11
ATOM     11  C   UNL d   1      26.620 -15.947  -2.304  0.00  0.00     0.050 C 
ATOM     12  C   UNL d   1      25.595 -15.368  -3.060  0.00  0.00     0.030 C 
ATOM     13  C   UNL d   1      25.840 -14.836  -4.327  0.00  0.00     0.003 C 
ATOM     14  C   UNL d   1      27.092 -14.994  -4.907  0.00  0.00     0.016 C 
ATOM     15  C   UNL d   1      28.143 -15.564  -4.172  0.00  0.00     0.050 C 
ATOM     16  C   UNL d   1      27.919 -15.951  -2.835  0.00  0.00     0.046 C 
BRANCH  15  17
ATOM     17  C   UNL d   1      29.459 -15.823  -4.861  0.00  0.00     0.417 C 
ATOM     18  F   UNL d   1      29.570 -15.144  -6.039  0.00  0.00    -0.166 F 
ATOM     19  F   UNL d   1      30.530 -15.440  -4.111  0.00  0.00    -0.166 F 
ATOM     20  F   UNL d   1      29.666 -17.133  -5.169  0.00  0.00    -0.166 F 
ENDBRANCH  15  17
ENDBRANCH   9  11
ENDBRANCH   4   9
BRANCH   7  21
ATOM     21  C   UNL d   1      21.358 -19.021  -0.116  0.00  0.00     0.000 A 
ATOM     22  C   UNL d   1      20.472 -19.274  -1.169  0.00  0.00     0.014 A 
ATOM     23  C   UNL d   1      19.168 -19.699  -0.896  0.00  0.00     0.001 A 
ATOM     24  C   UNL d   1      18.783 -19.976   0.415  0.00  0.00     0.000 A 
ATOM     25  C   UNL d   1      19.707 -19.844   1.453  0.00  0.00     0.001 A 
ATOM     26  C   UNL d   1      20.980 -19.325   1.196  0.00  0.00     0.014 A 
ENDBRANCH   7  21
TORSDOF 4
ENDMDL
MODEL 2
REMARK VINA RESULT:    -8.183      1.890      2.555
REMARK INTER + INTRA:          -9.973
REMARK INTER:                  -9.376
REMARK INTRA:                  -0.597
REMARK CONF_INDEPENDENT:        1.193
REMARK UNBOUND:                -0.597
REMARK  4 active torsions:
REMARK  status: ('A' for Active; 'I' for Inactive)
REMARK    1  A    between atoms: C_4  and  N_5 
REMARK    2  A    between atoms: N_5  and  C_6 
REMARK    3  A    between atoms: C_10  and  C_11 
REMARK    4  A    between atoms: C_18  and  C_19 
ROOT
ATOM      1  O   UNL d   1      21.809 -16.277  -0.895  0.00  0.00    -0.265 OA
ATOM      2  C   UNL d   1      22.770 -16.991  -0.619  0.00  0.00     0.291 A 
ATOM      3  N   UNL d   1      24.061 -16.568  -0.722  0.00  0.00    -0.151 N 
ATOM      4  C   UNL d   1      25.119 -17.368  -0.384  0.00  0.00     0.726 A 
ATOM      5  N   UNL d   1      24.914 -18.570   0.071  0.00  0.00     0.043 NA
ATOM      6  N   UNL d   1      23.627 -19.110   0.230  0.00  0.00    -0.128 NA
ATOM      7  C   UNL d   1      22.595 -18.401  -0.111  0.00  0.00     0.158 A 
ATOM      8  H   UNL d   1      24.192 -15.625  -1.047  0.00  0.00     0.188 HD
ENDROOT
BRANCH   4   9
ATOM      9  N   UNL d   1      26.380 -16.820  -0.543  0.00  0.00    -0.188 N 
ATOM     10  H   UNL d   1      27.205 -17.330  -0.263  0.00  0.00     0.184 HD
BRANCH   9  11
ATOM     11  C   UNL d   1      26.621 -15.626  -1.254  0.00  0.00     0.050 C 
ATOM     12  C   UNL d   1      27.041 -14.475  -0.576  0.00  0.00     0.030 C 
ATOM     13  C   UNL d   1      27.155 -13.249  -1.231  0.00  0.00     0.003 C 
ATOM     14  C   UNL d   1      26.725 -13.131  -2.547  0.00  0.00     0.016 C 
ATOM     15  C   UNL d   1      26.307 -14.268  -3.256  0.00  0.00     0.050 C 
ATOM     16  C   UNL d   1      26.349 -15.528  -2.626  0.00  0.00     0.046 C 
BRANCH  15  17
ATOM     17  C   UNL d   1      25.743 -14.095  -4.645  0.00  0.00     0.417 C 
ATOM     18  F   UNL d   1      24.418 -13.773  -4.629  0.00  0.00    -0.166 F 
ATOM     19  F   UNL d   1      26.357 -13.097  -5.341  0.00  0.00    -0.166 F 
ATOM     20  F   UNL d   1      25.845 -15.210  -5.419  0.00  0.00    -0.166 F 
ENDBRANCH  15  17
ENDBRANCH   9  11
ENDBRANCH   4   9
BRANCH   7  21
ATOM     21  C   UNL d   1      21.222 -18.948   0.038  0.00  0.00     0.000 A 
ATOM     22  C   UNL d   1      20.735 -19.327   1.293  0.00  0.00     0.014 A 
ATOM     23  C   UNL d   1      19.513 -19.997   1.393  0.00  0.00     0.001 A 
ATOM     24  C   UNL d   1      18.726 -20.192   0.259  0.00  0.00     0.000 A 
ATOM     25  C   UNL d   1      19.155 -19.701  -0.975  0.00  0.00     0.001 A 
ATOM     26  C   UNL d   1      20.421 -19.117  -1.097  0.00  0.00     0.014 A 
ENDBRANCH   7  21
TORSDOF 4
ENDMDL
MODEL 3
REMARK VINA RESULT:    -8.088      2.265      2.696
REMARK INTER + INTRA:          -9.830
REMARK INTER:                  -9.281
REMARK INTRA:                  -0.549
REMARK CONF_INDEPENDENT:        1.193
REMARK UNBOUND:                -0.549
REMARK  4 active torsions:
REMARK  status: ('A' for Active; 'I' for Inactive)
REMARK    1  A    between atoms: C_4  and  N_5 
REMARK    2  A    between atoms: N_5  and  C_6 
REMARK    3  A    between atoms: C_10  and  C_11 
REMARK    4  A    between atoms: C_18  and  C_19 
ROOT
ATOM      1  O   UNL d   1      20.996 -16.714  -1.228  0.00  0.00    -0.265 OA
ATOM      2  C   UNL d   1      22.078 -17.190  -0.895  0.00  0.00     0.291 A 
ATOM      3  N   UNL d   1      23.267 -16.570  -1.137  0.00  0.00    -0.151 N 
ATOM      4  C   UNL d   1      24.461 -17.103  -0.734  0.00  0.00     0.726 A 
ATOM      5  N   UNL d   1      24.492 -18.227  -0.079  0.00  0.00     0.043 NA
ATOM      6  N   UNL d   1      23.330 -18.950   0.237  0.00  0.00    -0.128 NA
ATOM      7  C   UNL d   1      22.177 -18.503  -0.156  0.00  0.00     0.158 A 
ATOM      8  H   UNL d   1      23.214 -15.688  -1.617  0.00  0.00     0.188 HD
ENDROOT
BRANCH   4   9
ATOM      9  N   UNL d   1      25.597 -16.376  -1.050  0.00  0.00    -0.188 N 
ATOM     10  H   UNL d   1      26.478 -16.572  -0.599  0.00  0.00     0.184 HD
BRANCH   9  11
ATOM     11  C   UNL d   1      25.657 -15.462  -2.122  0.00  0.00     0.050 C 
ATOM     12  C   UNL d   1      25.573 -15.918  -3.443  0.00  0.00     0.030 C 
ATOM     13  C   UNL d   1      25.765 -15.054  -4.521  0.00  0.00     0.003 C 
ATOM     14  C   UNL d   1      26.172 -13.746  -4.289  0.00  0.00     0.016 C 
ATOM     15  C   UNL d   1      26.257 -13.257  -2.977  0.00  0.00     0.050 C 
ATOM     16  C   UNL d   1      25.905 -14.099  -1.902  0.00  0.00     0.046 C 
BRANCH  15  17
ATOM     17  C   UNL d   1      26.807 -11.870  -2.750  0.00  0.00     0.417 C 
ATOM     18  F   UNL d   1      26.982 -11.593  -1.426  0.00  0.00    -0.166 F 
ATOM     19  F   UNL d   1      28.025 -11.687  -3.330  0.00  0.00    -0.166 F 
ATOM     20  F   UNL d   1      26.008 -10.880  -3.233  0.00  0.00    -0.166 F 
ENDBRANCH  15  17
ENDBRANCH   9  11
ENDBRANCH   4   9
BRANCH   7  21
ATOM     21  C   UNL d   1      20.931 -19.249   0.156  0.00  0.00     0.000 A 
ATOM     22  C   UNL d   1      20.016 -19.567  -0.853  0.00  0.00     0.014 A 
ATOM     23  C   UNL d   1      18.773 -20.114  -0.520  0.00  0.00     0.001 A 
ATOM     24  C   UNL d   1      18.487 -20.444   0.804  0.00  0.00     0.000 A 
ATOM     25  C   UNL d   1      19.449 -20.243   1.794  0.00  0.00     0.001 A 
ATOM     26  C   UNL d   1      20.655 -19.606   1.481  0.00  0.00     0.014 A 
ENDBRANCH   7  21
TORSDOF 4
ENDMDL
MODEL 4
REMARK VINA RESULT:    -7.391      4.391      8.941
REMARK INTER + INTRA:          -9.146
REMARK INTER:                  -8.584
REMARK INTRA:                  -0.562
REMARK CONF_INDEPENDENT:        1.193
REMARK UNBOUND:                -0.562
REMARK  4 active torsions:
REMARK  status: ('A' for Active; 'I' for Inactive)
REMARK    1  A    between atoms: C_4  and  N_5 
REMARK    2  A    between atoms: N_5  and  C_6 
REMARK    3  A    between atoms: C_10  and  C_11 
REMARK    4  A    between atoms: C_18  and  C_19 
ROOT
ATOM      1  O   UNL d   1      29.122 -13.996  -3.290  0.00  0.00    -0.265 OA
ATOM      2  C   UNL d   1      28.039 -14.406  -3.701  0.00  0.00     0.291 A 
ATOM      3  N   UNL d   1      26.930 -14.484  -2.914  0.00  0.00    -0.151 N 
ATOM      4  C   UNL d   1      25.724 -14.918  -3.396  0.00  0.00     0.726 A 
ATOM      5  N   UNL d   1      25.599 -15.254  -4.647  0.00  0.00     0.043 NA
ATOM      6  N   UNL d   1      26.670 -15.204  -5.554  0.00  0.00    -0.128 NA
ATOM      7  C   UNL d   1      27.841 -14.833  -5.135  0.00  0.00     0.158 A 
ATOM      8  H   UNL d   1      27.044 -14.190  -1.959  0.00  0.00     0.188 HD
ENDROOT
BRANCH   4   9
ATOM      9  N   UNL d   1      24.678 -14.959  -2.490  0.00  0.00    -0.188 N 
ATOM     10  H   UNL d   1      23.889 -14.336  -2.582  0.00  0.00     0.184 HD
BRANCH   9  11
ATOM     11  C   UNL d   1      24.544 -15.962  -1.507  0.00  0.00     0.050 C 
ATOM     12  C   UNL d   1      25.681 -16.508  -0.899  0.00  0.00     0.030 C 
ATOM     13  C   UNL d   1      25.586 -17.592  -0.026  0.00  0.00     0.003 C 
ATOM     14  C   UNL d   1      24.362 -18.226   0.149  0.00  0.00     0.016 C 
ATOM     15  C   UNL d   1      23.204 -17.698  -0.439  0.00  0.00     0.050 C 
ATOM     16  C   UNL d   1      23.292 -16.508  -1.190  0.00  0.00     0.046 C 
BRANCH  15  17
ATOM     17  C   UNL d   1      21.911 -18.467  -0.323  0.00  0.00     0.417 C 
ATOM     18  F   UNL d   1      21.545 -18.673   0.975  0.00  0.00    -0.166 F 
ATOM     19  F   UNL d   1      20.862 -17.821  -0.904  0.00  0.00    -0.166 F 
ATOM     20  F   UNL d   1      21.955 -19.701  -0.895  0.00  0.00    -0.166 F 
ENDBRANCH  15  17
ENDBRANCH   9  11
ENDBRANCH   4   9
BRANCH   7  21
ATOM     21  C   UNL d   1      28.994 -14.778  -6.069  0.00  0.00     0.000 A 
ATOM     22  C   UNL d   1      29.779 -15.911  -6.305  0.00  0.00     0.014 A 
ATOM     23  C   UNL d   1      30.958 -15.801  -7.048  0.00  0.00     0.001 A 
ATOM     24  C   UNL d   1      31.297 -14.587  -7.646  0.00  0.00     0.000 A 
ATOM     25  C   UNL d   1      30.448 -13.488  -7.515  0.00  0.00     0.001 A 
ATOM     26  C   UNL d   1      29.319 -13.567  -6.692  0.00  0.00     0.014 A 
ENDBRANCH   7  21
TORSDOF 4
ENDMDL
MODEL 5
REMARK VINA RESULT:    -7.299      5.416      6.690
REMARK INTER + INTRA:          -8.995
REMARK INTER:                  -8.493
REMARK INTRA:                  -0.503
REMARK CONF_INDEPENDENT:        1.193
REMARK UNBOUND:                -0.503
REMARK  4 active torsions:
REMARK  status: ('A' for Active; 'I' for Inactive)
REMARK    1  A    between atoms: C_4  and  N_5 
REMARK    2  A    between atoms: N_5  and  C_6 
REMARK    3  A    between atoms: C_10  and  C_11 
REMARK    4  A    between atoms: C_18  and  C_19 
ROOT
ATOM      1  O   UNL d   1      26.342 -18.434   1.086  0.00  0.00    -0.265 OA
ATOM      2  C   UNL d   1      26.519 -17.319   0.602  0.00  0.00     0.291 A 
ATOM      3  N   UNL d   1      27.681 -16.624   0.749  0.00  0.00    -0.151 N 
ATOM      4  C   UNL d   1      27.871 -15.394   0.179  0.00  0.00     0.726 A 
ATOM      5  N   UNL d   1      26.936 -14.854  -0.547  0.00  0.00     0.043 NA
ATOM      6  N   UNL d   1      25.700 -15.482  -0.777  0.00  0.00    -0.128 NA
ATOM      7  C   UNL d   1      25.461 -16.633  -0.228  0.00  0.00     0.158 A 
ATOM      8  H   UNL d   1      28.400 -17.075   1.289  0.00  0.00     0.188 HD
ENDROOT
BRANCH   4   9
ATOM      9  N   UNL d   1      29.095 -14.790   0.413  0.00  0.00    -0.188 N 
ATOM     10  H   UNL d   1      29.697 -14.527  -0.353  0.00  0.00     0.184 HD
BRANCH   9  11
ATOM     11  C   UNL d   1      29.506 -14.341   1.685  0.00  0.00     0.050 C 
ATOM     12  C   UNL d   1      30.865 -14.149   1.959  0.00  0.00     0.030 C 
ATOM     13  C   UNL d   1      31.308 -13.837   3.245  0.00  0.00     0.003 C 
ATOM     14  C   UNL d   1      30.406 -13.841   4.301  0.00  0.00     0.016 C 
ATOM     15  C   UNL d   1      29.036 -14.022   4.058  0.00  0.00     0.050 C 
ATOM     16  C   UNL d   1      28.586 -14.177   2.731  0.00  0.00     0.046 C 
BRANCH  15  17
ATOM     17  C   UNL d   1      28.095 -14.131   5.232  0.00  0.00     0.417 C 
ATOM     18  F   UNL d   1      28.349 -15.230   5.999  0.00  0.00    -0.166 F 
ATOM     19  F   UNL d   1      28.180 -13.064   6.075  0.00  0.00    -0.166 F 
ATOM     20  F   UNL d   1      26.785 -14.223   4.875  0.00  0.00    -0.166 F 
ENDBRANCH  15  17
ENDBRANCH   9  11
ENDBRANCH   4   9
BRANCH   7  21
ATOM     21  C   UNL d   1      24.161 -17.318  -0.447  0.00  0.00     0.000 A 
ATOM     22  C   UNL d   1      24.091 -18.713  -0.520  0.00  0.00     0.014 A 
ATOM     23  C   UNL d   1      22.895 -19.332  -0.897  0.00  0.00     0.001 A 
ATOM     24  C   UNL d   1      21.744 -18.569  -1.093  0.00  0.00     0.000 A 
ATOM     25  C   UNL d   1      21.785 -17.188  -0.896  0.00  0.00     0.001 A 
ATOM     26  C   UNL d   1      23.000 -16.555  -0.616  0.00  0.00     0.014 A 
ENDBRANCH   7  21
TORSDOF 4
ENDMDL
MODEL 6
REMARK VINA RESULT:    -7.230      7.253      9.370
REMARK INTER + INTRA:          -8.843
REMARK INTER:                  -8.423
REMARK INTRA:                  -0.421
REMARK CONF_INDEPENDENT:        1.193
REMARK UNBOUND:                -0.421
REMARK  4 active torsions:
REMARK  status: ('A' for Active; 'I' for Inactive)
REMARK    1  A    between atoms: C_4  and  N_5 
REMARK    2  A    between atoms: N_5  and  C_6 
REMARK    3  A    between atoms: C_10  and  C_11 
REMARK    4  A    between atoms: C_18  and  C_19 
ROOT
ATOM      1  O   UNL d   1      28.674 -15.963  -0.850  0.00  0.00    -0.265 OA
ATOM      2  C   UNL d   1      28.154 -15.348   0.078  0.00  0.00     0.291 A 
ATOM      3  N   UNL d   1      28.628 -15.395   1.355  0.00  0.00    -0.151 N 
ATOM      4  C   UNL d   1      28.052 -14.681   2.371  0.00  0.00     0.726 A 
ATOM      5  N   UNL d   1      27.030 -13.910   2.137  0.00  0.00     0.043 NA
ATOM      6  N   UNL d   1      26.463 -13.774   0.859  0.00  0.00    -0.128 NA
ATOM      7  C   UNL d   1      26.952 -14.459  -0.130  0.00  0.00     0.158 A 
ATOM      8  H   UNL d   1      29.436 -15.973   1.505  0.00  0.00     0.188 HD
ENDROOT
BRANCH   4   9
ATOM      9  N   UNL d   1      28.625 -14.823   3.624  0.00  0.00    -0.188 N 
ATOM     10  H   UNL d   1      29.327 -15.528   3.795  0.00  0.00     0.184 HD
BRANCH   9  11
ATOM     11  C   UNL d   1      28.419 -13.908   4.677  0.00  0.00     0.050 C 
ATOM     12  C   UNL d   1      28.166 -12.560   4.400  0.00  0.00     0.030 C 
ATOM     13  C   UNL d   1      28.094 -11.611   5.420  0.00  0.00     0.003 C 
ATOM     14  C   UNL d   1      28.402 -11.980   6.723  0.00  0.00     0.016 C 
ATOM     15  C   UNL d   1      28.651 -13.325   7.035  0.00  0.00     0.050 C 
ATOM     16  C   UNL d   1      28.563 -14.297   6.017  0.00  0.00     0.046 C 
BRANCH  15  17
ATOM     17  C   UNL d   1      29.090 -13.681   8.434  0.00  0.00     0.417 C 
ATOM     18  F   UNL d   1      28.531 -14.845   8.872  0.00  0.00    -0.166 F 
ATOM     19  F   UNL d   1      30.437 -13.858   8.533  0.00  0.00    -0.166 F 
ATOM     20  F   UNL d   1      28.765 -12.742   9.364  0.00  0.00    -0.166 F 
ENDBRANCH  15  17
ENDBRANCH   9  11
ENDBRANCH   4   9
BRANCH   7  21
ATOM     21  C   UNL d   1      26.369 -14.342  -1.490  0.00  0.00     0.000 A 
ATOM     22  C   UNL d   1      25.914 -15.475  -2.173  0.00  0.00     0.014 A 
ATOM     23  C   UNL d   1      25.530 -15.374  -3.513  0.00  0.00     0.001 A 
ATOM     24  C   UNL d   1      25.494 -14.128  -4.139  0.00  0.00     0.000 A 
ATOM     25  C   UNL d   1      25.828 -12.980  -3.419  0.00  0.00     0.001 A 
ATOM     26  C   UNL d   1      26.307 -13.088  -2.108  0.00  0.00     0.014 A 
ENDBRANCH   7  21
TORSDOF 4
ENDMDL
MODEL 7
REMARK VINA RESULT:    -7.181      3.498      5.191
REMARK INTER + INTRA:          -8.935
REMARK INTER:                  -8.374
REMARK INTRA:                  -0.561
REMARK CONF_INDEPENDENT:        1.193
REMARK UNBOUND:                -0.561
REMARK  4 active torsions:
REMARK  status: ('A' for Active; 'I' for Inactive)
REMARK    1  A    between atoms: C_4  and  N_5 
REMARK    2  A    between atoms: N_5  and  C_6 
REMARK    3  A    between atoms: C_10  and  C_11 
REMARK    4  A    between atoms: C_18  and  C_19 
ROOT
ATOM      1  O   UNL d   1      26.281 -13.570  -0.868  0.00  0.00    -0.265 OA
ATOM      2  C   UNL d   1      25.915 -13.790  -2.020  0.00  0.00     0.291 A 
ATOM      3  N   UNL d   1      25.897 -12.830  -2.988  0.00  0.00    -0.151 N 
ATOM      4  C   UNL d   1      25.512 -13.100  -4.273  0.00  0.00     0.726 A 
ATOM      5  N   UNL d   1      25.165 -14.307  -4.616  0.00  0.00     0.043 NA
ATOM      6  N   UNL d   1      25.155 -15.378  -3.707  0.00  0.00    -0.128 NA
ATOM      7  C   UNL d   1      25.478 -15.163  -2.469  0.00  0.00     0.158 A 
ATOM      8  H   UNL d   1      26.198 -11.913  -2.706  0.00  0.00     0.188 HD
ENDROOT
BRANCH   4   9
ATOM      9  N   UNL d   1      25.530 -12.035  -5.157  0.00  0.00    -0.188 N 
ATOM     10  H   UNL d   1      24.867 -11.279  -5.071  0.00  0.00     0.184 HD
BRANCH   9  11
ATOM     11  C   UNL d   1      26.557 -11.832  -6.103  0.00  0.00     0.050 C 
ATOM     12  C   UNL d   1      26.348 -10.984  -7.198  0.00  0.00     0.030 C 
ATOM     13  C   UNL d   1      27.294 -10.872  -8.217  0.00  0.00     0.003 C 
ATOM     14  C   UNL d   1      28.405 -11.706  -8.218  0.00  0.00     0.016 C 
ATOM     15  C   UNL d   1      28.646 -12.560  -7.131  0.00  0.00     0.050 C 
ATOM     16  C   UNL d   1      27.762 -12.545  -6.033  0.00  0.00     0.046 C 
BRANCH  15  17
ATOM     17  C   UNL d   1      29.797 -13.532  -7.209  0.00  0.00     0.417 C 
ATOM     18  F   UNL d   1      30.577 -13.325  -8.309  0.00  0.00    -0.166 F 
ATOM     19  F   UNL d   1      30.636 -13.439  -6.139  0.00  0.00    -0.166 F 
ATOM     20  F   UNL d   1      29.409 -14.835  -7.270  0.00  0.00    -0.166 F 
ENDBRANCH  15  17
ENDBRANCH   9  11
ENDBRANCH   4   9
BRANCH   7  21
ATOM     21  C   UNL d   1      25.469 -16.274  -1.483  0.00  0.00     0.000 A 
ATOM     22  C   UNL d   1      24.290 -16.973  -1.204  0.00  0.00     0.014 A 
ATOM     23  C   UNL d   1      24.259 -17.895  -0.154  0.00  0.00     0.001 A 
ATOM     24  C   UNL d   1      25.427 -18.200   0.545  0.00  0.00     0.000 A 
ATOM     25  C   UNL d   1      26.631 -17.595   0.182  0.00  0.00     0.001 A 
ATOM     26  C   UNL d   1      26.647 -16.600  -0.802  0.00  0.00     0.014 A 
ENDBRANCH   7  21
TORSDOF 4
ENDMDL
MODEL 8
REMARK VINA RESULT:    -7.127      6.432      8.644
REMARK INTER + INTRA:          -8.780
REMARK INTER:                  -8.320
REMARK INTRA:                  -0.460
REMARK CONF_INDEPENDENT:        1.193
REMARK UNBOUND:                -0.460
REMARK  4 active torsions:
REMARK  status: ('A' for Active; 'I' for Inactive)
REMARK    1  A    between atoms: C_4  and  N_5 
REMARK    2  A    between atoms: N_5  and  C_6 
REMARK    3  A    between atoms: C_10  and  C_11 
REMARK    4  A    between atoms: C_18  and  C_19 
ROOT
ATOM      1  O   UNL d   1      28.593 -16.207  -1.033  0.00  0.00    -0.265 OA
ATOM      2  C   UNL d   1      28.088 -15.505  -0.160  0.00  0.00     0.291 A 
ATOM      3  N   UNL d   1      28.528 -15.497   1.130  0.00  0.00    -0.151 N 
ATOM      4  C   UNL d   1      27.972 -14.688   2.083  0.00  0.00     0.726 A 
ATOM      5  N   UNL d   1      27.003 -13.876   1.774  0.00  0.00     0.043 NA
ATOM      6  N   UNL d   1      26.475 -13.791   0.475  0.00  0.00    -0.128 NA
ATOM      7  C   UNL d   1      26.946 -14.564  -0.455  0.00  0.00     0.158 A 
ATOM      8  H   UNL d   1      29.298 -16.110   1.337  0.00  0.00     0.188 HD
ENDROOT
BRANCH   4   9
ATOM      9  N   UNL d   1      28.506 -14.782   3.358  0.00  0.00    -0.188 N 
ATOM     10  H   UNL d   1      29.071 -15.575   3.625  0.00  0.00     0.184 HD
BRANCH   9  11
ATOM     11  C   UNL d   1      28.462 -13.729   4.295  0.00  0.00     0.050 C 
ATOM     12  C   UNL d   1      28.342 -14.006   5.661  0.00  0.00     0.030 C 
ATOM     13  C   UNL d   1      28.161 -12.986   6.595  0.00  0.00     0.003 C 
ATOM     14  C   UNL d   1      27.966 -11.682   6.157  0.00  0.00     0.016 C 
ATOM     15  C   UNL d   1      28.088 -11.370   4.795  0.00  0.00     0.050 C 
ATOM     16  C   UNL d   1      28.431 -12.389   3.882  0.00  0.00     0.046 C 
BRANCH  15  17
ATOM     17  C   UNL d   1      27.764  -9.970   4.335  0.00  0.00     0.417 C 
ATOM     18  F   UNL d   1      28.364  -9.663   3.149  0.00  0.00    -0.166 F 
ATOM     19  F   UNL d   1      26.431  -9.778   4.135  0.00  0.00    -0.166 F 
ATOM     20  F   UNL d   1      28.156  -9.003   5.209  0.00  0.00    -0.166 F 
ENDBRANCH  15  17
ENDBRANCH   9  11
ENDBRANCH   4   9
BRANCH   7  21
ATOM     21  C   UNL d   1      26.402 -14.501  -1.835  0.00  0.00     0.000 A 
ATOM     22  C   UNL d   1      26.240 -15.666  -2.594  0.00  0.00     0.014 A 
ATOM     23  C   UNL d   1      25.893 -15.575  -3.945  0.00  0.00     0.001 A 
ATOM     24  C   UNL d   1      25.601 -14.335  -4.510  0.00  0.00     0.000 A 
ATOM     25  C   UNL d   1      25.640 -13.185  -3.721  0.00  0.00     0.001 A 
ATOM     26  C   UNL d   1      26.082 -13.259  -2.395  0.00  0.00     0.014 A 
ENDBRANCH   7  21
TORSDOF 4
ENDMDL
