MODEL 1
REMARK VINA RESULT:   -10.046      0.000      0.000
REMARK INTER + INTRA:         -14.479
REMARK INTER:                 -13.029
REMARK INTRA:                  -1.450
REMARK CONF_INDEPENDENT:        2.983
REMARK UNBOUND:                -1.450
REMARK  10 active torsions:
REMARK  status: ('A' for Active; 'I' for Inactive)
REMARK    1  A    between atoms: C_2  and  C_3 
REMARK    2  A    between atoms: C_3  and  C_4 
REMARK    3  A    between atoms: C_4  and  O_5 
REMARK    4  A    between atoms: O_5  and  C_6 
REMARK    5  A    between atoms: C_9  and  N_10 
REMARK       I    between atoms: N_10  and  C_11 
REMARK    6  A    between atoms: C_11  and  C_13 
REMARK    7  A    between atoms: C_13  and  N_14 
REMARK    8  A    between atoms: N_14  and  C_15 
REMARK    9  A    between atoms: C_20  and  C_21 
REMARK       I    between atoms: C_21  and  N_23 
REMARK   10  A    between atoms: N_23  and  C_24 
ROOT
ATOM      1  N   UNL d   1      28.932 -15.622   0.622  0.00  0.00    -0.381 N 
ATOM      2  H   UNL d   1      29.134 -16.456   1.182  0.00  0.00     0.160 HD
ENDROOT
BRANCH   1   3
ATOM      3  C   UNL d   1      28.684 -15.887  -0.801  0.00  0.00     0.223 C 
BRANCH   3   4
ATOM      4  C   UNL d   1      27.168 -16.011  -1.006  0.00  0.00     0.239 C 
ATOM      5  N   UNL d   1      26.524 -17.059  -0.344  0.00  0.00    -0.326 N 
ATOM      6  H   UNL d   1      27.078 -17.709   0.203  0.00  0.00     0.169 HD
ATOM      7  O   UNL d   1      26.627 -15.194  -1.757  0.00  0.00    -0.271 OA
BRANCH   5   8
ATOM      8  C   UNL d   1      25.133 -17.347  -0.469  0.00  0.00     0.034 A 
ATOM      9  C   UNL d   1      24.223 -16.369  -0.893  0.00  0.00     0.032 A 
ATOM     10  C   UNL d   1      22.835 -16.641  -0.896  0.00  0.00     0.039 A 
ATOM     11  C   UNL d   1      22.348 -17.902  -0.539  0.00  0.00     0.068 A 
ATOM     12  C   UNL d   1      23.253 -18.884  -0.179  0.00  0.00     0.039 A 
ATOM     13  C   UNL d   1      24.617 -18.604  -0.149  0.00  0.00     0.032 A 
BRANCH  11  14
ATOM     14  O   UNL d   1      21.005 -18.125  -0.669  0.00  0.00    -0.351 OA
BRANCH  14  15
ATOM     15  C   UNL d   1      20.630 -19.490  -0.900  0.00  0.00     0.175 C 
BRANCH  15  16
ATOM     16  C   UNL d   1      19.156 -19.658  -0.548  0.00  0.00     0.026 C 
BRANCH  16  17
ATOM     17  C   UNL d   1      18.973 -20.627   0.617  0.00  0.00    -0.002 C 
ATOM     18  C   UNL d   1      19.449 -20.009   1.921  0.00  0.00     0.005 C 
ENDBRANCH  16  17
ENDBRANCH  15  16
ENDBRANCH  14  15
ENDBRANCH  11  14
ENDBRANCH   5   8
ENDBRANCH   3   4
ENDBRANCH   1   3
BRANCH   1  19
ATOM     19  C   UNL d   1      28.552 -14.489   1.297  0.00  0.00     0.029 A 
ATOM     20  C   UNL d   1      28.148 -13.367   0.571  0.00  0.00     0.031 A 
ATOM     21  C   UNL d   1      27.750 -12.198   1.213  0.00  0.00     0.027 A 
ATOM     22  C   UNL d   1      27.694 -12.148   2.601  0.00  0.00     0.049 A 
ATOM     23 CL   UNL d   1      27.031 -10.670   3.229  0.00  0.00    -0.083 Cl
ATOM     24  C   UNL d   1      28.116 -13.261   3.357  0.00  0.00     0.055 A 
ATOM     25  C   UNL d   1      28.529 -14.422   2.687  0.00  0.00     0.048 A 
BRANCH  24  26
ATOM     26  C   UNL d   1      28.174 -13.201   4.833  0.00  0.00     0.253 C 
ATOM     27  O   UNL d   1      27.109 -13.346   5.431  0.00  0.00    -0.268 OA
ATOM     28  N   UNL d   1      29.374 -12.967   5.493  0.00  0.00    -0.352 N 
ATOM     29  H   UNL d   1      30.239 -12.869   4.984  0.00  0.00     0.163 HD
BRANCH  28  30
ATOM     30  C   UNL d   1      29.493 -12.861   6.956  0.00  0.00     0.084 C 
ATOM     31  C   UNL d   1      28.516 -11.805   7.496  0.00  0.00     0.025 C 
ATOM     32  C   UNL d   1      28.531 -11.737   9.026  0.00  0.00     0.002 C 
ATOM     33  C   UNL d   1      28.286 -13.101   9.663  0.00  0.00     0.000 C 
ATOM     34  C   UNL d   1      29.319 -14.105   9.185  0.00  0.00     0.002 C 
ATOM     35  C   UNL d   1      29.288 -14.193   7.683  0.00  0.00     0.025 C 
ENDBRANCH  28  30
ENDBRANCH  24  26
ENDBRANCH   1  19
TORSDOF 10
ENDMDL
MODEL 2
REMARK VINA RESULT:    -9.902      4.946      8.490
REMARK INTER + INTRA:         -14.321
REMARK INTER:                 -12.885
REMARK INTRA:                  -1.436
REMARK CONF_INDEPENDENT:        2.983
REMARK UNBOUND:                -1.436
REMARK  10 active torsions:
REMARK  status: ('A' for Active; 'I' for Inactive)
REMARK    1  A    between atoms: C_2  and  C_3 
REMARK    2  A    between atoms: C_3  and  C_4 
REMARK    3  A    between atoms: C_4  and  O_5 
REMARK    4  A    between atoms: O_5  and  C_6 
REMARK    5  A    between atoms: C_9  and  N_10 
REMARK       I    between atoms: N_10  and  C_11 
REMARK    6  A    between atoms: C_11  and  C_13 
REMARK    7  A    between atoms: C_13  and  N_14 
REMARK    8  A    between atoms: N_14  and  C_15 
REMARK    9  A    between atoms: C_20  and  C_21 
REMARK       I    between atoms: C_21  and  N_23 
REMARK   10  A    between atoms: N_23  and  C_24 
ROOT
ATOM      1  N   UNL d   1      29.085 -17.052  -0.427  0.00  0.00    -0.381 N 
ATOM      2  H   UNL d   1      29.534 -17.787   0.130  0.00  0.00     0.160 HD
ENDROOT
BRANCH   1   3
ATOM      3  C   UNL d   1      28.538 -15.939   0.360  0.00  0.00     0.223 C 
BRANCH   3   4
ATOM      4  C   UNL d   1      27.010 -15.961   0.218  0.00  0.00     0.239 C 
ATOM      5  N   UNL d   1      26.414 -17.203  -0.012  0.00  0.00    -0.326 N 
ATOM      6  H   UNL d   1      27.006 -18.021  -0.115  0.00  0.00     0.169 HD
ATOM      7  O   UNL d   1      26.416 -14.882   0.293  0.00  0.00    -0.271 OA
BRANCH   5   8
ATOM      8  C   UNL d   1      25.016 -17.392  -0.221  0.00  0.00     0.034 A 
ATOM      9  C   UNL d   1      24.437 -18.666  -0.156  0.00  0.00     0.032 A 
ATOM     10  C   UNL d   1      23.073 -18.846  -0.483  0.00  0.00     0.039 A 
ATOM     11  C   UNL d   1      22.262 -17.756  -0.813  0.00  0.00     0.068 A 
ATOM     12  C   UNL d   1      22.822 -16.492  -0.818  0.00  0.00     0.039 A 
ATOM     13  C   UNL d   1      24.172 -16.322  -0.524  0.00  0.00     0.032 A 
BRANCH  11  14
ATOM     14  O   UNL d   1      20.929 -17.992  -1.012  0.00  0.00    -0.351 OA
BRANCH  14  15
ATOM     15  C   UNL d   1      20.545 -19.374  -1.008  0.00  0.00     0.175 C 
BRANCH  15  16
ATOM     16  C   UNL d   1      19.222 -19.510  -0.262  0.00  0.00     0.026 C 
BRANCH  16  17
ATOM     17  C   UNL d   1      19.323 -20.543   0.858  0.00  0.00    -0.002 C 
ATOM     18  C   UNL d   1      18.032 -21.333   0.989  0.00  0.00     0.005 C 
ENDBRANCH  16  17
ENDBRANCH  15  16
ENDBRANCH  14  15
ENDBRANCH  11  14
ENDBRANCH   5   8
ENDBRANCH   3   4
ENDBRANCH   1   3
BRANCH   1  19
ATOM     19  C   UNL d   1      29.383 -17.008  -1.766  0.00  0.00     0.029 A 
ATOM     20  C   UNL d   1      30.443 -17.776  -2.253  0.00  0.00     0.031 A 
ATOM     21  C   UNL d   1      30.777 -17.766  -3.604  0.00  0.00     0.027 A 
ATOM     22  C   UNL d   1      30.019 -17.029  -4.506  0.00  0.00     0.049 A 
ATOM     23 CL   UNL d   1      30.481 -17.252  -6.166  0.00  0.00    -0.083 Cl
ATOM     24  C   UNL d   1      28.956 -16.229  -4.035  0.00  0.00     0.055 A 
ATOM     25  C   UNL d   1      28.649 -16.243  -2.667  0.00  0.00     0.048 A 
BRANCH  24  26
ATOM     26  C   UNL d   1      28.201 -15.350  -4.953  0.00  0.00     0.253 C 
ATOM     27  O   UNL d   1      26.997 -15.573  -5.061  0.00  0.00    -0.268 OA
ATOM     28  N   UNL d   1      28.842 -14.344  -5.667  0.00  0.00    -0.352 N 
ATOM     29  H   UNL d   1      29.827 -14.166  -5.548  0.00  0.00     0.163 HD
BRANCH  28  30
ATOM     30  C   UNL d   1      28.156 -13.457  -6.621  0.00  0.00     0.084 C 
ATOM     31  C   UNL d   1      27.427 -12.330  -5.872  0.00  0.00     0.025 C 
ATOM     32  C   UNL d   1      26.787 -11.323  -6.832  0.00  0.00     0.002 C 
ATOM     33  C   UNL d   1      27.794 -10.767  -7.834  0.00  0.00     0.000 C 
ATOM     34  C   UNL d   1      28.435 -11.892  -8.625  0.00  0.00     0.002 C 
ATOM     35  C   UNL d   1      29.087 -12.870  -7.685  0.00  0.00     0.025 C 
ENDBRANCH  28  30
ENDBRANCH  24  26
ENDBRANCH   1  19
TORSDOF 10
ENDMDL
MODEL 3
REMARK VINA RESULT:    -9.792      4.979      8.261
REMARK INTER + INTRA:         -14.247
REMARK INTER:                 -12.775
REMARK INTRA:                  -1.472
REMARK CONF_INDEPENDENT:        2.983
REMARK UNBOUND:                -1.472
REMARK  10 active torsions:
REMARK  status: ('A' for Active; 'I' for Inactive)
REMARK    1  A    between atoms: C_2  and  C_3 
REMARK    2  A    between atoms: C_3  and  C_4 
REMARK    3  A    between atoms: C_4  and  O_5 
REMARK    4  A    between atoms: O_5  and  C_6 
REMARK    5  A    between atoms: C_9  and  N_10 
REMARK       I    between atoms: N_10  and  C_11 
REMARK    6  A    between atoms: C_11  and  C_13 
REMARK    7  A    between atoms: C_13  and  N_14 
REMARK    8  A    between atoms: N_14  and  C_15 
REMARK    9  A    between atoms: C_20  and  C_21 
REMARK       I    between atoms: C_21  and  N_23 
REMARK   10  A    between atoms: N_23  and  C_24 
ROOT
ATOM      1  N   UNL d   1      28.125 -15.408  -0.018  0.00  0.00    -0.381 N 
ATOM      2  H   UNL d   1      28.130 -14.758   0.776  0.00  0.00     0.160 HD
ENDROOT
BRANCH   1   3
ATOM      3  C   UNL d   1      28.248 -16.824   0.352  0.00  0.00     0.223 C 
BRANCH   3   4
ATOM      4  C   UNL d   1      26.925 -17.522   0.010  0.00  0.00     0.239 C 
ATOM      5  N   UNL d   1      25.786 -16.717  -0.069  0.00  0.00    -0.326 N 
ATOM      6  H   UNL d   1      25.869 -15.727   0.137  0.00  0.00     0.169 HD
ATOM      7  O   UNL d   1      26.951 -18.746  -0.147  0.00  0.00    -0.271 OA
BRANCH   5   8
ATOM      8  C   UNL d   1      24.473 -17.213  -0.323  0.00  0.00     0.034 A 
ATOM      9  C   UNL d   1      23.445 -16.362  -0.750  0.00  0.00     0.032 A 
ATOM     10  C   UNL d   1      22.124 -16.850  -0.881  0.00  0.00     0.039 A 
ATOM     11  C   UNL d   1      21.829 -18.197  -0.650  0.00  0.00     0.068 A 
ATOM     12  C   UNL d   1      22.857 -19.047  -0.285  0.00  0.00     0.039 A 
ATOM     13  C   UNL d   1      24.151 -18.556  -0.130  0.00  0.00     0.032 A 
BRANCH  11  14
ATOM     14  O   UNL d   1      20.552 -18.620  -0.899  0.00  0.00    -0.351 OA
BRANCH  14  15
ATOM     15  C   UNL d   1      20.277 -19.981  -0.538  0.00  0.00     0.175 C 
BRANCH  15  16
ATOM     16  C   UNL d   1      18.832 -20.076  -0.060  0.00  0.00     0.026 C 
BRANCH  16  17
ATOM     17  C   UNL d   1      18.759 -20.180   1.461  0.00  0.00    -0.002 C 
ATOM     18  C   UNL d   1      20.046 -19.693   2.104  0.00  0.00     0.005 C 
ENDBRANCH  16  17
ENDBRANCH  15  16
ENDBRANCH  14  15
ENDBRANCH  11  14
ENDBRANCH   5   8
ENDBRANCH   3   4
ENDBRANCH   1   3
BRANCH   1  19
ATOM     19  C   UNL d   1      27.636 -14.937  -1.211  0.00  0.00     0.029 A 
ATOM     20  C   UNL d   1      26.615 -13.986  -1.201  0.00  0.00     0.031 A 
ATOM     21  C   UNL d   1      26.092 -13.477  -2.386  0.00  0.00     0.027 A 
ATOM     22  C   UNL d   1      26.623 -13.871  -3.609  0.00  0.00     0.049 A 
ATOM     23 CL   UNL d   1      25.958 -13.025  -4.974  0.00  0.00    -0.083 Cl
ATOM     24  C   UNL d   1      27.641 -14.847  -3.647  0.00  0.00     0.055 A 
ATOM     25  C   UNL d   1      28.140 -15.356  -2.439  0.00  0.00     0.048 A 
BRANCH  24  26
ATOM     26  C   UNL d   1      28.149 -15.367  -4.933  0.00  0.00     0.253 C 
ATOM     27  O   UNL d   1      27.344 -15.420  -5.861  0.00  0.00    -0.268 OA
ATOM     28  N   UNL d   1      29.466 -15.794  -5.062  0.00  0.00    -0.352 N 
ATOM     29  H   UNL d   1      30.114 -15.725  -4.293  0.00  0.00     0.163 HD
BRANCH  28  30
ATOM     30  C   UNL d   1      30.024 -16.354  -6.303  0.00  0.00     0.084 C 
ATOM     31  C   UNL d   1      31.235 -15.527  -6.764  0.00  0.00     0.025 C 
ATOM     32  C   UNL d   1      31.912 -16.136  -7.995  0.00  0.00     0.002 C 
ATOM     33  C   UNL d   1      32.285 -17.600  -7.778  0.00  0.00     0.000 C 
ATOM     34  C   UNL d   1      31.058 -18.414  -7.414  0.00  0.00     0.002 C 
ATOM     35  C   UNL d   1      30.405 -17.833  -6.188  0.00  0.00     0.025 C 
ENDBRANCH  28  30
ENDBRANCH  24  26
ENDBRANCH   1  19
TORSDOF 10
ENDMDL
MODEL 4
REMARK VINA RESULT:    -9.671      5.759      9.896
REMARK INTER + INTRA:         -14.398
REMARK INTER:                 -12.654
REMARK INTRA:                  -1.744
REMARK CONF_INDEPENDENT:        2.983
REMARK UNBOUND:                -1.744
REMARK  10 active torsions:
REMARK  status: ('A' for Active; 'I' for Inactive)
REMARK    1  A    between atoms: C_2  and  C_3 
REMARK    2  A    between atoms: C_3  and  C_4 
REMARK    3  A    between atoms: C_4  and  O_5 
REMARK    4  A    between atoms: O_5  and  C_6 
REMARK    5  A    between atoms: C_9  and  N_10 
REMARK       I    between atoms: N_10  and  C_11 
REMARK    6  A    between atoms: C_11  and  C_13 
REMARK    7  A    between atoms: C_13  and  N_14 
REMARK    8  A    between atoms: N_14  and  C_15 
REMARK    9  A    between atoms: C_20  and  C_21 
REMARK       I    between atoms: C_21  and  N_23 
REMARK   10  A    between atoms: N_23  and  C_24 
ROOT
ATOM      1  N   UNL d   1      25.038 -13.608  -2.816  0.00  0.00    -0.381 N 
ATOM      2  H   UNL d   1      25.071 -12.711  -2.321  0.00  0.00     0.160 HD
ENDROOT
BRANCH   1   3
ATOM      3  C   UNL d   1      25.159 -13.505  -4.276  0.00  0.00     0.223 C 
BRANCH   3   4
ATOM      4  C   UNL d   1      26.101 -14.616  -4.756  0.00  0.00     0.239 C 
ATOM      5  N   UNL d   1      27.471 -14.346  -4.718  0.00  0.00    -0.326 N 
ATOM      6  H   UNL d   1      27.782 -13.428  -4.417  0.00  0.00     0.169 HD
ATOM      7  O   UNL d   1      25.586 -15.662  -5.165  0.00  0.00    -0.271 OA
BRANCH   5   8
ATOM      8  C   UNL d   1      28.476 -15.247  -5.177  0.00  0.00     0.034 A 
ATOM      9  C   UNL d   1      28.978 -16.260  -4.349  0.00  0.00     0.032 A 
ATOM     10  C   UNL d   1      30.057 -17.065  -4.782  0.00  0.00     0.039 A 
ATOM     11  C   UNL d   1      30.601 -16.913  -6.061  0.00  0.00     0.068 A 
ATOM     12  C   UNL d   1      30.064 -15.951  -6.898  0.00  0.00     0.039 A 
ATOM     13  C   UNL d   1      29.021 -15.141  -6.458  0.00  0.00     0.032 A 
BRANCH  11  14
ATOM     14  O   UNL d   1      31.569 -17.797  -6.450  0.00  0.00    -0.351 OA
BRANCH  14  15
ATOM     15  C   UNL d   1      31.275 -19.177  -6.195  0.00  0.00     0.175 C 
BRANCH  15  16
ATOM     16  C   UNL d   1      30.781 -19.818  -7.488  0.00  0.00     0.026 C 
BRANCH  16  17
ATOM     17  C   UNL d   1      31.759 -19.574  -8.635  0.00  0.00    -0.002 C 
ATOM     18  C   UNL d   1      31.102 -19.838  -9.978  0.00  0.00     0.005 C 
ENDBRANCH  16  17
ENDBRANCH  15  16
ENDBRANCH  14  15
ENDBRANCH  11  14
ENDBRANCH   5   8
ENDBRANCH   3   4
ENDBRANCH   1   3
BRANCH   1  19
ATOM     19  C   UNL d   1      25.272 -14.741  -2.077  0.00  0.00     0.029 A 
ATOM     20  C   UNL d   1      26.511 -14.905  -1.456  0.00  0.00     0.031 A 
ATOM     21  C   UNL d   1      26.791 -16.036  -0.694  0.00  0.00     0.027 A 
ATOM     22  C   UNL d   1      25.812 -17.002  -0.492  0.00  0.00     0.049 A 
ATOM     23 CL   UNL d   1      26.280 -18.264   0.607  0.00  0.00    -0.083 Cl
ATOM     24  C   UNL d   1      24.558 -16.869  -1.126  0.00  0.00     0.055 A 
ATOM     25  C   UNL d   1      24.306 -15.729  -1.902  0.00  0.00     0.048 A 
BRANCH  24  26
ATOM     26  C   UNL d   1      23.536 -17.931  -1.020  0.00  0.00     0.253 C 
ATOM     27  O   UNL d   1      23.468 -18.724  -1.958  0.00  0.00    -0.268 OA
ATOM     28  N   UNL d   1      22.686 -17.999   0.078  0.00  0.00    -0.352 N 
ATOM     29  H   UNL d   1      22.772 -17.350   0.845  0.00  0.00     0.163 HD
BRANCH  28  30
ATOM     30  C   UNL d   1      21.626 -19.009   0.227  0.00  0.00     0.084 C 
ATOM     31  C   UNL d   1      21.029 -18.950   1.643  0.00  0.00     0.025 C 
ATOM     32  C   UNL d   1      19.850 -19.912   1.810  0.00  0.00     0.002 C 
ATOM     33  C   UNL d   1      18.781 -19.698   0.743  0.00  0.00     0.000 C 
ATOM     34  C   UNL d   1      19.374 -19.851  -0.645  0.00  0.00     0.002 C 
ATOM     35  C   UNL d   1      20.517 -18.888  -0.821  0.00  0.00     0.025 C 
ENDBRANCH  28  30
ENDBRANCH  24  26
ENDBRANCH   1  19
TORSDOF 10
ENDMDL
MODEL 5
REMARK VINA RESULT:    -9.562      0.814      1.470
REMARK INTER + INTRA:         -13.852
REMARK INTER:                 -12.545
REMARK INTRA:                  -1.306
REMARK CONF_INDEPENDENT:        2.983
REMARK UNBOUND:                -1.306
REMARK  10 active torsions:
REMARK  status: ('A' for Active; 'I' for Inactive)
REMARK    1  A    between atoms: C_2  and  C_3 
REMARK    2  A    between atoms: C_3  and  C_4 
REMARK    3  A    between atoms: C_4  and  O_5 
REMARK    4  A    between atoms: O_5  and  C_6 
REMARK    5  A    between atoms: C_9  and  N_10 
REMARK       I    between atoms: N_10  and  C_11 
REMARK    6  A    between atoms: C_11  and  C_13 
REMARK    7  A    between atoms: C_13  and  N_14 
REMARK    8  A    between atoms: N_14  and  C_15 
REMARK    9  A    between atoms: C_20  and  C_21 
REMARK       I    between atoms: C_21  and  N_23 
REMARK   10  A    between atoms: N_23  and  C_24 
ROOT
ATOM      1  N   UNL d   1      28.655 -14.489   0.226  0.00  0.00    -0.381 N 
ATOM      2  H   UNL d   1      29.434 -14.291  -0.411  0.00  0.00     0.160 HD
ENDROOT
BRANCH   1   3
ATOM      3  C   UNL d   1      28.240 -15.897   0.264  0.00  0.00     0.223 C 
BRANCH   3   4
ATOM      4  C   UNL d   1      26.713 -15.947   0.128  0.00  0.00     0.239 C 
ATOM      5  N   UNL d   1      26.136 -17.205  -0.065  0.00  0.00    -0.326 N 
ATOM      6  H   UNL d   1      26.740 -18.016  -0.145  0.00  0.00     0.169 HD
ATOM      7  O   UNL d   1      26.102 -14.875   0.173  0.00  0.00    -0.271 OA
BRANCH   5   8
ATOM      8  C   UNL d   1      24.740 -17.421  -0.263  0.00  0.00     0.034 A 
ATOM      9  C   UNL d   1      24.180 -18.701  -0.153  0.00  0.00     0.032 A 
ATOM     10  C   UNL d   1      22.818 -18.912  -0.470  0.00  0.00     0.039 A 
ATOM     11  C   UNL d   1      21.991 -17.846  -0.837  0.00  0.00     0.068 A 
ATOM     12  C   UNL d   1      22.532 -16.575  -0.887  0.00  0.00     0.039 A 
ATOM     13  C   UNL d   1      23.880 -16.375  -0.602  0.00  0.00     0.032 A 
BRANCH  11  14
ATOM     14  O   UNL d   1      20.661 -18.109  -1.025  0.00  0.00    -0.351 OA
BRANCH  14  15
ATOM     15  C   UNL d   1      20.319 -19.498  -1.119  0.00  0.00     0.175 C 
BRANCH  15  16
ATOM     16  C   UNL d   1      19.034 -19.739  -0.334  0.00  0.00     0.026 C 
BRANCH  16  17
ATOM     17  C   UNL d   1      19.210 -20.862   0.684  0.00  0.00    -0.002 C 
ATOM     18  C   UNL d   1      19.293 -20.310   2.097  0.00  0.00     0.005 C 
ENDBRANCH  16  17
ENDBRANCH  15  16
ENDBRANCH  14  15
ENDBRANCH  11  14
ENDBRANCH   5   8
ENDBRANCH   3   4
ENDBRANCH   1   3
BRANCH   1  19
ATOM     19  C   UNL d   1      28.381 -13.553   1.192  0.00  0.00     0.029 A 
ATOM     20  C   UNL d   1      28.270 -12.210   0.827  0.00  0.00     0.031 A 
ATOM     21  C   UNL d   1      27.989 -11.227   1.772  0.00  0.00     0.027 A 
ATOM     22  C   UNL d   1      27.756 -11.579   3.096  0.00  0.00     0.049 A 
ATOM     23 CL   UNL d   1      27.268 -10.251   4.105  0.00  0.00    -0.083 Cl
ATOM     24  C   UNL d   1      27.882 -12.927   3.494  0.00  0.00     0.055 A 
ATOM     25  C   UNL d   1      28.183 -13.896   2.527  0.00  0.00     0.048 A 
BRANCH  24  26
ATOM     26  C   UNL d   1      27.749 -13.317   4.913  0.00  0.00     0.253 C 
ATOM     27  O   UNL d   1      26.785 -14.022   5.202  0.00  0.00    -0.268 OA
ATOM     28  N   UNL d   1      28.663 -12.878   5.864  0.00  0.00    -0.352 N 
ATOM     29  H   UNL d   1      29.458 -12.315   5.603  0.00  0.00     0.163 HD
BRANCH  28  30
ATOM     30  C   UNL d   1      28.569 -13.201   7.297  0.00  0.00     0.084 C 
ATOM     31  C   UNL d   1      29.753 -14.083   7.724  0.00  0.00     0.025 C 
ATOM     32  C   UNL d   1      29.753 -14.357   9.230  0.00  0.00     0.002 C 
ATOM     33  C   UNL d   1      29.694 -13.069  10.046  0.00  0.00     0.000 C 
ATOM     34  C   UNL d   1      28.467 -12.257   9.673  0.00  0.00     0.002 C 
ATOM     35  C   UNL d   1      28.479 -11.965   8.196  0.00  0.00     0.025 C 
ENDBRANCH  28  30
ENDBRANCH  24  26
ENDBRANCH   1  19
TORSDOF 10
ENDMDL
MODEL 6
REMARK VINA RESULT:    -9.407      1.660      2.272
REMARK INTER + INTRA:         -13.594
REMARK INTER:                 -12.390
REMARK INTRA:                  -1.205
REMARK CONF_INDEPENDENT:        2.983
REMARK UNBOUND:                -1.205
REMARK  10 active torsions:
REMARK  status: ('A' for Active; 'I' for Inactive)
REMARK    1  A    between atoms: C_2  and  C_3 
REMARK    2  A    between atoms: C_3  and  C_4 
REMARK    3  A    between atoms: C_4  and  O_5 
REMARK    4  A    between atoms: O_5  and  C_6 
REMARK    5  A    between atoms: C_9  and  N_10 
REMARK       I    between atoms: N_10  and  C_11 
REMARK    6  A    between atoms: C_11  and  C_13 
REMARK    7  A    between atoms: C_13  and  N_14 
REMARK    8  A    between atoms: N_14  and  C_15 
REMARK    9  A    between atoms: C_20  and  C_21 
REMARK       I    between atoms: C_21  and  N_23 
REMARK   10  A    between atoms: N_23  and  C_24 
ROOT
ATOM      1  N   UNL d   1      27.303 -14.632   1.583  0.00  0.00    -0.381 N 
ATOM      2  H   UNL d   1      26.402 -14.164   1.443  0.00  0.00     0.160 HD
ENDROOT
BRANCH   1   3
ATOM      3  C   UNL d   1      27.703 -15.528   0.490  0.00  0.00     0.223 C 
BRANCH   3   4
ATOM      4  C   UNL d   1      26.601 -16.579   0.309  0.00  0.00     0.239 C 
ATOM      5  N   UNL d   1      25.421 -16.158  -0.310  0.00  0.00    -0.326 N 
ATOM      6  H   UNL d   1      25.325 -15.184  -0.575  0.00  0.00     0.169 HD
ATOM      7  O   UNL d   1      26.820 -17.714   0.741  0.00  0.00    -0.271 OA
BRANCH   5   8
ATOM      8  C   UNL d   1      24.281 -16.993  -0.507  0.00  0.00     0.034 A 
ATOM      9  C   UNL d   1      24.410 -18.383  -0.627  0.00  0.00     0.032 A 
ATOM     10  C   UNL d   1      23.283 -19.178  -0.940  0.00  0.00     0.039 A 
ATOM     11  C   UNL d   1      22.013 -18.607  -1.073  0.00  0.00     0.068 A 
ATOM     12  C   UNL d   1      21.880 -17.242  -0.895  0.00  0.00     0.039 A 
ATOM     13  C   UNL d   1      22.996 -16.459  -0.615  0.00  0.00     0.032 A 
BRANCH  11  14
ATOM     14  O   UNL d   1      20.954 -19.450  -1.269  0.00  0.00    -0.351 OA
BRANCH  14  15
ATOM     15  C   UNL d   1      19.690 -18.965  -0.797  0.00  0.00     0.175 C 
BRANCH  15  16
ATOM     16  C   UNL d   1      19.475 -19.468   0.627  0.00  0.00     0.026 C 
BRANCH  16  17
ATOM     17  C   UNL d   1      19.355 -20.990   0.662  0.00  0.00    -0.002 C 
ATOM     18  C   UNL d   1      18.032 -21.418   1.273  0.00  0.00     0.005 C 
ENDBRANCH  16  17
ENDBRANCH  15  16
ENDBRANCH  14  15
ENDBRANCH  11  14
ENDBRANCH   5   8
ENDBRANCH   3   4
ENDBRANCH   1   3
BRANCH   1  19
ATOM     19  C   UNL d   1      28.150 -14.094   2.520  0.00  0.00     0.029 A 
ATOM     20  C   UNL d   1      29.388 -13.594   2.111  0.00  0.00     0.031 A 
ATOM     21  C   UNL d   1      30.277 -13.036   3.025  0.00  0.00     0.027 A 
ATOM     22  C   UNL d   1      29.919 -12.916   4.364  0.00  0.00     0.049 A 
ATOM     23 CL   UNL d   1      31.080 -12.060   5.332  0.00  0.00    -0.083 Cl
ATOM     24  C   UNL d   1      28.683 -13.433   4.805  0.00  0.00     0.055 A 
ATOM     25  C   UNL d   1      27.811 -14.006   3.867  0.00  0.00     0.048 A 
BRANCH  24  26
ATOM     26  C   UNL d   1      28.321 -13.421   6.238  0.00  0.00     0.253 C 
ATOM     27  O   UNL d   1      27.320 -12.778   6.547  0.00  0.00    -0.268 OA
ATOM     28  N   UNL d   1      29.099 -14.087   7.178  0.00  0.00    -0.352 N 
ATOM     29  H   UNL d   1      29.906 -14.624   6.900  0.00  0.00     0.163 HD
BRANCH  28  30
ATOM     30  C   UNL d   1      28.814 -14.086   8.621  0.00  0.00     0.084 C 
ATOM     31  C   UNL d   1      30.033 -14.596   9.406  0.00  0.00     0.025 C 
ATOM     32  C   UNL d   1      29.819 -14.512  10.920  0.00  0.00     0.002 C 
ATOM     33  C   UNL d   1      29.416 -13.109  11.364  0.00  0.00     0.000 C 
ATOM     34  C   UNL d   1      28.158 -12.662  10.643  0.00  0.00     0.002 C 
ATOM     35  C   UNL d   1      28.376 -12.719   9.155  0.00  0.00     0.025 C 
ENDBRANCH  28  30
ENDBRANCH  24  26
ENDBRANCH   1  19
TORSDOF 10
ENDMDL
MODEL 7
REMARK VINA RESULT:    -9.137      1.349      1.803
REMARK INTER + INTRA:         -13.601
REMARK INTER:                 -12.120
REMARK INTRA:                  -1.482
REMARK CONF_INDEPENDENT:        2.983
REMARK UNBOUND:                -1.482
REMARK  10 active torsions:
REMARK  status: ('A' for Active; 'I' for Inactive)
REMARK    1  A    between atoms: C_2  and  C_3 
REMARK    2  A    between atoms: C_3  and  C_4 
REMARK    3  A    between atoms: C_4  and  O_5 
REMARK    4  A    between atoms: O_5  and  C_6 
REMARK    5  A    between atoms: C_9  and  N_10 
REMARK       I    between atoms: N_10  and  C_11 
REMARK    6  A    between atoms: C_11  and  C_13 
REMARK    7  A    between atoms: C_13  and  N_14 
REMARK    8  A    between atoms: N_14  and  C_15 
REMARK    9  A    between atoms: C_20  and  C_21 
REMARK       I    between atoms: C_21  and  N_23 
REMARK   10  A    between atoms: N_23  and  C_24 
ROOT
ATOM      1  N   UNL d   1      30.236 -14.830   1.670  0.00  0.00    -0.381 N 
ATOM      2  H   UNL d   1      30.289 -15.759   2.100  0.00  0.00     0.160 HD
ENDROOT
BRANCH   1   3
ATOM      3  C   UNL d   1      30.425 -14.819   0.214  0.00  0.00     0.223 C 
BRANCH   3   4
ATOM      4  C   UNL d   1      29.175 -15.429  -0.434  0.00  0.00     0.239 C 
ATOM      5  N   UNL d   1      28.219 -15.975   0.426  0.00  0.00    -0.326 N 
ATOM      6  H   UNL d   1      28.402 -15.982   1.423  0.00  0.00     0.169 HD
ATOM      7  O   UNL d   1      29.111 -15.419  -1.667  0.00  0.00    -0.271 OA
BRANCH   5   8
ATOM      8  C   UNL d   1      27.029 -16.627  -0.014  0.00  0.00     0.034 A 
ATOM      9  C   UNL d   1      26.083 -15.958  -0.803  0.00  0.00     0.032 A 
ATOM     10  C   UNL d   1      24.857 -16.583  -1.127  0.00  0.00     0.039 A 
ATOM     11  C   UNL d   1      24.590 -17.896  -0.725  0.00  0.00     0.068 A 
ATOM     12  C   UNL d   1      25.550 -18.574   0.003  0.00  0.00     0.039 A 
ATOM     13  C   UNL d   1      26.744 -17.945   0.345  0.00  0.00     0.032 A 
BRANCH  11  14
ATOM     14  O   UNL d   1      23.430 -18.472  -1.166  0.00  0.00    -0.351 OA
BRANCH  14  15
ATOM     15  C   UNL d   1      22.393 -18.590  -0.183  0.00  0.00     0.175 C 
BRANCH  15  16
ATOM     16  C   UNL d   1      21.043 -18.562  -0.891  0.00  0.00     0.026 C 
BRANCH  16  17
ATOM     17  C   UNL d   1      20.159 -19.723  -0.442  0.00  0.00    -0.002 C 
ATOM     18  C   UNL d   1      19.989 -19.726   1.068  0.00  0.00     0.005 C 
ENDBRANCH  16  17
ENDBRANCH  15  16
ENDBRANCH  14  15
ENDBRANCH  11  14
ENDBRANCH   5   8
ENDBRANCH   3   4
ENDBRANCH   1   3
BRANCH   1  19
ATOM     19  C   UNL d   1      29.639 -13.833   2.401  0.00  0.00     0.029 A 
ATOM     20  C   UNL d   1      29.175 -12.692   1.743  0.00  0.00     0.031 A 
ATOM     21  C   UNL d   1      28.559 -11.657   2.442  0.00  0.00     0.027 A 
ATOM     22  C   UNL d   1      28.344 -11.771   3.811  0.00  0.00     0.049 A 
ATOM     23 CL   UNL d   1      27.429 -10.461   4.494  0.00  0.00    -0.083 Cl
ATOM     24  C   UNL d   1      28.822 -12.905   4.501  0.00  0.00     0.055 A 
ATOM     25  C   UNL d   1      29.454 -13.926   3.777  0.00  0.00     0.048 A 
BRANCH  24  26
ATOM     26  C   UNL d   1      28.707 -13.005   5.971  0.00  0.00     0.253 C 
ATOM     27  O   UNL d   1      27.584 -12.854   6.447  0.00  0.00    -0.268 OA
ATOM     28  N   UNL d   1      29.828 -13.233   6.762  0.00  0.00    -0.352 N 
ATOM     29  H   UNL d   1      30.737 -13.373   6.350  0.00  0.00     0.163 HD
BRANCH  28  30
ATOM     30  C   UNL d   1      29.787 -13.309   8.231  0.00  0.00     0.084 C 
ATOM     31  C   UNL d   1      29.326 -11.967   8.822  0.00  0.00     0.025 C 
ATOM     32  C   UNL d   1      29.168 -12.032  10.344  0.00  0.00     0.002 C 
ATOM     33  C   UNL d   1      28.255 -13.176  10.776  0.00  0.00     0.000 C 
ATOM     34  C   UNL d   1      28.780 -14.502  10.258  0.00  0.00     0.002 C 
ATOM     35  C   UNL d   1      28.912 -14.448   8.759  0.00  0.00     0.025 C 
ENDBRANCH  28  30
ENDBRANCH  24  26
ENDBRANCH   1  19
TORSDOF 10
ENDMDL
MODEL 8
REMARK VINA RESULT:    -8.887      5.156      8.983
REMARK INTER + INTRA:         -13.464
REMARK INTER:                 -11.870
REMARK INTRA:                  -1.594
REMARK CONF_INDEPENDENT:        2.983
REMARK UNBOUND:                -1.594
REMARK  10 active torsions:
REMARK  status: ('A' for Active; 'I' for Inactive)
REMARK    1  A    between atoms: C_2  and  C_3 
REMARK    2  A    between atoms: C_3  and  C_4 
REMARK    3  A    between atoms: C_4  and  O_5 
REMARK    4  A    between atoms: O_5  and  C_6 
REMARK    5  A    between atoms: C_9  and  N_10 
REMARK       I    between atoms: N_10  and  C_11 
REMARK    6  A    between atoms: C_11  and  C_13 
REMARK    7  A    between atoms: C_13  and  N_14 
REMARK    8  A    between atoms: N_14  and  C_15 
REMARK    9  A    between atoms: C_20  and  C_21 
REMARK       I    between atoms: C_21  and  N_23 
REMARK   10  A    between atoms: N_23  and  C_24 
ROOT
ATOM      1  N   UNL d   1      28.700 -15.461  -0.528  0.00  0.00    -0.381 N 
ATOM      2  H   UNL d   1      28.575 -14.602   0.017  0.00  0.00     0.160 HD
ENDROOT
BRANCH   1   3
ATOM      3  C   UNL d   1      28.608 -16.700   0.254  0.00  0.00     0.223 C 
BRANCH   3   4
ATOM      4  C   UNL d   1      27.262 -17.365  -0.064  0.00  0.00     0.239 C 
ATOM      5  N   UNL d   1      26.138 -16.537  -0.092  0.00  0.00    -0.326 N 
ATOM      6  H   UNL d   1      26.246 -15.554   0.133  0.00  0.00     0.169 HD
ATOM      7  O   UNL d   1      27.260 -18.586  -0.248  0.00  0.00    -0.271 OA
BRANCH   5   8
ATOM      8  C   UNL d   1      24.808 -17.003  -0.318  0.00  0.00     0.034 A 
ATOM      9  C   UNL d   1      23.808 -16.143  -0.791  0.00  0.00     0.032 A 
ATOM     10  C   UNL d   1      22.472 -16.593  -0.894  0.00  0.00     0.039 A 
ATOM     11  C   UNL d   1      22.132 -17.915  -0.589  0.00  0.00     0.068 A 
ATOM     12  C   UNL d   1      23.133 -18.778  -0.179  0.00  0.00     0.039 A 
ATOM     13  C   UNL d   1      24.442 -18.322  -0.051  0.00  0.00     0.032 A 
BRANCH  11  14
ATOM     14  O   UNL d   1      20.842 -18.309  -0.815  0.00  0.00    -0.351 OA
BRANCH  14  15
ATOM     15  C   UNL d   1      20.577 -19.699  -0.584  0.00  0.00     0.175 C 
BRANCH  15  16
ATOM     16  C   UNL d   1      19.084 -19.876  -0.328  0.00  0.00     0.026 C 
BRANCH  16  17
ATOM     17  C   UNL d   1      18.820 -20.332   1.105  0.00  0.00    -0.002 C 
ATOM     18  C   UNL d   1      19.916 -19.852   2.041  0.00  0.00     0.005 C 
ENDBRANCH  16  17
ENDBRANCH  15  16
ENDBRANCH  14  15
ENDBRANCH  11  14
ENDBRANCH   5   8
ENDBRANCH   3   4
ENDBRANCH   1   3
BRANCH   1  19
ATOM     19  C   UNL d   1      28.551 -15.368  -1.889  0.00  0.00     0.029 A 
ATOM     20  C   UNL d   1      27.479 -14.639  -2.408  0.00  0.00     0.031 A 
ATOM     21  C   UNL d   1      27.290 -14.514  -3.782  0.00  0.00     0.027 A 
ATOM     22  C   UNL d   1      28.207 -15.070  -4.666  0.00  0.00     0.049 A 
ATOM     23 CL   UNL d   1      27.903 -14.688  -6.334  0.00  0.00    -0.083 Cl
ATOM     24  C   UNL d   1      29.287 -15.829  -4.167  0.00  0.00     0.055 A 
ATOM     25  C   UNL d   1      29.446 -15.954  -2.779  0.00  0.00     0.048 A 
BRANCH  24  26
ATOM     26  C   UNL d   1      30.216 -16.524  -5.082  0.00  0.00     0.253 C 
ATOM     27  O   UNL d   1      31.102 -15.841  -5.590  0.00  0.00    -0.268 OA
ATOM     28  N   UNL d   1      30.064 -17.877  -5.363  0.00  0.00    -0.352 N 
ATOM     29  H   UNL d   1      29.341 -18.424  -4.920  0.00  0.00     0.163 HD
BRANCH  28  30
ATOM     30  C   UNL d   1      30.931 -18.621  -6.290  0.00  0.00     0.084 C 
ATOM     31  C   UNL d   1      30.406 -20.053  -6.480  0.00  0.00     0.025 C 
ATOM     32  C   UNL d   1      31.218 -20.830  -7.520  0.00  0.00     0.002 C 
ATOM     33  C   UNL d   1      31.307 -20.087  -8.849  0.00  0.00     0.000 C 
ATOM     34  C   UNL d   1      31.914 -18.710  -8.651  0.00  0.00     0.002 C 
ATOM     35  C   UNL d   1      31.101 -17.935  -7.649  0.00  0.00     0.025 C 
ENDBRANCH  28  30
ENDBRANCH  24  26
ENDBRANCH   1  19
TORSDOF 10
ENDMDL
MODEL 9
REMARK VINA RESULT:    -8.468      6.430     10.051
REMARK INTER + INTRA:         -13.304
REMARK INTER:                 -11.451
REMARK INTRA:                  -1.854
REMARK CONF_INDEPENDENT:        2.983
REMARK UNBOUND:                -1.854
REMARK  10 active torsions:
REMARK  status: ('A' for Active; 'I' for Inactive)
REMARK    1  A    between atoms: C_2  and  C_3 
REMARK    2  A    between atoms: C_3  and  C_4 
REMARK    3  A    between atoms: C_4  and  O_5 
REMARK    4  A    between atoms: O_5  and  C_6 
REMARK    5  A    between atoms: C_9  and  N_10 
REMARK       I    between atoms: N_10  and  C_11 
REMARK    6  A    between atoms: C_11  and  C_13 
REMARK    7  A    between atoms: C_13  and  N_14 
REMARK    8  A    between atoms: N_14  and  C_15 
REMARK    9  A    between atoms: C_20  and  C_21 
REMARK       I    between atoms: C_21  and  N_23 
REMARK   10  A    between atoms: N_23  and  C_24 
ROOT
ATOM      1  N   UNL d   1      27.486 -14.224  -4.577  0.00  0.00    -0.381 N 
ATOM      2  H   UNL d   1      26.593 -14.056  -5.052  0.00  0.00     0.160 HD
ENDROOT
BRANCH   1   3
ATOM      3  C   UNL d   1      27.385 -14.374  -3.120  0.00  0.00     0.223 C 
BRANCH   3   4
ATOM      4  C   UNL d   1      26.072 -15.103  -2.806  0.00  0.00     0.239 C 
ATOM      5  N   UNL d   1      25.973 -15.717  -1.555  0.00  0.00    -0.326 N 
ATOM      6  H   UNL d   1      26.772 -15.693  -0.931  0.00  0.00     0.169 HD
ATOM      7  O   UNL d   1      25.205 -15.117  -3.684  0.00  0.00    -0.271 OA
BRANCH   5   8
ATOM      8  C   UNL d   1      24.846 -16.480  -1.127  0.00  0.00     0.034 A 
ATOM      9  C   UNL d   1      24.988 -17.802  -0.686  0.00  0.00     0.032 A 
ATOM     10  C   UNL d   1      23.846 -18.578  -0.380  0.00  0.00     0.039 A 
ATOM     11  C   UNL d   1      22.562 -18.027  -0.448  0.00  0.00     0.068 A 
ATOM     12  C   UNL d   1      22.429 -16.703  -0.826  0.00  0.00     0.039 A 
ATOM     13  C   UNL d   1      23.554 -15.952  -1.155  0.00  0.00     0.032 A 
BRANCH  11  14
ATOM     14  O   UNL d   1      21.514 -18.802  -0.035  0.00  0.00    -0.351 OA
BRANCH  14  15
ATOM     15  C   UNL d   1      20.686 -19.322  -1.084  0.00  0.00     0.175 C 
BRANCH  15  16
ATOM     16  C   UNL d   1      19.240 -19.340  -0.601  0.00  0.00     0.026 C 
BRANCH  16  17
ATOM     17  C   UNL d   1      18.945 -20.595   0.216  0.00  0.00    -0.002 C 
ATOM     18  C   UNL d   1      19.154 -20.342   1.699  0.00  0.00     0.005 C 
ENDBRANCH  16  17
ENDBRANCH  15  16
ENDBRANCH  14  15
ENDBRANCH  11  14
ENDBRANCH   5   8
ENDBRANCH   3   4
ENDBRANCH   1   3
BRANCH   1  19
ATOM     19  C   UNL d   1      28.536 -14.657  -5.349  0.00  0.00     0.029 A 
ATOM     20  C   UNL d   1      29.231 -13.732  -6.131  0.00  0.00     0.031 A 
ATOM     21  C   UNL d   1      30.305 -14.124  -6.926  0.00  0.00     0.027 A 
ATOM     22  C   UNL d   1      30.741 -15.444  -6.909  0.00  0.00     0.049 A 
ATOM     23 CL   UNL d   1      32.182 -15.725  -7.838  0.00  0.00    -0.083 Cl
ATOM     24  C   UNL d   1      30.042 -16.401  -6.143  0.00  0.00     0.055 A 
ATOM     25  C   UNL d   1      28.953 -15.984  -5.364  0.00  0.00     0.048 A 
BRANCH  24  26
ATOM     26  C   UNL d   1      30.412 -17.831  -6.190  0.00  0.00     0.253 C 
ATOM     27  O   UNL d   1      30.468 -18.420  -5.113  0.00  0.00    -0.268 OA
ATOM     28  N   UNL d   1      30.703 -18.455  -7.398  0.00  0.00    -0.352 N 
ATOM     29  H   UNL d   1      30.632 -17.958  -8.272  0.00  0.00     0.163 HD
BRANCH  28  30
ATOM     30  C   UNL d   1      31.111 -19.865  -7.510  0.00  0.00     0.084 C 
ATOM     31  C   UNL d   1      31.530 -20.185  -8.954  0.00  0.00     0.025 C 
ATOM     32  C   UNL d   1      32.063 -21.614  -9.094  0.00  0.00     0.002 C 
ATOM     33  C   UNL d   1      33.190 -21.904  -8.107  0.00  0.00     0.000 C 
ATOM     34  C   UNL d   1      32.724 -21.669  -6.682  0.00  0.00     0.002 C 
ATOM     35  C   UNL d   1      32.224 -20.257  -6.535  0.00  0.00     0.025 C 
ENDBRANCH  28  30
ENDBRANCH  24  26
ENDBRANCH   1  19
TORSDOF 10
ENDMDL
