MODEL 1
REMARK VINA RESULT:   -32.624      0.000      0.000
REMARK INTER + INTRA:         -34.693
REMARK INTER:                 -34.115
REMARK INTRA:                  -0.578
REMARK CONF_INDEPENDENT:        1.492
REMARK UNBOUND:                -0.578
REMARK  5 active torsions:
REMARK  status: ('A' for Active; 'I' for Inactive)
REMARK       I    between atoms: C_2  and  N_3 
REMARK    1  A    between atoms: C_2  and  C_16 
REMARK    2  A    between atoms: N_3  and  C_4 
REMARK    3  A    between atoms: C_4  and  C_5 
REMARK    4  A    between atoms: C_5  and  C_6 
REMARK    5  A    between atoms: N_19  and  C_20 
ROOT
ATOM      1  O   UNL d   1      26.440 -14.114   0.113  0.00  0.00    -0.273 OA
ATOM      2  C   UNL d   1      27.289 -14.925  -0.234  0.00  0.00     0.221 C 
ATOM      3  N   UNL d   1      28.495 -15.007   0.440  0.00  0.00    -0.360 N 
ATOM      4  H   UNL d   1      29.155 -15.742   0.212  0.00  0.00     0.162 HD
ENDROOT
BRANCH   2   5
ATOM      5  C   UNL d   1      27.128 -15.855  -1.439  0.00  0.00     0.081 C 
ATOM      6  C   UNL d   1      25.891 -15.481  -2.255  0.00  0.00     0.033 C 
ATOM      7  C   UNL d   1      24.542 -15.834  -1.495  0.00  0.00     0.120 C 
ATOM      8  N   UNL d   1      24.436 -17.177  -0.880  0.00  0.00    -0.388 N 
ATOM      9  C   UNL d   1      25.664 -17.644  -0.279  0.00  0.00     0.120 C 
ATOM     10  C   UNL d   1      26.975 -17.324  -1.041  0.00  0.00     0.033 C 
BRANCH   8  11
ATOM     11  C   UNL d   1      23.140 -17.759  -0.319  0.00  0.00     0.228 C 
ATOM     12  N   UNL d   1      22.661 -18.501   0.987  0.00  0.00    -0.260 NA
ATOM     13  C   UNL d   1      21.367 -19.119   0.659  0.00  0.00     0.046 C 
ATOM     14  H   UNL d   1      23.276 -19.188   1.419  0.00  0.00     0.130 HD
ATOM     15  C   UNL d   1      20.316 -19.509   1.506  0.00  0.00     0.028 C 
ATOM     16  C   UNL d   1      21.080 -19.184  -0.702  0.00  0.00     0.117 C 
ATOM     17  C   UNL d   1      19.005 -19.483   0.967  0.00  0.00     0.021 C 
ATOM     18  C   UNL d   1      18.841 -19.364  -0.409  0.00  0.00     0.118 C 
ATOM     19  N   UNL d   1      19.868 -19.322  -1.267  0.00  0.00    -0.252 NA
ATOM     20  S   UNL d   1      22.475 -18.804  -1.688  0.00  0.00    -0.068 SA
ENDBRANCH   8  11
ENDBRANCH   2   5
BRANCH   3  21
ATOM     21  C   UNL d   1      28.723 -14.126   1.569  0.00  0.00     0.127 C 
BRANCH  21  22
ATOM     22  C   UNL d   1      27.537 -14.069   2.523  0.00  0.00     0.056 C 
BRANCH  22  23
ATOM     23  C   UNL d   1      27.944 -13.983   3.960  0.00  0.00    -0.048 A 
ATOM     24  C   UNL d   1      28.126 -12.855   4.657  0.00  0.00    -0.004 A 
ATOM     25  C   UNL d   1      28.050 -11.479   4.314  0.00  0.00     0.037 A 
ATOM     26  C   UNL d   1      28.425 -13.305   6.034  0.00  0.00     0.038 A 
ATOM     27  C   UNL d   1      28.252 -10.564   5.274  0.00  0.00     0.035 A 
ATOM     28 CL   UNL d   1      28.166  -8.889   4.891  0.00  0.00    -0.084 Cl
ATOM     29  C   UNL d   1      28.541 -10.961   6.647  0.00  0.00     0.026 A 
ATOM     30  C   UNL d   1      28.633 -12.243   7.052  0.00  0.00     0.031 A 
ATOM     31  N   UNL d   1      28.441 -14.560   6.136  0.00  0.00    -0.385 N 
ATOM     32  C   UNL d   1      28.150 -15.196   4.827  0.00  0.00     0.155 A 
ATOM     33  H   UNL d   1      28.625 -15.066   7.013  0.00  0.00     0.160 HD
ENDBRANCH  22  23
ENDBRANCH  21  22
ENDBRANCH   3  21
TORSDOF 5
ENDMDL
MODEL 2
REMARK VINA RESULT:   -32.060      1.838      2.318
REMARK INTER + INTRA:         -34.420
REMARK INTER:                 -33.552
REMARK INTRA:                  -0.868
REMARK CONF_INDEPENDENT:        1.492
REMARK UNBOUND:                -0.868
REMARK  5 active torsions:
REMARK  status: ('A' for Active; 'I' for Inactive)
REMARK       I    between atoms: C_2  and  N_3 
REMARK    1  A    between atoms: C_2  and  C_16 
REMARK    2  A    between atoms: N_3  and  C_4 
REMARK    3  A    between atoms: C_4  and  C_5 
REMARK    4  A    between atoms: C_5  and  C_6 
REMARK    5  A    between atoms: N_19  and  C_20 
ROOT
ATOM      1  O   UNL d   1      26.749 -15.080   0.759  0.00  0.00    -0.273 OA
ATOM      2  C   UNL d   1      27.297 -14.884  -0.318  0.00  0.00     0.221 C 
ATOM      3  N   UNL d   1      28.101 -13.774  -0.503  0.00  0.00    -0.360 N 
ATOM      4  H   UNL d   1      28.629 -13.667  -1.362  0.00  0.00     0.162 HD
ENDROOT
BRANCH   2   5
ATOM      5  C   UNL d   1      27.108 -15.788  -1.539  0.00  0.00     0.081 C 
ATOM      6  C   UNL d   1      25.852 -15.398  -2.318  0.00  0.00     0.033 C 
ATOM      7  C   UNL d   1      24.521 -15.769  -1.534  0.00  0.00     0.120 C 
ATOM      8  N   UNL d   1      24.429 -17.124  -0.946  0.00  0.00    -0.388 N 
ATOM      9  C   UNL d   1      25.672 -17.603  -0.383  0.00  0.00     0.120 C 
ATOM     10  C   UNL d   1      26.964 -17.266  -1.169  0.00  0.00     0.033 C 
BRANCH   8  11
ATOM     11  C   UNL d   1      23.147 -17.719  -0.367  0.00  0.00     0.228 C 
ATOM     12  N   UNL d   1      22.692 -18.461   0.948  0.00  0.00    -0.260 NA
ATOM     13  C   UNL d   1      21.403 -19.095   0.637  0.00  0.00     0.046 C 
ATOM     14  H   UNL d   1      23.321 -19.139   1.375  0.00  0.00     0.130 HD
ATOM     15  C   UNL d   1      20.366 -19.494   1.498  0.00  0.00     0.028 C 
ATOM     16  C   UNL d   1      21.100 -19.170  -0.721  0.00  0.00     0.117 C 
ATOM     17  C   UNL d   1      19.049 -19.487   0.974  0.00  0.00     0.021 C 
ATOM     18  C   UNL d   1      18.867 -19.376  -0.400  0.00  0.00     0.118 C 
ATOM     19  N   UNL d   1      19.884 -19.325  -1.270  0.00  0.00    -0.252 NA
ATOM     20  S   UNL d   1      22.479 -18.778  -1.724  0.00  0.00    -0.068 SA
ENDBRANCH   8  11
ENDBRANCH   2   5
BRANCH   3  21
ATOM     21  C   UNL d   1      28.290 -12.859   0.606  0.00  0.00     0.127 C 
BRANCH  21  22
ATOM     22  C   UNL d   1      27.047 -12.033   0.909  0.00  0.00     0.056 C 
BRANCH  22  23
ATOM     23  C   UNL d   1      27.092 -11.379   2.255  0.00  0.00    -0.048 A 
ATOM     24  C   UNL d   1      27.419 -11.977   3.406  0.00  0.00    -0.004 A 
ATOM     25  C   UNL d   1      27.762 -13.314   3.742  0.00  0.00     0.037 A 
ATOM     26  C   UNL d   1      27.404 -10.894   4.413  0.00  0.00     0.038 A 
ATOM     27  C   UNL d   1      28.086 -13.595   5.014  0.00  0.00     0.035 A 
ATOM     28 CL   UNL d   1      28.508 -15.203   5.453  0.00  0.00    -0.084 Cl
ATOM     29  C   UNL d   1      28.094 -12.557   6.038  0.00  0.00     0.026 A 
ATOM     30  C   UNL d   1      27.777 -11.269   5.801  0.00  0.00     0.031 A 
ATOM     31  N   UNL d   1      27.081  -9.783   3.917  0.00  0.00    -0.385 N 
ATOM     32  C   UNL d   1      26.817  -9.914   2.462  0.00  0.00     0.155 A 
ATOM     33  H   UNL d   1      27.019  -8.907   4.454  0.00  0.00     0.160 HD
ENDBRANCH  22  23
ENDBRANCH  21  22
ENDBRANCH   3  21
TORSDOF 5
ENDMDL
MODEL 3
REMARK VINA RESULT:   -31.908      1.084      1.429
REMARK INTER + INTRA:         -34.127
REMARK INTER:                 -33.400
REMARK INTRA:                  -0.727
REMARK CONF_INDEPENDENT:        1.492
REMARK UNBOUND:                -0.727
REMARK  5 active torsions:
REMARK  status: ('A' for Active; 'I' for Inactive)
REMARK       I    between atoms: C_2  and  N_3 
REMARK    1  A    between atoms: C_2  and  C_16 
REMARK    2  A    between atoms: N_3  and  C_4 
REMARK    3  A    between atoms: C_4  and  C_5 
REMARK    4  A    between atoms: C_5  and  C_6 
REMARK    5  A    between atoms: N_19  and  C_20 
ROOT
ATOM      1  O   UNL d   1      26.116 -14.368   0.256  0.00  0.00    -0.273 OA
ATOM      2  C   UNL d   1      26.981 -14.503  -0.600  0.00  0.00     0.221 C 
ATOM      3  N   UNL d   1      27.914 -13.504  -0.816  0.00  0.00    -0.360 N 
ATOM      4  H   UNL d   1      28.685 -13.659  -1.456  0.00  0.00     0.162 HD
ENDROOT
BRANCH   2   5
ATOM      5  C   UNL d   1      27.078 -15.723  -1.520  0.00  0.00     0.081 C 
ATOM      6  C   UNL d   1      25.927 -15.740  -2.525  0.00  0.00     0.033 C 
ATOM      7  C   UNL d   1      24.533 -16.066  -1.837  0.00  0.00     0.120 C 
ATOM      8  N   UNL d   1      24.487 -17.209  -0.897  0.00  0.00    -0.388 N 
ATOM      9  C   UNL d   1      25.668 -17.337  -0.072  0.00  0.00     0.120 C 
ATOM     10  C   UNL d   1      27.027 -17.049  -0.758  0.00  0.00     0.033 C 
BRANCH   8  11
ATOM     11  C   UNL d   1      23.196 -17.798  -0.331  0.00  0.00     0.228 C 
ATOM     12  N   UNL d   1      22.731 -18.567   0.964  0.00  0.00    -0.260 NA
ATOM     13  C   UNL d   1      21.431 -19.171   0.640  0.00  0.00     0.046 C 
ATOM     14  H   UNL d   1      23.349 -19.267   1.372  0.00  0.00     0.130 HD
ATOM     15  C   UNL d   1      20.389 -19.576   1.491  0.00  0.00     0.028 C 
ATOM     16  C   UNL d   1      21.125 -19.205  -0.719  0.00  0.00     0.117 C 
ATOM     17  C   UNL d   1      19.071 -19.533   0.971  0.00  0.00     0.021 C 
ATOM     18  C   UNL d   1      18.889 -19.382  -0.399  0.00  0.00     0.118 C 
ATOM     19  N   UNL d   1      19.905 -19.325  -1.270  0.00  0.00    -0.252 NA
ATOM     20  S   UNL d   1      22.509 -18.809  -1.714  0.00  0.00    -0.068 SA
ENDBRANCH   8  11
ENDBRANCH   2   5
BRANCH   3  21
ATOM     21  C   UNL d   1      27.853 -12.306  -0.000  0.00  0.00     0.127 C 
BRANCH  21  22
ATOM     22  C   UNL d   1      28.944 -12.257   1.060  0.00  0.00     0.056 C 
BRANCH  22  23
ATOM     23  C   UNL d   1      28.694 -13.193   2.202  0.00  0.00    -0.048 A 
ATOM     24  C   UNL d   1      28.681 -12.861   3.498  0.00  0.00    -0.004 A 
ATOM     25  C   UNL d   1      28.919 -11.645   4.191  0.00  0.00     0.037 A 
ATOM     26  C   UNL d   1      28.300 -14.104   4.203  0.00  0.00     0.038 A 
ATOM     27  C   UNL d   1      28.786 -11.628   5.527  0.00  0.00     0.035 A 
ATOM     28 CL   UNL d   1      29.066 -10.170   6.395  0.00  0.00    -0.084 Cl
ATOM     29  C   UNL d   1      28.403 -12.827   6.262  0.00  0.00     0.026 A 
ATOM     30  C   UNL d   1      28.165 -14.018   5.680  0.00  0.00     0.031 A 
ATOM     31  N   UNL d   1      28.128 -15.070   3.414  0.00  0.00    -0.385 N 
ATOM     32  C   UNL d   1      28.364 -14.648   2.010  0.00  0.00     0.155 A 
ATOM     33  H   UNL d   1      27.854 -16.017   3.710  0.00  0.00     0.160 HD
ENDBRANCH  22  23
ENDBRANCH  21  22
ENDBRANCH   3  21
TORSDOF 5
ENDMDL
MODEL 4
REMARK VINA RESULT:   -31.797      1.528      2.090
REMARK INTER + INTRA:         -33.868
REMARK INTER:                 -33.289
REMARK INTRA:                  -0.579
REMARK CONF_INDEPENDENT:        1.492
REMARK UNBOUND:                -0.579
REMARK  5 active torsions:
REMARK  status: ('A' for Active; 'I' for Inactive)
REMARK       I    between atoms: C_2  and  N_3 
REMARK    1  A    between atoms: C_2  and  C_16 
REMARK    2  A    between atoms: N_3  and  C_4 
REMARK    3  A    between atoms: C_4  and  C_5 
REMARK    4  A    between atoms: C_5  and  C_6 
REMARK    5  A    between atoms: N_19  and  C_20 
ROOT
ATOM      1  O   UNL d   1      26.062 -14.282  -0.078  0.00  0.00    -0.273 OA
ATOM      2  C   UNL d   1      26.964 -14.493  -0.878  0.00  0.00     0.221 C 
ATOM      3  N   UNL d   1      27.906 -13.516  -1.145  0.00  0.00    -0.360 N 
ATOM      4  H   UNL d   1      28.705 -13.728  -1.733  0.00  0.00     0.162 HD
ENDROOT
BRANCH   2   5
ATOM      5  C   UNL d   1      27.100 -15.794  -1.674  0.00  0.00     0.081 C 
ATOM      6  C   UNL d   1      25.977 -15.925  -2.701  0.00  0.00     0.033 C 
ATOM      7  C   UNL d   1      24.570 -16.205  -2.020  0.00  0.00     0.120 C 
ATOM      8  N   UNL d   1      24.513 -17.253  -0.975  0.00  0.00    -0.388 N 
ATOM      9  C   UNL d   1      25.673 -17.283  -0.113  0.00  0.00     0.120 C 
ATOM     10  C   UNL d   1      27.046 -17.041  -0.790  0.00  0.00     0.033 C 
BRANCH   8  11
ATOM     11  C   UNL d   1      23.215 -17.805  -0.388  0.00  0.00     0.228 C 
ATOM     12  N   UNL d   1      22.742 -18.520   0.934  0.00  0.00    -0.260 NA
ATOM     13  C   UNL d   1      21.434 -19.120   0.632  0.00  0.00     0.046 C 
ATOM     14  H   UNL d   1      23.351 -19.212   1.367  0.00  0.00     0.130 HD
ATOM     15  C   UNL d   1      20.387 -19.480   1.498  0.00  0.00     0.028 C 
ATOM     16  C   UNL d   1      21.126 -19.199  -0.724  0.00  0.00     0.117 C 
ATOM     17  C   UNL d   1      19.070 -19.439   0.977  0.00  0.00     0.021 C 
ATOM     18  C   UNL d   1      18.888 -19.336  -0.397  0.00  0.00     0.118 C 
ATOM     19  N   UNL d   1      19.905 -19.323  -1.270  0.00  0.00    -0.252 NA
ATOM     20  S   UNL d   1      22.514 -18.857  -1.734  0.00  0.00    -0.068 SA
ENDBRANCH   8  11
ENDBRANCH   2   5
BRANCH   3  21
ATOM     21  C   UNL d   1      27.810 -12.247  -0.450  0.00  0.00     0.127 C 
BRANCH  21  22
ATOM     22  C   UNL d   1      27.563 -12.410   1.044  0.00  0.00     0.056 C 
BRANCH  22  23
ATOM     23  C   UNL d   1      28.590 -13.265   1.718  0.00  0.00    -0.048 A 
ATOM     24  C   UNL d   1      28.764 -13.386   3.039  0.00  0.00    -0.004 A 
ATOM     25  C   UNL d   1      28.139 -12.779   4.160  0.00  0.00     0.037 A 
ATOM     26  C   UNL d   1      29.825 -14.406   3.189  0.00  0.00     0.038 A 
ATOM     27  C   UNL d   1      28.523 -13.151   5.391  0.00  0.00     0.035 A 
ATOM     28 CL   UNL d   1      27.784 -12.436   6.770  0.00  0.00    -0.084 Cl
ATOM     29  C   UNL d   1      29.558 -14.159   5.587  0.00  0.00     0.026 A 
ATOM     30  C   UNL d   1      30.201 -14.777   4.577  0.00  0.00     0.031 A 
ATOM     31  N   UNL d   1      30.247 -14.826   2.079  0.00  0.00    -0.385 N 
ATOM     32  C   UNL d   1      29.536 -14.157   0.961  0.00  0.00     0.155 A 
ATOM     33  H   UNL d   1      30.980 -15.541   1.973  0.00  0.00     0.160 HD
ENDBRANCH  22  23
ENDBRANCH  21  22
ENDBRANCH   3  21
TORSDOF 5
ENDMDL
MODEL 5
REMARK VINA RESULT:   -31.314      4.019      5.998
REMARK INTER + INTRA:         -33.953
REMARK INTER:                 -32.806
REMARK INTRA:                  -1.148
REMARK CONF_INDEPENDENT:        1.492
REMARK UNBOUND:                -1.148
REMARK  5 active torsions:
REMARK  status: ('A' for Active; 'I' for Inactive)
REMARK       I    between atoms: C_2  and  N_3 
REMARK    1  A    between atoms: C_2  and  C_16 
REMARK    2  A    between atoms: N_3  and  C_4 
REMARK    3  A    between atoms: C_4  and  C_5 
REMARK    4  A    between atoms: C_5  and  C_6 
REMARK    5  A    between atoms: N_19  and  C_20 
ROOT
ATOM      1  O   UNL d   1      26.199 -14.412   0.313  0.00  0.00    -0.273 OA
ATOM      2  C   UNL d   1      26.979 -14.506  -0.625  0.00  0.00     0.221 C 
ATOM      3  N   UNL d   1      27.794 -13.442  -0.967  0.00  0.00    -0.360 N 
ATOM      4  H   UNL d   1      28.505 -13.557  -1.682  0.00  0.00     0.162 HD
ENDROOT
BRANCH   2   5
ATOM      5  C   UNL d   1      27.085 -15.748  -1.515  0.00  0.00     0.081 C 
ATOM      6  C   UNL d   1      25.948 -15.788  -2.534  0.00  0.00     0.033 C 
ATOM      7  C   UNL d   1      24.544 -16.096  -1.855  0.00  0.00     0.120 C 
ATOM      8  N   UNL d   1      24.485 -17.216  -0.889  0.00  0.00    -0.388 N 
ATOM      9  C   UNL d   1      25.654 -17.325  -0.047  0.00  0.00     0.120 C 
ATOM     10  C   UNL d   1      27.023 -17.055  -0.722  0.00  0.00     0.033 C 
BRANCH   8  11
ATOM     11  C   UNL d   1      23.186 -17.790  -0.326  0.00  0.00     0.228 C 
ATOM     12  N   UNL d   1      22.705 -18.532   0.979  0.00  0.00    -0.260 NA
ATOM     13  C   UNL d   1      21.405 -19.139   0.652  0.00  0.00     0.046 C 
ATOM     14  H   UNL d   1      23.315 -19.227   1.406  0.00  0.00     0.130 HD
ATOM     15  C   UNL d   1      20.353 -19.523   1.500  0.00  0.00     0.028 C 
ATOM     16  C   UNL d   1      21.113 -19.197  -0.709  0.00  0.00     0.117 C 
ATOM     17  C   UNL d   1      19.041 -19.485   0.965  0.00  0.00     0.021 C 
ATOM     18  C   UNL d   1      18.873 -19.359  -0.409  0.00  0.00     0.118 C 
ATOM     19  N   UNL d   1      19.899 -19.322  -1.270  0.00  0.00    -0.252 NA
ATOM     20  S   UNL d   1      22.509 -18.824  -1.697  0.00  0.00    -0.068 SA
ENDBRANCH   8  11
ENDBRANCH   2   5
BRANCH   3  21
ATOM     21  C   UNL d   1      27.713 -12.224  -0.185  0.00  0.00     0.127 C 
BRANCH  21  22
ATOM     22  C   UNL d   1      28.406 -11.045  -0.855  0.00  0.00     0.056 C 
BRANCH  22  23
ATOM     23  C   UNL d   1      27.580 -10.414  -1.932  0.00  0.00    -0.048 A 
ATOM     24  C   UNL d   1      27.150 -11.019  -3.045  0.00  0.00    -0.004 A 
ATOM     25  C   UNL d   1      27.339 -12.323  -3.576  0.00  0.00     0.037 A 
ATOM     26  C   UNL d   1      26.308 -10.010  -3.724  0.00  0.00     0.038 A 
ATOM     27  C   UNL d   1      26.726 -12.644  -4.726  0.00  0.00     0.035 A 
ATOM     28 CL   UNL d   1      26.932 -14.216  -5.395  0.00  0.00    -0.084 Cl
ATOM     29  C   UNL d   1      25.879 -11.685  -5.425  0.00  0.00     0.026 A 
ATOM     30  C   UNL d   1      25.654 -10.430  -4.990  0.00  0.00     0.031 A 
ATOM     31  N   UNL d   1      26.263  -8.921  -3.093  0.00  0.00    -0.385 N 
ATOM     32  C   UNL d   1      27.077  -8.998  -1.854  0.00  0.00     0.155 A 
ATOM     33  H   UNL d   1      25.725  -8.098  -3.399  0.00  0.00     0.160 HD
ENDBRANCH  22  23
ENDBRANCH  21  22
ENDBRANCH   3  21
TORSDOF 5
ENDMDL
MODEL 6
REMARK VINA RESULT:   -31.312      4.145      5.812
REMARK INTER + INTRA:         -33.512
REMARK INTER:                 -32.803
REMARK INTRA:                  -0.709
REMARK CONF_INDEPENDENT:        1.492
REMARK UNBOUND:                -0.709
REMARK  5 active torsions:
REMARK  status: ('A' for Active; 'I' for Inactive)
REMARK       I    between atoms: C_2  and  N_3 
REMARK    1  A    between atoms: C_2  and  C_16 
REMARK    2  A    between atoms: N_3  and  C_4 
REMARK    3  A    between atoms: C_4  and  C_5 
REMARK    4  A    between atoms: C_5  and  C_6 
REMARK    5  A    between atoms: N_19  and  C_20 
ROOT
ATOM      1  O   UNL d   1      26.254 -14.270   0.059  0.00  0.00    -0.273 OA
ATOM      2  C   UNL d   1      26.926 -14.322  -0.963  0.00  0.00     0.221 C 
ATOM      3  N   UNL d   1      27.678 -13.232  -1.362  0.00  0.00    -0.360 N 
ATOM      4  H   UNL d   1      28.307 -13.312  -2.154  0.00  0.00     0.162 HD
ENDROOT
BRANCH   2   5
ATOM      5  C   UNL d   1      26.954 -15.537  -1.894  0.00  0.00     0.081 C 
ATOM      6  C   UNL d   1      25.738 -15.544  -2.818  0.00  0.00     0.033 C 
ATOM      7  C   UNL d   1      24.393 -15.870  -2.037  0.00  0.00     0.120 C 
ATOM      8  N   UNL d   1      24.407 -17.019  -1.103  0.00  0.00    -0.388 N 
ATOM      9  C   UNL d   1      25.641 -17.155  -0.362  0.00  0.00     0.120 C 
ATOM     10  C   UNL d   1      26.951 -16.867  -1.138  0.00  0.00     0.033 C 
BRANCH   8  11
ATOM     11  C   UNL d   1      23.156 -17.606  -0.453  0.00  0.00     0.228 C 
ATOM     12  N   UNL d   1      22.756 -18.283   0.913  0.00  0.00    -0.260 NA
ATOM     13  C   UNL d   1      21.472 -18.960   0.677  0.00  0.00     0.046 C 
ATOM     14  H   UNL d   1      23.412 -18.925   1.357  0.00  0.00     0.130 HD
ATOM     15  C   UNL d   1      20.470 -19.332   1.589  0.00  0.00     0.028 C 
ATOM     16  C   UNL d   1      21.132 -19.116  -0.665  0.00  0.00     0.117 C 
ATOM     17  C   UNL d   1      19.138 -19.380   1.107  0.00  0.00     0.021 C 
ATOM     18  C   UNL d   1      18.914 -19.349  -0.265  0.00  0.00     0.118 C 
ATOM     19  N   UNL d   1      19.903 -19.325  -1.167  0.00  0.00    -0.252 NA
ATOM     20  S   UNL d   1      22.472 -18.752  -1.730  0.00  0.00    -0.068 SA
ENDBRANCH   8  11
ENDBRANCH   2   5
BRANCH   3  21
ATOM     21  C   UNL d   1      27.664 -12.037  -0.541  0.00  0.00     0.127 C 
BRANCH  21  22
ATOM     22  C   UNL d   1      27.938 -10.769  -1.338  0.00  0.00     0.056 C 
BRANCH  22  23
ATOM     23  C   UNL d   1      26.948 -10.543  -2.437  0.00  0.00    -0.048 A 
ATOM     24  C   UNL d   1      26.397  -9.369  -2.765  0.00  0.00    -0.004 A 
ATOM     25  C   UNL d   1      26.502  -8.061  -2.220  0.00  0.00     0.037 A 
ATOM     26  C   UNL d   1      25.573  -9.657  -3.959  0.00  0.00     0.038 A 
ATOM     27  C   UNL d   1      25.835  -7.060  -2.816  0.00  0.00     0.035 A 
ATOM     28 CL   UNL d   1      25.943  -5.464  -2.183  0.00  0.00    -0.084 Cl
ATOM     29  C   UNL d   1      25.019  -7.297  -4.001  0.00  0.00     0.026 A 
ATOM     30  C   UNL d   1      24.864  -8.506  -4.574  0.00  0.00     0.031 A 
ATOM     31  N   UNL d   1      25.615 -10.872  -4.288  0.00  0.00    -0.385 N 
ATOM     32  C   UNL d   1      26.489 -11.636  -3.363  0.00  0.00     0.155 A 
ATOM     33  H   UNL d   1      25.114 -11.270  -5.095  0.00  0.00     0.160 HD
ENDBRANCH  22  23
ENDBRANCH  21  22
ENDBRANCH   3  21
TORSDOF 5
ENDMDL
MODEL 7
REMARK VINA RESULT:   -31.191      1.522      1.940
REMARK INTER + INTRA:         -33.407
REMARK INTER:                 -32.683
REMARK INTRA:                  -0.725
REMARK CONF_INDEPENDENT:        1.492
REMARK UNBOUND:                -0.725
REMARK  5 active torsions:
REMARK  status: ('A' for Active; 'I' for Inactive)
REMARK       I    between atoms: C_2  and  N_3 
REMARK    1  A    between atoms: C_2  and  C_16 
REMARK    2  A    between atoms: N_3  and  C_4 
REMARK    3  A    between atoms: C_4  and  C_5 
REMARK    4  A    between atoms: C_5  and  C_6 
REMARK    5  A    between atoms: N_19  and  C_20 
ROOT
ATOM      1  O   UNL d   1      26.005 -14.007  -0.577  0.00  0.00    -0.273 OA
ATOM      2  C   UNL d   1      27.024 -14.655  -0.777  0.00  0.00     0.221 C 
ATOM      3  N   UNL d   1      28.227 -14.254  -0.222  0.00  0.00    -0.360 N 
ATOM      4  H   UNL d   1      29.048 -14.844  -0.310  0.00  0.00     0.162 HD
ENDROOT
BRANCH   2   5
ATOM      5  C   UNL d   1      27.077 -15.894  -1.674  0.00  0.00     0.081 C 
ATOM      6  C   UNL d   1      25.915 -15.901  -2.665  0.00  0.00     0.033 C 
ATOM      7  C   UNL d   1      24.521 -16.175  -1.955  0.00  0.00     0.120 C 
ATOM      8  N   UNL d   1      24.455 -17.298  -0.991  0.00  0.00    -0.388 N 
ATOM      9  C   UNL d   1      25.641 -17.441  -0.178  0.00  0.00     0.120 C 
ATOM     10  C   UNL d   1      26.999 -17.203  -0.885  0.00  0.00     0.033 C 
BRANCH   8  11
ATOM     11  C   UNL d   1      23.155 -17.840  -0.400  0.00  0.00     0.228 C 
ATOM     12  N   UNL d   1      22.682 -18.556   0.923  0.00  0.00    -0.260 NA
ATOM     13  C   UNL d   1      21.367 -19.142   0.625  0.00  0.00     0.046 C 
ATOM     14  H   UNL d   1      23.287 -19.256   1.350  0.00  0.00     0.130 HD
ATOM     15  C   UNL d   1      20.322 -19.497   1.495  0.00  0.00     0.028 C 
ATOM     16  C   UNL d   1      21.052 -19.214  -0.730  0.00  0.00     0.117 C 
ATOM     17  C   UNL d   1      19.002 -19.442   0.981  0.00  0.00     0.021 C 
ATOM     18  C   UNL d   1      18.814 -19.331  -0.392  0.00  0.00     0.118 C 
ATOM     19  N   UNL d   1      19.826 -19.325  -1.270  0.00  0.00    -0.252 NA
ATOM     20  S   UNL d   1      22.437 -18.880  -1.746  0.00  0.00    -0.068 SA
ENDBRANCH   8  11
ENDBRANCH   2   5
BRANCH   3  21
ATOM     21  C   UNL d   1      28.250 -13.065   0.607  0.00  0.00     0.127 C 
BRANCH  21  22
ATOM     22  C   UNL d   1      27.485 -13.241   1.912  0.00  0.00     0.056 C 
BRANCH  22  23
ATOM     23  C   UNL d   1      27.941 -12.307   2.989  0.00  0.00    -0.048 A 
ATOM     24  C   UNL d   1      27.662 -11.000   3.062  0.00  0.00    -0.004 A 
ATOM     25  C   UNL d   1      26.949 -10.111   2.214  0.00  0.00     0.037 A 
ATOM     26  C   UNL d   1      28.255 -10.557   4.343  0.00  0.00     0.038 A 
ATOM     27  C   UNL d   1      26.807  -8.832   2.597  0.00  0.00     0.035 A 
ATOM     28 CL   UNL d   1      25.947  -7.730   1.594  0.00  0.00    -0.084 Cl
ATOM     29  C   UNL d   1      27.367  -8.354   3.855  0.00  0.00     0.026 A 
ATOM     30  C   UNL d   1      28.058  -9.131   4.710  0.00  0.00     0.031 A 
ATOM     31  N   UNL d   1      28.839 -11.493   4.949  0.00  0.00    -0.385 N 
ATOM     32  C   UNL d   1      28.744 -12.758   4.178  0.00  0.00     0.155 A 
ATOM     33  H   UNL d   1      29.309 -11.387   5.859  0.00  0.00     0.160 HD
ENDBRANCH  22  23
ENDBRANCH  21  22
ENDBRANCH   3  21
TORSDOF 5
ENDMDL
MODEL 8
REMARK VINA RESULT:   -31.084      3.952      5.991
REMARK INTER + INTRA:         -34.064
REMARK INTER:                 -32.575
REMARK INTRA:                  -1.488
REMARK CONF_INDEPENDENT:        1.492
REMARK UNBOUND:                -1.488
REMARK  5 active torsions:
REMARK  status: ('A' for Active; 'I' for Inactive)
REMARK       I    between atoms: C_2  and  N_3 
REMARK    1  A    between atoms: C_2  and  C_16 
REMARK    2  A    between atoms: N_3  and  C_4 
REMARK    3  A    between atoms: C_4  and  C_5 
REMARK    4  A    between atoms: C_5  and  C_6 
REMARK    5  A    between atoms: N_19  and  C_20 
ROOT
ATOM      1  O   UNL d   1      25.971 -14.140  -0.657  0.00  0.00    -0.273 OA
ATOM      2  C   UNL d   1      27.047 -14.638  -0.960  0.00  0.00     0.221 C 
ATOM      3  N   UNL d   1      28.227 -13.962  -0.703  0.00  0.00    -0.360 N 
ATOM      4  H   UNL d   1      29.119 -14.417  -0.867  0.00  0.00     0.162 HD
ENDROOT
BRANCH   2   5
ATOM      5  C   UNL d   1      27.185 -15.983  -1.678  0.00  0.00     0.081 C 
ATOM      6  C   UNL d   1      26.087 -16.158  -2.725  0.00  0.00     0.033 C 
ATOM      7  C   UNL d   1      24.659 -16.381  -2.065  0.00  0.00     0.120 C 
ATOM      8  N   UNL d   1      24.561 -17.368  -0.966  0.00  0.00    -0.388 N 
ATOM      9  C   UNL d   1      25.699 -17.363  -0.073  0.00  0.00     0.120 C 
ATOM     10  C   UNL d   1      27.092 -17.178  -0.726  0.00  0.00     0.033 C 
BRANCH   8  11
ATOM     11  C   UNL d   1      23.241 -17.869  -0.382  0.00  0.00     0.228 C 
ATOM     12  N   UNL d   1      22.731 -18.534   0.953  0.00  0.00    -0.260 NA
ATOM     13  C   UNL d   1      21.412 -19.108   0.648  0.00  0.00     0.046 C 
ATOM     14  H   UNL d   1      23.316 -19.230   1.413  0.00  0.00     0.130 HD
ATOM     15  C   UNL d   1      20.345 -19.416   1.509  0.00  0.00     0.028 C 
ATOM     16  C   UNL d   1      21.121 -19.217  -0.710  0.00  0.00     0.117 C 
ATOM     17  C   UNL d   1      19.036 -19.356   0.968  0.00  0.00     0.021 C 
ATOM     18  C   UNL d   1      18.876 -19.287  -0.412  0.00  0.00     0.118 C 
ATOM     19  N   UNL d   1      19.905 -19.325  -1.269  0.00  0.00    -0.252 NA
ATOM     20  S   UNL d   1      22.532 -18.939  -1.708  0.00  0.00    -0.068 SA
ENDBRANCH   8  11
ENDBRANCH   2   5
BRANCH   3  21
ATOM     21  C   UNL d   1      28.161 -12.665  -0.058  0.00  0.00     0.127 C 
BRANCH  21  22
ATOM     22  C   UNL d   1      28.325 -11.510  -1.037  0.00  0.00     0.056 C 
BRANCH  22  23
ATOM     23  C   UNL d   1      27.532 -11.690  -2.294  0.00  0.00    -0.048 A 
ATOM     24  C   UNL d   1      27.799 -12.566  -3.269  0.00  0.00    -0.004 A 
ATOM     25  C   UNL d   1      28.842 -13.509  -3.468  0.00  0.00     0.037 A 
ATOM     26  C   UNL d   1      26.683 -12.416  -4.229  0.00  0.00     0.038 A 
ATOM     27  C   UNL d   1      28.804 -14.290  -4.559  0.00  0.00     0.035 A 
ATOM     28 CL   UNL d   1      30.051 -15.444  -4.828  0.00  0.00    -0.084 Cl
ATOM     29  C   UNL d   1      27.718 -14.184  -5.527  0.00  0.00     0.026 A 
ATOM     30  C   UNL d   1      26.697 -13.313  -5.413  0.00  0.00     0.031 A 
ATOM     31  N   UNL d   1      25.859 -11.533  -3.871  0.00  0.00    -0.385 N 
ATOM     32  C   UNL d   1      26.274 -10.918  -2.586  0.00  0.00     0.155 A 
ATOM     33  H   UNL d   1      25.013 -11.285  -4.401  0.00  0.00     0.160 HD
ENDBRANCH  22  23
ENDBRANCH  21  22
ENDBRANCH   3  21
TORSDOF 5
ENDMDL
MODEL 9
REMARK VINA RESULT:   -30.850      2.977      3.835
REMARK INTER + INTRA:         -33.578
REMARK INTER:                 -32.341
REMARK INTRA:                  -1.237
REMARK CONF_INDEPENDENT:        1.492
REMARK UNBOUND:                -1.237
REMARK  5 active torsions:
REMARK  status: ('A' for Active; 'I' for Inactive)
REMARK       I    between atoms: C_2  and  N_3 
REMARK    1  A    between atoms: C_2  and  C_16 
REMARK    2  A    between atoms: N_3  and  C_4 
REMARK    3  A    between atoms: C_4  and  C_5 
REMARK    4  A    between atoms: C_5  and  C_6 
REMARK    5  A    between atoms: N_19  and  C_20 
ROOT
ATOM      1  O   UNL d   1      26.497 -14.754   0.652  0.00  0.00    -0.273 OA
ATOM      2  C   UNL d   1      27.117 -14.655  -0.399  0.00  0.00     0.221 C 
ATOM      3  N   UNL d   1      27.894 -13.539  -0.650  0.00  0.00    -0.360 N 
ATOM      4  H   UNL d   1      28.481 -13.505  -1.477  0.00  0.00     0.162 HD
ENDROOT
BRANCH   2   5
ATOM      5  C   UNL d   1      27.049 -15.695  -1.521  0.00  0.00     0.081 C 
ATOM      6  C   UNL d   1      25.822 -15.468  -2.402  0.00  0.00     0.033 C 
ATOM      7  C   UNL d   1      24.470 -15.834  -1.653  0.00  0.00     0.120 C 
ATOM      8  N   UNL d   1      24.419 -17.122  -0.925  0.00  0.00    -0.388 N 
ATOM      9  C   UNL d   1      25.652 -17.460  -0.249  0.00  0.00     0.120 C 
ATOM     10  C   UNL d   1      26.967 -17.130  -0.999  0.00  0.00     0.033 C 
BRANCH   8  11
ATOM     11  C   UNL d   1      23.141 -17.729  -0.351  0.00  0.00     0.228 C 
ATOM     12  N   UNL d   1      22.692 -18.494   0.952  0.00  0.00    -0.260 NA
ATOM     13  C   UNL d   1      21.402 -19.126   0.635  0.00  0.00     0.046 C 
ATOM     14  H   UNL d   1      23.323 -19.179   1.365  0.00  0.00     0.130 HD
ATOM     15  C   UNL d   1      20.370 -19.542   1.493  0.00  0.00     0.028 C 
ATOM     16  C   UNL d   1      21.095 -19.178  -0.722  0.00  0.00     0.117 C 
ATOM     17  C   UNL d   1      19.050 -19.528   0.974  0.00  0.00     0.021 C 
ATOM     18  C   UNL d   1      18.863 -19.393  -0.397  0.00  0.00     0.118 C 
ATOM     19  N   UNL d   1      19.877 -19.325  -1.270  0.00  0.00    -0.252 NA
ATOM     20  S   UNL d   1      22.470 -18.765  -1.724  0.00  0.00    -0.068 SA
ENDBRANCH   8  11
ENDBRANCH   2   5
BRANCH   3  21
ATOM     21  C   UNL d   1      27.969 -12.501   0.360  0.00  0.00     0.127 C 
BRANCH  21  22
ATOM     22  C   UNL d   1      29.388 -11.995   0.582  0.00  0.00     0.056 C 
BRANCH  22  23
ATOM     23  C   UNL d   1      30.176 -12.852   1.522  0.00  0.00    -0.048 A 
ATOM     24  C   UNL d   1      30.619 -14.089   1.270  0.00  0.00    -0.004 A 
ATOM     25  C   UNL d   1      30.481 -14.962   0.158  0.00  0.00     0.037 A 
ATOM     26  C   UNL d   1      31.410 -14.459   2.464  0.00  0.00     0.038 A 
ATOM     27  C   UNL d   1      31.095 -16.155   0.196  0.00  0.00     0.035 A 
ATOM     28 CL   UNL d   1      30.949 -17.234  -1.136  0.00  0.00    -0.084 Cl
ATOM     29  C   UNL d   1      31.893 -16.557   1.348  0.00  0.00     0.026 A 
ATOM     30  C   UNL d   1      32.069 -15.790   2.441  0.00  0.00     0.031 A 
ATOM     31  N   UNL d   1      31.415 -13.550   3.336  0.00  0.00    -0.385 N 
ATOM     32  C   UNL d   1      30.619 -12.383   2.882  0.00  0.00     0.155 A 
ATOM     33  H   UNL d   1      31.914 -13.614   4.234  0.00  0.00     0.160 HD
ENDBRANCH  22  23
ENDBRANCH  21  22
ENDBRANCH   3  21
TORSDOF 5
ENDMDL
