MODEL 1
REMARK VINA RESULT:   -22.798      0.000      0.000
REMARK INTER + INTRA:         -27.166
REMARK INTER:                 -25.781
REMARK INTRA:                  -1.386
REMARK CONF_INDEPENDENT:        2.983
REMARK UNBOUND:                -1.386
REMARK  10 active torsions:
REMARK  status: ('A' for Active; 'I' for Inactive)
REMARK    1  A    between atoms: N_1  and  N_2 
REMARK    2  A    between atoms: C_3  and  S_4 
REMARK    3  A    between atoms: S_4  and  C_5 
REMARK    4  A    between atoms: C_5  and  C_6 
REMARK    5  A    between atoms: C_6  and  C_7 
REMARK       I    between atoms: C_7  and  N_9 
REMARK    6  A    between atoms: N_9  and  C_10 
REMARK    7  A    between atoms: C_13  and  O_14 
REMARK    8  A    between atoms: O_14  and  C_15 
REMARK    9  A    between atoms: C_23  and  C_24 
REMARK   10  A    between atoms: C_29  and  O_30 
ROOT
ATOM      1  S   UNL d   1      22.921 -16.196  -0.993  0.00  0.00    -0.088 SA
ENDROOT
BRANCH   1   2
ATOM      2  C   UNL d   1      21.673 -17.397  -0.768  0.00  0.00     0.206 A 
ATOM      3  N   UNL d   1      21.509 -18.325   0.242  0.00  0.00    -0.235 N 
ATOM      4  C   UNL d   1      20.347 -19.016  -0.068  0.00  0.00     0.181 A 
ATOM      5  N   UNL d   1      19.885 -18.575  -1.223  0.00  0.00    -0.127 NA
ATOM      6  N   UNL d   1      20.698 -17.549  -1.645  0.00  0.00    -0.121 NA
BRANCH   3   7
ATOM      7  N   UNL d   1      22.367 -18.661   1.358  0.00  0.00    -0.239 NA
ATOM      8  H   UNL d   1      21.936 -19.302   2.008  0.00  0.00     0.143 HD
ATOM      9  H   UNL d   1      23.164 -19.200   1.013  0.00  0.00     0.143 HD
ENDBRANCH   3   7
BRANCH   4  10
ATOM     10  C   UNL d   1      19.724 -20.031   0.783  0.00  0.00     0.046 A 
ATOM     11  C   UNL d   1      19.011 -21.096   0.217  0.00  0.00     0.018 A 
ATOM     12  C   UNL d   1      18.334 -22.007   1.034  0.00  0.00     0.001 A 
ATOM     13  C   UNL d   1      18.407 -21.892   2.424  0.00  0.00     0.003 A 
ATOM     14  C   UNL d   1      19.136 -20.854   3.002  0.00  0.00     0.037 A 
ATOM     15  C   UNL d   1      19.787 -19.932   2.183  0.00  0.00     0.079 A 
BRANCH  15  16
ATOM     16  O   UNL d   1      20.526 -18.923   2.747  0.00  0.00    -0.360 OA
ATOM     17  H   UNL d   1      20.056 -18.081   2.637  0.00  0.00     0.217 HD
ENDBRANCH  15  16
ENDBRANCH   4  10
ENDBRANCH   1   2
BRANCH   1  18
ATOM     18  C   UNL d   1      24.487 -16.922  -0.473  0.00  0.00     0.091 C 
BRANCH  18  19
ATOM     19  C   UNL d   1      25.347 -17.455  -1.627  0.00  0.00     0.113 C 
BRANCH  19  20
ATOM     20  C   UNL d   1      26.042 -16.276  -2.298  0.00  0.00     0.222 C 
ATOM     21  O   UNL d   1      27.266 -16.130  -2.192  0.00  0.00    -0.273 OA
ATOM     22  N   UNL d   1      25.215 -15.389  -2.973  0.00  0.00    -0.327 N 
ATOM     23  H   UNL d   1      24.212 -15.441  -2.835  0.00  0.00     0.169 HD
BRANCH  22  24
ATOM     24  C   UNL d   1      25.720 -14.289  -3.714  0.00  0.00     0.034 A 
ATOM     25  C   UNL d   1      26.717 -14.458  -4.679  0.00  0.00     0.032 A 
ATOM     26  C   UNL d   1      27.224 -13.341  -5.373  0.00  0.00     0.039 A 
ATOM     27  C   UNL d   1      26.729 -12.054  -5.126  0.00  0.00     0.078 A 
ATOM     28  C   UNL d   1      25.763 -11.893  -4.140  0.00  0.00     0.039 A 
ATOM     29  C   UNL d   1      25.260 -12.999  -3.452  0.00  0.00     0.032 A 
BRANCH  27  30
ATOM     30  O   UNL d   1      27.237 -11.048  -5.903  0.00  0.00    -0.255 OA
BRANCH  30  31
ATOM     31  C   UNL d   1      26.390 -10.537  -6.928  0.00  0.00     0.530 C 
ATOM     32  F   UNL d   1      25.156 -11.084  -6.872  0.00  0.00    -0.144 F 
ATOM     33  F   UNL d   1      26.290  -9.193  -6.842  0.00  0.00    -0.144 F 
ATOM     34  F   UNL d   1      26.922 -10.838  -8.134  0.00  0.00    -0.144 F 
ENDBRANCH  30  31
ENDBRANCH  27  30
ENDBRANCH  22  24
ENDBRANCH  19  20
ENDBRANCH  18  19
ENDBRANCH   1  18
TORSDOF 10
ENDMDL
MODEL 2
REMARK VINA RESULT:   -22.037      5.394      6.389
REMARK INTER + INTRA:         -26.446
REMARK INTER:                 -25.020
REMARK INTRA:                  -1.425
REMARK CONF_INDEPENDENT:        2.983
REMARK UNBOUND:                -1.425
REMARK  10 active torsions:
REMARK  status: ('A' for Active; 'I' for Inactive)
REMARK    1  A    between atoms: N_1  and  N_2 
REMARK    2  A    between atoms: C_3  and  S_4 
REMARK    3  A    between atoms: S_4  and  C_5 
REMARK    4  A    between atoms: C_5  and  C_6 
REMARK    5  A    between atoms: C_6  and  C_7 
REMARK       I    between atoms: C_7  and  N_9 
REMARK    6  A    between atoms: N_9  and  C_10 
REMARK    7  A    between atoms: C_13  and  O_14 
REMARK    8  A    between atoms: O_14  and  C_15 
REMARK    9  A    between atoms: C_23  and  C_24 
REMARK   10  A    between atoms: C_29  and  O_30 
ROOT
ATOM      1  S   UNL d   1      22.992 -16.323  -1.080  0.00  0.00    -0.088 SA
ENDROOT
BRANCH   1   2
ATOM      2  C   UNL d   1      21.707 -17.477  -0.814  0.00  0.00     0.206 A 
ATOM      3  N   UNL d   1      21.553 -18.414   0.189  0.00  0.00    -0.235 N 
ATOM      4  C   UNL d   1      20.351 -19.053  -0.076  0.00  0.00     0.181 A 
ATOM      5  N   UNL d   1      19.854 -18.575  -1.201  0.00  0.00    -0.127 NA
ATOM      6  N   UNL d   1      20.688 -17.575  -1.646  0.00  0.00    -0.121 NA
BRANCH   3   7
ATOM      7  N   UNL d   1      22.447 -18.803   1.258  0.00  0.00    -0.239 NA
ATOM      8  H   UNL d   1      21.961 -19.116   2.085  0.00  0.00     0.143 HD
ATOM      9  H   UNL d   1      22.960 -19.640   0.974  0.00  0.00     0.143 HD
ENDBRANCH   3   7
BRANCH   4  10
ATOM     10  C   UNL d   1      19.726 -20.056   0.788  0.00  0.00     0.046 A 
ATOM     11  C   UNL d   1      19.033 -21.141   0.236  0.00  0.00     0.018 A 
ATOM     12  C   UNL d   1      18.355 -22.042   1.064  0.00  0.00     0.001 A 
ATOM     13  C   UNL d   1      18.408 -21.896   2.451  0.00  0.00     0.003 A 
ATOM     14  C   UNL d   1      19.117 -20.838   3.017  0.00  0.00     0.037 A 
ATOM     15  C   UNL d   1      19.769 -19.926   2.187  0.00  0.00     0.079 A 
BRANCH  15  16
ATOM     16  O   UNL d   1      20.489 -18.897   2.739  0.00  0.00    -0.360 OA
ATOM     17  H   UNL d   1      20.084 -18.052   2.486  0.00  0.00     0.217 HD
ENDBRANCH  15  16
ENDBRANCH   4  10
ENDBRANCH   1   2
BRANCH   1  18
ATOM     18  C   UNL d   1      24.405 -17.215  -1.755  0.00  0.00     0.091 C 
BRANCH  18  19
ATOM     19  C   UNL d   1      25.666 -16.357  -1.929  0.00  0.00     0.113 C 
BRANCH  19  20
ATOM     20  C   UNL d   1      26.277 -16.110  -0.555  0.00  0.00     0.222 C 
ATOM     21  O   UNL d   1      26.357 -17.032   0.268  0.00  0.00    -0.273 OA
ATOM     22  N   UNL d   1      26.678 -14.808  -0.294  0.00  0.00    -0.327 N 
ATOM     23  H   UNL d   1      26.383 -14.063  -0.916  0.00  0.00     0.169 HD
BRANCH  22  24
ATOM     24  C   UNL d   1      27.336 -14.438   0.908  0.00  0.00     0.034 A 
ATOM     25  C   UNL d   1      26.694 -13.668   1.881  0.00  0.00     0.032 A 
ATOM     26  C   UNL d   1      27.385 -13.286   3.048  0.00  0.00     0.039 A 
ATOM     27  C   UNL d   1      28.711 -13.685   3.263  0.00  0.00     0.078 A 
ATOM     28  C   UNL d   1      29.350 -14.421   2.272  0.00  0.00     0.039 A 
ATOM     29  C   UNL d   1      28.667 -14.800   1.116  0.00  0.00     0.032 A 
BRANCH  27  30
ATOM     30  O   UNL d   1      29.268 -13.322   4.459  0.00  0.00    -0.255 OA
BRANCH  30  31
ATOM     31  C   UNL d   1      28.628 -13.802   5.638  0.00  0.00     0.530 C 
ATOM     32  F   UNL d   1      27.363 -13.339   5.741  0.00  0.00    -0.144 F 
ATOM     33  F   UNL d   1      28.616 -15.152   5.662  0.00  0.00    -0.144 F 
ATOM     34  F   UNL d   1      29.314 -13.373   6.721  0.00  0.00    -0.144 F 
ENDBRANCH  30  31
ENDBRANCH  27  30
ENDBRANCH  22  24
ENDBRANCH  19  20
ENDBRANCH  18  19
ENDBRANCH   1  18
TORSDOF 10
ENDMDL
MODEL 3
REMARK VINA RESULT:   -22.033      5.205      5.807
REMARK INTER + INTRA:         -26.243
REMARK INTER:                 -25.016
REMARK INTRA:                  -1.227
REMARK CONF_INDEPENDENT:        2.983
REMARK UNBOUND:                -1.227
REMARK  10 active torsions:
REMARK  status: ('A' for Active; 'I' for Inactive)
REMARK    1  A    between atoms: N_1  and  N_2 
REMARK    2  A    between atoms: C_3  and  S_4 
REMARK    3  A    between atoms: S_4  and  C_5 
REMARK    4  A    between atoms: C_5  and  C_6 
REMARK    5  A    between atoms: C_6  and  C_7 
REMARK       I    between atoms: C_7  and  N_9 
REMARK    6  A    between atoms: N_9  and  C_10 
REMARK    7  A    between atoms: C_13  and  O_14 
REMARK    8  A    between atoms: O_14  and  C_15 
REMARK    9  A    between atoms: C_23  and  C_24 
REMARK   10  A    between atoms: C_29  and  O_30 
ROOT
ATOM      1  S   UNL d   1      22.909 -16.176  -1.007  0.00  0.00    -0.088 SA
ENDROOT
BRANCH   1   2
ATOM      2  C   UNL d   1      21.669 -17.383  -0.772  0.00  0.00     0.206 A 
ATOM      3  N   UNL d   1      21.514 -18.306   0.244  0.00  0.00    -0.235 N 
ATOM      4  C   UNL d   1      20.355 -19.006  -0.058  0.00  0.00     0.181 A 
ATOM      5  N   UNL d   1      19.887 -18.575  -1.214  0.00  0.00    -0.127 NA
ATOM      6  N   UNL d   1      20.693 -17.546  -1.645  0.00  0.00    -0.121 NA
BRANCH   3   7
ATOM      7  N   UNL d   1      22.377 -18.630   1.360  0.00  0.00    -0.239 NA
ATOM      8  H   UNL d   1      21.940 -19.245   2.031  0.00  0.00     0.143 HD
ATOM      9  H   UNL d   1      23.159 -19.193   1.021  0.00  0.00     0.143 HD
ENDBRANCH   3   7
BRANCH   4  10
ATOM     10  C   UNL d   1      19.741 -20.020   0.801  0.00  0.00     0.046 A 
ATOM     11  C   UNL d   1      19.042 -21.098   0.242  0.00  0.00     0.018 A 
ATOM     12  C   UNL d   1      18.373 -22.010   1.066  0.00  0.00     0.001 A 
ATOM     13  C   UNL d   1      18.440 -21.880   2.455  0.00  0.00     0.003 A 
ATOM     14  C   UNL d   1      19.155 -20.828   3.026  0.00  0.00     0.037 A 
ATOM     15  C   UNL d   1      19.798 -19.907   2.200  0.00  0.00     0.079 A 
BRANCH  15  16
ATOM     16  O   UNL d   1      20.523 -18.884   2.757  0.00  0.00    -0.360 OA
ATOM     17  H   UNL d   1      20.125 -18.035   2.504  0.00  0.00     0.217 HD
ENDBRANCH  15  16
ENDBRANCH   4  10
ENDBRANCH   1   2
BRANCH   1  18
ATOM     18  C   UNL d   1      24.476 -17.033  -1.251  0.00  0.00     0.091 C 
BRANCH  18  19
ATOM     19  C   UNL d   1      24.874 -17.957  -0.092  0.00  0.00     0.113 C 
BRANCH  19  20
ATOM     20  C   UNL d   1      26.391 -17.930   0.051  0.00  0.00     0.222 C 
ATOM     21  O   UNL d   1      26.977 -18.831   0.665  0.00  0.00    -0.273 OA
ATOM     22  N   UNL d   1      27.033 -16.831  -0.502  0.00  0.00    -0.327 N 
ATOM     23  H   UNL d   1      26.485 -16.028  -0.790  0.00  0.00     0.169 HD
BRANCH  22  24
ATOM     24  C   UNL d   1      28.446 -16.702  -0.519  0.00  0.00     0.034 A 
ATOM     25  C   UNL d   1      29.279 -17.824  -0.546  0.00  0.00     0.032 A 
ATOM     26  C   UNL d   1      30.678 -17.665  -0.527  0.00  0.00     0.039 A 
ATOM     27  C   UNL d   1      31.258 -16.389  -0.501  0.00  0.00     0.078 A 
ATOM     28  C   UNL d   1      30.420 -15.282  -0.440  0.00  0.00     0.039 A 
ATOM     29  C   UNL d   1      29.034 -15.439  -0.459  0.00  0.00     0.032 A 
BRANCH  27  30
ATOM     30  O   UNL d   1      32.625 -16.342  -0.556  0.00  0.00    -0.255 OA
BRANCH  30  31
ATOM     31  C   UNL d   1      33.321 -16.431   0.684  0.00  0.00     0.530 C 
ATOM     32  F   UNL d   1      34.554 -16.960   0.526  0.00  0.00    -0.144 F 
ATOM     33  F   UNL d   1      33.424 -15.215   1.264  0.00  0.00    -0.144 F 
ATOM     34  F   UNL d   1      32.631 -17.235   1.524  0.00  0.00    -0.144 F 
ENDBRANCH  30  31
ENDBRANCH  27  30
ENDBRANCH  22  24
ENDBRANCH  19  20
ENDBRANCH  18  19
ENDBRANCH   1  18
TORSDOF 10
ENDMDL
MODEL 4
REMARK VINA RESULT:   -21.993      1.718      1.940
REMARK INTER + INTRA:         -26.906
REMARK INTER:                 -24.976
REMARK INTRA:                  -1.930
REMARK CONF_INDEPENDENT:        2.983
REMARK UNBOUND:                -1.930
REMARK  10 active torsions:
REMARK  status: ('A' for Active; 'I' for Inactive)
REMARK    1  A    between atoms: N_1  and  N_2 
REMARK    2  A    between atoms: C_3  and  S_4 
REMARK    3  A    between atoms: S_4  and  C_5 
REMARK    4  A    between atoms: C_5  and  C_6 
REMARK    5  A    between atoms: C_6  and  C_7 
REMARK       I    between atoms: C_7  and  N_9 
REMARK    6  A    between atoms: N_9  and  C_10 
REMARK    7  A    between atoms: C_13  and  O_14 
REMARK    8  A    between atoms: O_14  and  C_15 
REMARK    9  A    between atoms: C_23  and  C_24 
REMARK   10  A    between atoms: C_29  and  O_30 
ROOT
ATOM      1  S   UNL d   1      22.855 -16.148  -1.024  0.00  0.00    -0.088 SA
ENDROOT
BRANCH   1   2
ATOM      2  C   UNL d   1      21.627 -17.365  -0.778  0.00  0.00     0.206 A 
ATOM      3  N   UNL d   1      21.486 -18.286   0.242  0.00  0.00    -0.235 N 
ATOM      4  C   UNL d   1      20.332 -18.998  -0.052  0.00  0.00     0.181 A 
ATOM      5  N   UNL d   1      19.854 -18.575  -1.207  0.00  0.00    -0.127 NA
ATOM      6  N   UNL d   1      20.648 -17.541  -1.645  0.00  0.00    -0.121 NA
BRANCH   3   7
ATOM      7  N   UNL d   1      22.357 -18.599   1.354  0.00  0.00    -0.239 NA
ATOM      8  H   UNL d   1      21.919 -19.192   2.044  0.00  0.00     0.143 HD
ATOM      9  H   UNL d   1      23.126 -19.181   1.019  0.00  0.00     0.143 HD
ENDBRANCH   3   7
BRANCH   4  10
ATOM     10  C   UNL d   1      19.731 -20.014   0.814  0.00  0.00     0.046 A 
ATOM     11  C   UNL d   1      19.049 -21.107   0.263  0.00  0.00     0.018 A 
ATOM     12  C   UNL d   1      18.392 -22.022   1.093  0.00  0.00     0.001 A 
ATOM     13  C   UNL d   1      18.455 -21.880   2.480  0.00  0.00     0.003 A 
ATOM     14  C   UNL d   1      19.153 -20.814   3.044  0.00  0.00     0.037 A 
ATOM     15  C   UNL d   1      19.784 -19.889   2.212  0.00  0.00     0.079 A 
BRANCH  15  16
ATOM     16  O   UNL d   1      20.493 -18.852   2.762  0.00  0.00    -0.360 OA
ATOM     17  H   UNL d   1      20.552 -18.128   2.118  0.00  0.00     0.217 HD
ENDBRANCH  15  16
ENDBRANCH   4  10
ENDBRANCH   1   2
BRANCH   1  18
ATOM     18  C   UNL d   1      24.331 -16.661  -0.125  0.00  0.00     0.091 C 
BRANCH  18  19
ATOM     19  C   UNL d   1      25.350 -17.431  -0.976  0.00  0.00     0.113 C 
BRANCH  19  20
ATOM     20  C   UNL d   1      26.213 -16.424  -1.727  0.00  0.00     0.222 C 
ATOM     21  O   UNL d   1      27.352 -16.155  -1.324  0.00  0.00    -0.273 OA
ATOM     22  N   UNL d   1      25.623 -15.823  -2.830  0.00  0.00    -0.327 N 
ATOM     23  H   UNL d   1      24.624 -15.917  -2.972  0.00  0.00     0.169 HD
BRANCH  22  24
ATOM     24  C   UNL d   1      26.326 -14.926  -3.676  0.00  0.00     0.034 A 
ATOM     25  C   UNL d   1      26.676 -15.280  -4.981  0.00  0.00     0.032 A 
ATOM     26  C   UNL d   1      27.405 -14.382  -5.786  0.00  0.00     0.039 A 
ATOM     27  C   UNL d   1      27.772 -13.119  -5.303  0.00  0.00     0.078 A 
ATOM     28  C   UNL d   1      27.449 -12.790  -3.992  0.00  0.00     0.039 A 
ATOM     29  C   UNL d   1      26.727 -13.680  -3.195  0.00  0.00     0.032 A 
BRANCH  27  30
ATOM     30  O   UNL d   1      28.416 -12.295  -6.187  0.00  0.00    -0.255 OA
BRANCH  30  31
ATOM     31  C   UNL d   1      29.824 -12.466  -6.315  0.00  0.00     0.530 C 
ATOM     32  F   UNL d   1      30.467 -12.185  -5.159  0.00  0.00    -0.144 F 
ATOM     33  F   UNL d   1      30.122 -13.727  -6.699  0.00  0.00    -0.144 F 
ATOM     34  F   UNL d   1      30.290 -11.622  -7.262  0.00  0.00    -0.144 F 
ENDBRANCH  30  31
ENDBRANCH  27  30
ENDBRANCH  22  24
ENDBRANCH  19  20
ENDBRANCH  18  19
ENDBRANCH   1  18
TORSDOF 10
ENDMDL
MODEL 5
REMARK VINA RESULT:   -21.989      1.444      1.803
REMARK INTER + INTRA:         -26.753
REMARK INTER:                 -24.972
REMARK INTRA:                  -1.781
REMARK CONF_INDEPENDENT:        2.983
REMARK UNBOUND:                -1.781
REMARK  10 active torsions:
REMARK  status: ('A' for Active; 'I' for Inactive)
REMARK    1  A    between atoms: N_1  and  N_2 
REMARK    2  A    between atoms: C_3  and  S_4 
REMARK    3  A    between atoms: S_4  and  C_5 
REMARK    4  A    between atoms: C_5  and  C_6 
REMARK    5  A    between atoms: C_6  and  C_7 
REMARK       I    between atoms: C_7  and  N_9 
REMARK    6  A    between atoms: N_9  and  C_10 
REMARK    7  A    between atoms: C_13  and  O_14 
REMARK    8  A    between atoms: O_14  and  C_15 
REMARK    9  A    between atoms: C_23  and  C_24 
REMARK   10  A    between atoms: C_29  and  O_30 
ROOT
ATOM      1  S   UNL d   1      22.905 -16.170  -1.011  0.00  0.00    -0.088 SA
ENDROOT
BRANCH   1   2
ATOM      2  C   UNL d   1      21.667 -17.380  -0.774  0.00  0.00     0.206 A 
ATOM      3  N   UNL d   1      21.516 -18.304   0.242  0.00  0.00    -0.235 N 
ATOM      4  C   UNL d   1      20.358 -19.006  -0.059  0.00  0.00     0.181 A 
ATOM      5  N   UNL d   1      19.887 -18.575  -1.214  0.00  0.00    -0.127 NA
ATOM      6  N   UNL d   1      20.690 -17.544  -1.645  0.00  0.00    -0.121 NA
BRANCH   3   7
ATOM      7  N   UNL d   1      22.382 -18.627   1.356  0.00  0.00    -0.239 NA
ATOM      8  H   UNL d   1      21.931 -19.202   2.052  0.00  0.00     0.143 HD
ATOM      9  H   UNL d   1      23.136 -19.232   1.025  0.00  0.00     0.143 HD
ENDBRANCH   3   7
BRANCH   4  10
ATOM     10  C   UNL d   1      19.747 -20.021   0.801  0.00  0.00     0.046 A 
ATOM     11  C   UNL d   1      19.063 -21.109   0.243  0.00  0.00     0.018 A 
ATOM     12  C   UNL d   1      18.397 -22.023   1.066  0.00  0.00     0.001 A 
ATOM     13  C   UNL d   1      18.453 -21.886   2.455  0.00  0.00     0.003 A 
ATOM     14  C   UNL d   1      19.153 -20.824   3.025  0.00  0.00     0.037 A 
ATOM     15  C   UNL d   1      19.792 -19.900   2.200  0.00  0.00     0.079 A 
BRANCH  15  16
ATOM     16  O   UNL d   1      20.504 -18.868   2.757  0.00  0.00    -0.360 OA
ATOM     17  H   UNL d   1      20.714 -18.216   2.068  0.00  0.00     0.217 HD
ENDBRANCH  15  16
ENDBRANCH   4  10
ENDBRANCH   1   2
BRANCH   1  18
ATOM     18  C   UNL d   1      24.469 -16.858  -0.436  0.00  0.00     0.091 C 
BRANCH  18  19
ATOM     19  C   UNL d   1      25.531 -17.006  -1.533  0.00  0.00     0.113 C 
BRANCH  19  20
ATOM     20  C   UNL d   1      26.056 -15.620  -1.889  0.00  0.00     0.222 C 
ATOM     21  O   UNL d   1      26.850 -15.040  -1.136  0.00  0.00    -0.273 OA
ATOM     22  N   UNL d   1      25.556 -15.063  -3.057  0.00  0.00    -0.327 N 
ATOM     23  H   UNL d   1      24.751 -15.487  -3.505  0.00  0.00     0.169 HD
BRANCH  22  24
ATOM     24  C   UNL d   1      26.008 -13.816  -3.562  0.00  0.00     0.034 A 
ATOM     25  C   UNL d   1      26.209 -12.720  -2.720  0.00  0.00     0.032 A 
ATOM     26  C   UNL d   1      26.623 -11.484  -3.256  0.00  0.00     0.039 A 
ATOM     27  C   UNL d   1      26.860 -11.338  -4.630  0.00  0.00     0.078 A 
ATOM     28  C   UNL d   1      26.623 -12.426  -5.462  0.00  0.00     0.039 A 
ATOM     29  C   UNL d   1      26.212 -13.650  -4.932  0.00  0.00     0.032 A 
BRANCH  27  30
ATOM     30  O   UNL d   1      27.327 -10.118  -5.039  0.00  0.00    -0.255 OA
BRANCH  30  31
ATOM     31  C   UNL d   1      28.710  -9.854  -4.820  0.00  0.00     0.530 C 
ATOM     32  F   UNL d   1      28.970  -9.611  -3.516  0.00  0.00    -0.144 F 
ATOM     33  F   UNL d   1      29.469 -10.888  -5.244  0.00  0.00    -0.144 F 
ATOM     34  F   UNL d   1      29.069  -8.758  -5.525  0.00  0.00    -0.144 F 
ENDBRANCH  30  31
ENDBRANCH  27  30
ENDBRANCH  22  24
ENDBRANCH  19  20
ENDBRANCH  18  19
ENDBRANCH   1  18
TORSDOF 10
ENDMDL
MODEL 6
REMARK VINA RESULT:   -21.631      4.579      5.316
REMARK INTER + INTRA:         -26.351
REMARK INTER:                 -24.614
REMARK INTRA:                  -1.737
REMARK CONF_INDEPENDENT:        2.983
REMARK UNBOUND:                -1.737
REMARK  10 active torsions:
REMARK  status: ('A' for Active; 'I' for Inactive)
REMARK    1  A    between atoms: N_1  and  N_2 
REMARK    2  A    between atoms: C_3  and  S_4 
REMARK    3  A    between atoms: S_4  and  C_5 
REMARK    4  A    between atoms: C_5  and  C_6 
REMARK    5  A    between atoms: C_6  and  C_7 
REMARK       I    between atoms: C_7  and  N_9 
REMARK    6  A    between atoms: N_9  and  C_10 
REMARK    7  A    between atoms: C_13  and  O_14 
REMARK    8  A    between atoms: O_14  and  C_15 
REMARK    9  A    between atoms: C_23  and  C_24 
REMARK   10  A    between atoms: C_29  and  O_30 
ROOT
ATOM      1  S   UNL d   1      22.914 -16.173  -0.977  0.00  0.00    -0.088 SA
ENDROOT
BRANCH   1   2
ATOM      2  C   UNL d   1      21.672 -17.382  -0.759  0.00  0.00     0.206 A 
ATOM      3  N   UNL d   1      21.505 -18.307   0.254  0.00  0.00    -0.235 N 
ATOM      4  C   UNL d   1      20.351 -19.007  -0.065  0.00  0.00     0.181 A 
ATOM      5  N   UNL d   1      19.897 -18.575  -1.226  0.00  0.00    -0.127 NA
ATOM      6  N   UNL d   1      20.707 -17.545  -1.645  0.00  0.00    -0.121 NA
BRANCH   3   7
ATOM      7  N   UNL d   1      22.354 -18.632   1.379  0.00  0.00    -0.239 NA
ATOM      8  H   UNL d   1      21.935 -19.300   2.009  0.00  0.00     0.143 HD
ATOM      9  H   UNL d   1      23.176 -19.134   1.040  0.00  0.00     0.143 HD
ENDBRANCH   3   7
BRANCH   4  10
ATOM     10  C   UNL d   1      19.726 -20.023   0.785  0.00  0.00     0.046 A 
ATOM     11  C   UNL d   1      19.052 -21.112   0.216  0.00  0.00     0.018 A 
ATOM     12  C   UNL d   1      18.373 -22.025   1.029  0.00  0.00     0.001 A 
ATOM     13  C   UNL d   1      18.406 -21.888   2.417  0.00  0.00     0.003 A 
ATOM     14  C   UNL d   1      19.096 -20.826   2.999  0.00  0.00     0.037 A 
ATOM     15  C   UNL d   1      19.748 -19.902   2.184  0.00  0.00     0.079 A 
BRANCH  15  16
ATOM     16  O   UNL d   1      20.450 -18.869   2.753  0.00  0.00    -0.360 OA
ATOM     17  H   UNL d   1      20.802 -18.297   2.051  0.00  0.00     0.217 HD
ENDBRANCH  15  16
ENDBRANCH   4  10
ENDBRANCH   1   2
BRANCH   1  18
ATOM     18  C   UNL d   1      24.414 -17.013  -1.520  0.00  0.00     0.091 C 
BRANCH  18  19
ATOM     19  C   UNL d   1      25.280 -16.192  -2.484  0.00  0.00     0.113 C 
BRANCH  19  20
ATOM     20  C   UNL d   1      26.233 -15.330  -1.666  0.00  0.00     0.222 C 
ATOM     21  O   UNL d   1      27.075 -14.619  -2.231  0.00  0.00    -0.273 OA
ATOM     22  N   UNL d   1      26.116 -15.436  -0.288  0.00  0.00    -0.327 N 
ATOM     23  H   UNL d   1      25.569 -16.193   0.108  0.00  0.00     0.169 HD
BRANCH  22  24
ATOM     24  C   UNL d   1      26.878 -14.640   0.607  0.00  0.00     0.034 A 
ATOM     25  C   UNL d   1      26.443 -13.372   1.002  0.00  0.00     0.032 A 
ATOM     26  C   UNL d   1      27.237 -12.589   1.863  0.00  0.00     0.039 A 
ATOM     27  C   UNL d   1      28.460 -13.071   2.352  0.00  0.00     0.078 A 
ATOM     28  C   UNL d   1      28.898 -14.319   1.924  0.00  0.00     0.039 A 
ATOM     29  C   UNL d   1      28.112 -15.094   1.071  0.00  0.00     0.032 A 
BRANCH  27  30
ATOM     30  O   UNL d   1      29.121 -12.263   3.236  0.00  0.00    -0.255 OA
BRANCH  30  31
ATOM     31  C   UNL d   1      30.380 -11.746   2.817  0.00  0.00     0.530 C 
ATOM     32  F   UNL d   1      31.310 -12.722   2.717  0.00  0.00    -0.144 F 
ATOM     33  F   UNL d   1      30.268 -11.110   1.630  0.00  0.00    -0.144 F 
ATOM     34  F   UNL d   1      30.819 -10.849   3.729  0.00  0.00    -0.144 F 
ENDBRANCH  30  31
ENDBRANCH  27  30
ENDBRANCH  22  24
ENDBRANCH  19  20
ENDBRANCH  18  19
ENDBRANCH   1  18
TORSDOF 10
ENDMDL
