MODEL 1
REMARK VINA RESULT:    -7.635      0.000      0.000
REMARK INTER + INTRA:         -14.275
REMARK INTER:                 -10.320
REMARK INTRA:                  -3.955
REMARK CONF_INDEPENDENT:        2.685
REMARK UNBOUND:                -3.955
REMARK  9 active torsions:
REMARK  status: ('A' for Active; 'I' for Inactive)
REMARK    1  A    between atoms: C_2  and  O_3 
REMARK    2  A    between atoms: O_3  and  C_4 
REMARK    3  A    between atoms: C_10  and  C_11 
REMARK       I    between atoms: C_11  and  N_13 
REMARK    4  A    between atoms: N_13  and  C_14 
REMARK    5  A    between atoms: C_14  and  N_16 
REMARK    6  A    between atoms: N_16  and  N_17 
REMARK       I    between atoms: N_17  and  C_18 
REMARK    7  A    between atoms: C_18  and  C_20 
REMARK    8  A    between atoms: C_20  and  O_21 
REMARK    9  A    between atoms: O_21  and  C_22 
ROOT
ATOM      1  C   UNL d   1      25.969 -12.005  -3.252  0.00  0.00     0.193 C 
ATOM      2  S   UNL d   1      26.277 -10.414  -2.775  0.00  0.00    -0.039 SA
ENDROOT
BRANCH   1   3
ATOM      3  N   UNL d   1      25.939 -13.121  -2.382  0.00  0.00    -0.298 N 
ATOM      4  C   UNL d   1      25.372 -14.395  -2.642  0.00  0.00     0.260 C 
ATOM      5  O   UNL d   1      24.820 -14.686  -3.708  0.00  0.00    -0.267 OA
ATOM      6  H   UNL d   1      26.341 -13.017  -1.457  0.00  0.00     0.171 HD
BRANCH   4   7
ATOM      7  C   UNL d   1      25.414 -15.515  -1.632  0.00  0.00     0.067 A 
ATOM      8  C   UNL d   1      24.368 -16.474  -1.688  0.00  0.00     0.039 A 
ATOM      9  C   UNL d   1      24.322 -17.559  -0.809  0.00  0.00     0.012 A 
ATOM     10  C   UNL d   1      25.317 -17.720   0.143  0.00  0.00     0.022 A 
ATOM     11 BR   UNL d   1      22.905 -18.809  -0.897  0.00  0.00    -0.051 Br
ATOM     12  C   UNL d   1      26.354 -16.784   0.217  0.00  0.00     0.039 A 
ATOM     13  C   UNL d   1      26.414 -15.688  -0.668  0.00  0.00     0.084 A 
BRANCH  13  14
ATOM     14  O   UNL d   1      27.373 -14.718  -0.557  0.00  0.00    -0.350 OA
BRANCH  14  15
ATOM     15  C   UNL d   1      27.694 -14.339   0.784  0.00  0.00     0.171 C 
ATOM     16  C   UNL d   1      26.654 -13.320   1.207  0.00  0.00     0.034 C 
ENDBRANCH  14  15
ENDBRANCH  13  14
ENDBRANCH   4   7
ENDBRANCH   1   3
BRANCH   1  17
ATOM     17  N   UNL d   1      25.710 -12.276  -4.609  0.00  0.00    -0.273 N 
ATOM     18  H   UNL d   1      24.951 -11.885  -5.166  0.00  0.00     0.189 HD
BRANCH  17  19
ATOM     19  N   UNL d   1      26.570 -13.219  -5.321  0.00  0.00    -0.266 N 
ATOM     20  C   UNL d   1      27.672 -12.787  -6.055  0.00  0.00     0.260 C 
ATOM     21  O   UNL d   1      27.952 -11.590  -6.124  0.00  0.00    -0.269 OA
ATOM     22  H   UNL d   1      26.302 -14.199  -5.234  0.00  0.00     0.190 HD
BRANCH  20  23
ATOM     23  C   UNL d   1      28.497 -13.909  -6.771  0.00  0.00     0.280 C 
BRANCH  23  24
ATOM     24  O   UNL d   1      28.100 -15.200  -6.288  0.00  0.00    -0.342 OA
BRANCH  24  25
ATOM     25  C   UNL d   1      28.696 -15.677  -5.146  0.00  0.00     0.075 A 
ATOM     26  C   UNL d   1      28.166 -15.496  -3.869  0.00  0.00     0.038 A 
ATOM     27  C   UNL d   1      28.785 -16.077  -2.751  0.00  0.00     0.009 A 
ATOM     28  C   UNL d   1      29.936 -16.861  -2.892  0.00  0.00    -0.061 A 
ATOM     29  C   UNL d   1      30.598 -17.468  -1.686  0.00  0.00     0.048 C 
ATOM     30  C   UNL d   1      30.453 -17.067  -4.176  0.00  0.00     0.016 A 
ATOM     31  C   UNL d   1      29.839 -16.486  -5.306  0.00  0.00    -0.028 A 
ATOM     32  C   UNL d   1      30.405 -16.728  -6.677  0.00  0.00     0.051 C 
ENDBRANCH  24  25
ENDBRANCH  23  24
ENDBRANCH  20  23
ENDBRANCH  17  19
ENDBRANCH   1  17
TORSDOF 9
ENDMDL
MODEL 2
REMARK VINA RESULT:    -7.526      2.372      3.697
REMARK INTER + INTRA:         -13.251
REMARK INTER:                 -10.211
REMARK INTRA:                  -3.040
REMARK CONF_INDEPENDENT:        2.685
REMARK UNBOUND:                -3.040
REMARK  9 active torsions:
REMARK  status: ('A' for Active; 'I' for Inactive)
REMARK    1  A    between atoms: C_2  and  O_3 
REMARK    2  A    between atoms: O_3  and  C_4 
REMARK    3  A    between atoms: C_10  and  C_11 
REMARK       I    between atoms: C_11  and  N_13 
REMARK    4  A    between atoms: N_13  and  C_14 
REMARK    5  A    between atoms: C_14  and  N_16 
REMARK    6  A    between atoms: N_16  and  N_17 
REMARK       I    between atoms: N_17  and  C_18 
REMARK    7  A    between atoms: C_18  and  C_20 
REMARK    8  A    between atoms: C_20  and  O_21 
REMARK    9  A    between atoms: O_21  and  C_22 
ROOT
ATOM      1  C   UNL d   1      26.994 -14.206  -4.803  0.00  0.00     0.193 C 
ATOM      2  S   UNL d   1      26.228 -12.713  -4.999  0.00  0.00    -0.039 SA
ENDROOT
BRANCH   1   3
ATOM      3  N   UNL d   1      26.772 -15.096  -3.724  0.00  0.00    -0.298 N 
ATOM      4  C   UNL d   1      25.541 -15.354  -3.066  0.00  0.00     0.260 C 
ATOM      5  O   UNL d   1      24.479 -14.809  -3.378  0.00  0.00    -0.267 OA
ATOM      6  H   UNL d   1      27.568 -15.600  -3.348  0.00  0.00     0.171 HD
BRANCH   4   7
ATOM      7  C   UNL d   1      25.430 -16.340  -1.930  0.00  0.00     0.067 A 
ATOM      8  C   UNL d   1      24.136 -16.852  -1.644  0.00  0.00     0.039 A 
ATOM      9  C   UNL d   1      23.926 -17.782  -0.623  0.00  0.00     0.012 A 
ATOM     10  C   UNL d   1      24.996 -18.231   0.134  0.00  0.00     0.022 A 
ATOM     11 BR   UNL d   1      22.187 -18.430  -0.255  0.00  0.00    -0.051 Br
ATOM     12  C   UNL d   1      26.278 -17.736  -0.128  0.00  0.00     0.039 A 
ATOM     13  C   UNL d   1      26.504 -16.801  -1.159  0.00  0.00     0.084 A 
BRANCH  13  14
ATOM     14  O   UNL d   1      27.735 -16.244  -1.376  0.00  0.00    -0.350 OA
BRANCH  14  15
ATOM     15  C   UNL d   1      28.665 -16.401  -0.302  0.00  0.00     0.171 C 
ATOM     16  C   UNL d   1      29.654 -17.465  -0.737  0.00  0.00     0.034 C 
ENDBRANCH  14  15
ENDBRANCH  13  14
ENDBRANCH   4   7
ENDBRANCH   1   3
BRANCH   1  17
ATOM     17  N   UNL d   1      27.923 -14.632  -5.771  0.00  0.00    -0.273 N 
ATOM     18  H   UNL d   1      28.006 -14.277  -6.722  0.00  0.00     0.189 HD
BRANCH  17  19
ATOM     19  N   UNL d   1      28.862 -15.700  -5.431  0.00  0.00    -0.266 N 
ATOM     20  C   UNL d   1      29.626 -15.653  -4.268  0.00  0.00     0.260 C 
ATOM     21  O   UNL d   1      29.531 -14.704  -3.490  0.00  0.00    -0.269 OA
ATOM     22  H   UNL d   1      28.906 -16.467  -6.102  0.00  0.00     0.190 HD
BRANCH  20  23
ATOM     23  C   UNL d   1      30.594 -16.863  -4.039  0.00  0.00     0.280 C 
BRANCH  23  24
ATOM     24  O   UNL d   1      30.015 -18.067  -4.562  0.00  0.00    -0.342 OA
BRANCH  24  25
ATOM     25  C   UNL d   1      30.455 -18.523  -5.780  0.00  0.00     0.075 A 
ATOM     26  C   UNL d   1      30.776 -17.683  -6.846  0.00  0.00     0.038 A 
ATOM     27  C   UNL d   1      31.295 -18.210  -8.038  0.00  0.00     0.009 A 
ATOM     28  C   UNL d   1      31.517 -19.584  -8.182  0.00  0.00    -0.061 A 
ATOM     29  C   UNL d   1      32.062 -20.140  -9.468  0.00  0.00     0.048 C 
ATOM     30  C   UNL d   1      31.223 -20.426  -7.103  0.00  0.00     0.016 A 
ATOM     31  C   UNL d   1      30.698 -19.906  -5.900  0.00  0.00    -0.028 A 
ATOM     32  C   UNL d   1      30.398 -20.827  -4.750  0.00  0.00     0.051 C 
ENDBRANCH  24  25
ENDBRANCH  23  24
ENDBRANCH  20  23
ENDBRANCH  17  19
ENDBRANCH   1  17
TORSDOF 9
ENDMDL
MODEL 3
REMARK VINA RESULT:    -7.384      0.597      1.471
REMARK INTER + INTRA:         -13.598
REMARK INTER:                 -10.068
REMARK INTRA:                  -3.529
REMARK CONF_INDEPENDENT:        2.685
REMARK UNBOUND:                -3.529
REMARK  9 active torsions:
REMARK  status: ('A' for Active; 'I' for Inactive)
REMARK    1  A    between atoms: C_2  and  O_3 
REMARK    2  A    between atoms: O_3  and  C_4 
REMARK    3  A    between atoms: C_10  and  C_11 
REMARK       I    between atoms: C_11  and  N_13 
REMARK    4  A    between atoms: N_13  and  C_14 
REMARK    5  A    between atoms: C_14  and  N_16 
REMARK    6  A    between atoms: N_16  and  N_17 
REMARK       I    between atoms: N_17  and  C_18 
REMARK    7  A    between atoms: C_18  and  C_20 
REMARK    8  A    between atoms: C_20  and  O_21 
REMARK    9  A    between atoms: O_21  and  C_22 
ROOT
ATOM      1  C   UNL d   1      25.939 -12.078  -3.249  0.00  0.00     0.193 C 
ATOM      2  S   UNL d   1      26.241 -10.486  -2.772  0.00  0.00    -0.039 SA
ENDROOT
BRANCH   1   3
ATOM      3  N   UNL d   1      25.903 -13.194  -2.377  0.00  0.00    -0.298 N 
ATOM      4  C   UNL d   1      25.358 -14.475  -2.648  0.00  0.00     0.260 C 
ATOM      5  O   UNL d   1      24.836 -14.775  -3.726  0.00  0.00    -0.267 OA
ATOM      6  H   UNL d   1      26.281 -13.082  -1.442  0.00  0.00     0.171 HD
BRANCH   4   7
ATOM      7  C   UNL d   1      25.391 -15.592  -1.635  0.00  0.00     0.067 A 
ATOM      8  C   UNL d   1      24.337 -16.544  -1.689  0.00  0.00     0.039 A 
ATOM      9  C   UNL d   1      24.282 -17.625  -0.808  0.00  0.00     0.012 A 
ATOM     10  C   UNL d   1      25.273 -17.791   0.147  0.00  0.00     0.022 A 
ATOM     11 BR   UNL d   1      22.855 -18.866  -0.894  0.00  0.00    -0.051 Br
ATOM     12  C   UNL d   1      26.318 -16.863   0.220  0.00  0.00     0.039 A 
ATOM     13  C   UNL d   1      26.387 -15.770  -0.668  0.00  0.00     0.084 A 
BRANCH  13  14
ATOM     14  O   UNL d   1      27.354 -14.807  -0.558  0.00  0.00    -0.350 OA
BRANCH  14  15
ATOM     15  C   UNL d   1      27.708 -14.459   0.783  0.00  0.00     0.171 C 
ATOM     16  C   UNL d   1      26.782 -13.332   1.197  0.00  0.00     0.034 C 
ENDBRANCH  14  15
ENDBRANCH  13  14
ENDBRANCH   4   7
ENDBRANCH   1   3
BRANCH   1  17
ATOM     17  N   UNL d   1      25.694 -12.352  -4.608  0.00  0.00    -0.273 N 
ATOM     18  H   UNL d   1      24.929 -11.979  -5.168  0.00  0.00     0.189 HD
BRANCH  17  19
ATOM     19  N   UNL d   1      26.581 -13.272  -5.318  0.00  0.00    -0.266 N 
ATOM     20  C   UNL d   1      27.629 -12.807  -6.108  0.00  0.00     0.260 C 
ATOM     21  O   UNL d   1      27.837 -11.600  -6.231  0.00  0.00    -0.269 OA
ATOM     22  H   UNL d   1      26.373 -14.262  -5.185  0.00  0.00     0.190 HD
BRANCH  20  23
ATOM     23  C   UNL d   1      28.490 -13.907  -6.814  0.00  0.00     0.280 C 
BRANCH  23  24
ATOM     24  O   UNL d   1      28.178 -15.201  -6.277  0.00  0.00    -0.342 OA
BRANCH  24  25
ATOM     25  C   UNL d   1      29.203 -15.950  -5.753  0.00  0.00     0.075 A 
ATOM     26  C   UNL d   1      30.217 -16.515  -6.527  0.00  0.00     0.038 A 
ATOM     27  C   UNL d   1      31.278 -17.203  -5.919  0.00  0.00     0.009 A 
ATOM     28  C   UNL d   1      31.355 -17.325  -4.527  0.00  0.00    -0.061 A 
ATOM     29  C   UNL d   1      32.490 -18.074  -3.887  0.00  0.00     0.048 C 
ATOM     30  C   UNL d   1      30.354 -16.733  -3.747  0.00  0.00     0.016 A 
ATOM     31  C   UNL d   1      29.281 -16.041  -4.349  0.00  0.00    -0.028 A 
ATOM     32  C   UNL d   1      28.222 -15.404  -3.492  0.00  0.00     0.051 C 
ENDBRANCH  24  25
ENDBRANCH  23  24
ENDBRANCH  20  23
ENDBRANCH  17  19
ENDBRANCH   1  17
TORSDOF 9
ENDMDL
MODEL 4
REMARK VINA RESULT:    -7.351      2.514      6.522
REMARK INTER + INTRA:         -13.174
REMARK INTER:                 -10.036
REMARK INTRA:                  -3.139
REMARK CONF_INDEPENDENT:        2.685
REMARK UNBOUND:                -3.139
REMARK  9 active torsions:
REMARK  status: ('A' for Active; 'I' for Inactive)
REMARK    1  A    between atoms: C_2  and  O_3 
REMARK    2  A    between atoms: O_3  and  C_4 
REMARK    3  A    between atoms: C_10  and  C_11 
REMARK       I    between atoms: C_11  and  N_13 
REMARK    4  A    between atoms: N_13  and  C_14 
REMARK    5  A    between atoms: C_14  and  N_16 
REMARK    6  A    between atoms: N_16  and  N_17 
REMARK       I    between atoms: N_17  and  C_18 
REMARK    7  A    between atoms: C_18  and  C_20 
REMARK    8  A    between atoms: C_20  and  O_21 
REMARK    9  A    between atoms: O_21  and  C_22 
ROOT
ATOM      1  C   UNL d   1      26.241 -12.573  -5.321  0.00  0.00     0.193 C 
ATOM      2  S   UNL d   1      25.899 -10.972  -5.737  0.00  0.00    -0.039 SA
ENDROOT
BRANCH   1   3
ATOM      3  N   UNL d   1      27.480 -13.222  -5.543  0.00  0.00    -0.298 N 
ATOM      4  C   UNL d   1      27.717 -14.620  -5.597  0.00  0.00     0.260 C 
ATOM      5  O   UNL d   1      26.827 -15.464  -5.456  0.00  0.00    -0.267 OA
ATOM      6  H   UNL d   1      28.308 -12.647  -5.654  0.00  0.00     0.171 HD
BRANCH   4   7
ATOM      7  C   UNL d   1      29.089 -15.192  -5.852  0.00  0.00     0.067 A 
ATOM      8  C   UNL d   1      29.334 -16.513  -5.392  0.00  0.00     0.039 A 
ATOM      9  C   UNL d   1      30.564 -17.143  -5.591  0.00  0.00     0.012 A 
ATOM     10  C   UNL d   1      31.581 -16.476  -6.258  0.00  0.00     0.022 A 
ATOM     11 BR   UNL d   1      30.864 -18.897  -4.949  0.00  0.00    -0.051 Br
ATOM     12  C   UNL d   1      31.362 -15.173  -6.716  0.00  0.00     0.039 A 
ATOM     13  C   UNL d   1      30.123 -14.529  -6.525  0.00  0.00     0.084 A 
BRANCH  13  14
ATOM     14  O   UNL d   1      29.917 -13.227  -6.892  0.00  0.00    -0.350 OA
BRANCH  14  15
ATOM     15  C   UNL d   1      30.132 -12.950  -8.278  0.00  0.00     0.171 C 
ATOM     16  C   UNL d   1      28.992 -12.056  -8.723  0.00  0.00     0.034 C 
ENDBRANCH  14  15
ENDBRANCH  13  14
ENDBRANCH   4   7
ENDBRANCH   1   3
BRANCH   1  17
ATOM     17  N   UNL d   1      25.243 -13.348  -4.699  0.00  0.00    -0.273 N 
ATOM     18  H   UNL d   1      24.263 -13.397  -4.972  0.00  0.00     0.189 HD
BRANCH  17  19
ATOM     19  N   UNL d   1      25.597 -14.157  -3.534  0.00  0.00    -0.266 N 
ATOM     20  C   UNL d   1      25.921 -13.571  -2.313  0.00  0.00     0.260 C 
ATOM     21  O   UNL d   1      25.919 -12.346  -2.183  0.00  0.00    -0.269 OA
ATOM     22  H   UNL d   1      25.584 -15.165  -3.687  0.00  0.00     0.190 HD
BRANCH  20  23
ATOM     23  C   UNL d   1      26.287 -14.561  -1.157  0.00  0.00     0.280 C 
BRANCH  23  24
ATOM     24  O   UNL d   1      26.073 -15.916  -1.579  0.00  0.00    -0.342 OA
BRANCH  24  25
ATOM     25  C   UNL d   1      24.974 -16.581  -1.094  0.00  0.00     0.075 A 
ATOM     26  C   UNL d   1      23.661 -16.188  -1.353  0.00  0.00     0.038 A 
ATOM     27  C   UNL d   1      22.582 -16.958  -0.891  0.00  0.00     0.009 A 
ATOM     28  C   UNL d   1      22.796 -18.141  -0.176  0.00  0.00    -0.061 A 
ATOM     29  C   UNL d   1      21.633 -18.952   0.325  0.00  0.00     0.048 C 
ATOM     30  C   UNL d   1      24.114 -18.552   0.061  0.00  0.00     0.016 A 
ATOM     31  C   UNL d   1      25.205 -17.784  -0.397  0.00  0.00    -0.028 A 
ATOM     32  C   UNL d   1      26.612 -18.248  -0.141  0.00  0.00     0.051 C 
ENDBRANCH  24  25
ENDBRANCH  23  24
ENDBRANCH  20  23
ENDBRANCH  17  19
ENDBRANCH   1  17
TORSDOF 9
ENDMDL
MODEL 5
REMARK VINA RESULT:    -7.343      5.215      7.871
REMARK INTER + INTRA:         -13.309
REMARK INTER:                 -10.027
REMARK INTRA:                  -3.282
REMARK CONF_INDEPENDENT:        2.685
REMARK UNBOUND:                -3.282
REMARK  9 active torsions:
REMARK  status: ('A' for Active; 'I' for Inactive)
REMARK    1  A    between atoms: C_2  and  O_3 
REMARK    2  A    between atoms: O_3  and  C_4 
REMARK    3  A    between atoms: C_10  and  C_11 
REMARK       I    between atoms: C_11  and  N_13 
REMARK    4  A    between atoms: N_13  and  C_14 
REMARK    5  A    between atoms: C_14  and  N_16 
REMARK    6  A    between atoms: N_16  and  N_17 
REMARK       I    between atoms: N_17  and  C_18 
REMARK    7  A    between atoms: C_18  and  C_20 
REMARK    8  A    between atoms: C_20  and  O_21 
REMARK    9  A    between atoms: O_21  and  C_22 
ROOT
ATOM      1  C   UNL d   1      27.422 -13.677   2.684  0.00  0.00     0.193 C 
ATOM      2  S   UNL d   1      26.296 -12.993   1.627  0.00  0.00    -0.039 SA
ENDROOT
BRANCH   1   3
ATOM      3  N   UNL d   1      27.689 -13.215   3.996  0.00  0.00    -0.298 N 
ATOM      4  C   UNL d   1      28.294 -13.941   5.054  0.00  0.00     0.260 C 
ATOM      5  O   UNL d   1      28.676 -15.110   4.941  0.00  0.00    -0.267 OA
ATOM      6  H   UNL d   1      27.405 -12.271   4.237  0.00  0.00     0.171 HD
BRANCH   4   7
ATOM      7  C   UNL d   1      28.537 -13.330   6.412  0.00  0.00     0.067 A 
ATOM      8  C   UNL d   1      29.126 -14.164   7.399  0.00  0.00     0.039 A 
ATOM      9  C   UNL d   1      29.408 -13.692   8.682  0.00  0.00     0.012 A 
ATOM     10  C   UNL d   1      29.115 -12.379   9.016  0.00  0.00     0.022 A 
ATOM     11 BR   UNL d   1      30.177 -14.834   9.981  0.00  0.00    -0.051 Br
ATOM     12  C   UNL d   1      28.530 -11.542   8.060  0.00  0.00     0.039 A 
ATOM     13  C   UNL d   1      28.246 -12.005   6.759  0.00  0.00     0.084 A 
BRANCH  13  14
ATOM     14  O   UNL d   1      27.599 -11.228   5.837  0.00  0.00    -0.350 OA
BRANCH  14  15
ATOM     15  C   UNL d   1      28.430 -10.285   5.154  0.00  0.00     0.171 C 
ATOM     16  C   UNL d   1      27.598  -9.716   4.021  0.00  0.00     0.034 C 
ENDBRANCH  14  15
ENDBRANCH  13  14
ENDBRANCH   4   7
ENDBRANCH   1   3
BRANCH   1  17
ATOM     17  N   UNL d   1      28.163 -14.799   2.265  0.00  0.00    -0.273 N 
ATOM     18  H   UNL d   1      28.903 -15.261   2.791  0.00  0.00     0.189 HD
BRANCH  17  19
ATOM     19  N   UNL d   1      27.896 -15.373   0.948  0.00  0.00    -0.266 N 
ATOM     20  C   UNL d   1      28.910 -15.948   0.186  0.00  0.00     0.260 C 
ATOM     21  O   UNL d   1      30.067 -15.988   0.605  0.00  0.00    -0.269 OA
ATOM     22  H   UNL d   1      26.924 -15.321   0.642  0.00  0.00     0.190 HD
BRANCH  20  23
ATOM     23  C   UNL d   1      28.477 -16.516  -1.207  0.00  0.00     0.280 C 
BRANCH  23  24
ATOM     24  O   UNL d   1      27.202 -15.977  -1.587  0.00  0.00    -0.342 OA
BRANCH  24  25
ATOM     25  C   UNL d   1      26.072 -16.667  -1.222  0.00  0.00     0.075 A 
ATOM     26  C   UNL d   1      26.083 -17.756  -0.351  0.00  0.00     0.038 A 
ATOM     27  C   UNL d   1      24.882 -18.367   0.042  0.00  0.00     0.009 A 
ATOM     28  C   UNL d   1      23.648 -17.891  -0.415  0.00  0.00    -0.061 A 
ATOM     29  C   UNL d   1      22.369 -18.561   0.002  0.00  0.00     0.048 C 
ATOM     30  C   UNL d   1      23.633 -16.780  -1.267  0.00  0.00     0.016 A 
ATOM     31  C   UNL d   1      24.835 -16.160  -1.670  0.00  0.00    -0.028 A 
ATOM     32  C   UNL d   1      24.796 -14.962  -2.578  0.00  0.00     0.051 C 
ENDBRANCH  24  25
ENDBRANCH  23  24
ENDBRANCH  20  23
ENDBRANCH  17  19
ENDBRANCH   1  17
TORSDOF 9
ENDMDL
MODEL 6
REMARK VINA RESULT:    -7.138      3.787      7.163
REMARK INTER + INTRA:         -13.103
REMARK INTER:                  -9.823
REMARK INTRA:                  -3.280
REMARK CONF_INDEPENDENT:        2.685
REMARK UNBOUND:                -3.280
REMARK  9 active torsions:
REMARK  status: ('A' for Active; 'I' for Inactive)
REMARK    1  A    between atoms: C_2  and  O_3 
REMARK    2  A    between atoms: O_3  and  C_4 
REMARK    3  A    between atoms: C_10  and  C_11 
REMARK       I    between atoms: C_11  and  N_13 
REMARK    4  A    between atoms: N_13  and  C_14 
REMARK    5  A    between atoms: C_14  and  N_16 
REMARK    6  A    between atoms: N_16  and  N_17 
REMARK       I    between atoms: N_17  and  C_18 
REMARK    7  A    between atoms: C_18  and  C_20 
REMARK    8  A    between atoms: C_20  and  O_21 
REMARK    9  A    between atoms: O_21  and  C_22 
ROOT
ATOM      1  C   UNL d   1      28.935 -17.083  -0.405  0.00  0.00     0.193 C 
ATOM      2  S   UNL d   1      29.880 -18.195  -1.256  0.00  0.00    -0.039 SA
ENDROOT
BRANCH   1   3
ATOM      3  N   UNL d   1      27.552 -16.862  -0.617  0.00  0.00    -0.298 N 
ATOM      4  C   UNL d   1      26.481 -17.711  -0.237  0.00  0.00     0.260 C 
ATOM      5  O   UNL d   1      26.643 -18.783   0.354  0.00  0.00    -0.267 OA
ATOM      6  H   UNL d   1      27.273 -16.024  -1.115  0.00  0.00     0.171 HD
BRANCH   4   7
ATOM      7  C   UNL d   1      25.040 -17.358  -0.511  0.00  0.00     0.067 A 
ATOM      8  C   UNL d   1      24.056 -18.301  -0.109  0.00  0.00     0.039 A 
ATOM      9  C   UNL d   1      22.694 -18.064  -0.301  0.00  0.00     0.012 A 
ATOM     10  C   UNL d   1      22.274 -16.883  -0.893  0.00  0.00     0.022 A 
ATOM     11 BR   UNL d   1      21.409 -19.349   0.228  0.00  0.00    -0.051 Br
ATOM     12  C   UNL d   1      23.227 -15.943  -1.300  0.00  0.00     0.039 A 
ATOM     13  C   UNL d   1      24.605 -16.168  -1.106  0.00  0.00     0.084 A 
BRANCH  13  14
ATOM     14  O   UNL d   1      25.554 -15.299  -1.572  0.00  0.00    -0.350 OA
BRANCH  14  15
ATOM     15  C   UNL d   1      25.694 -15.265  -2.995  0.00  0.00     0.171 C 
ATOM     16  C   UNL d   1      25.138 -13.931  -3.453  0.00  0.00     0.034 C 
ENDBRANCH  14  15
ENDBRANCH  13  14
ENDBRANCH   4   7
ENDBRANCH   1   3
BRANCH   1  17
ATOM     17  N   UNL d   1      29.533 -16.306   0.605  0.00  0.00    -0.273 N 
ATOM     18  H   UNL d   1      30.481 -16.412   0.963  0.00  0.00     0.189 HD
BRANCH  17  19
ATOM     19  N   UNL d   1      28.750 -15.251   1.246  0.00  0.00    -0.266 N 
ATOM     20  C   UNL d   1      28.162 -14.229   0.505  0.00  0.00     0.260 C 
ATOM     21  O   UNL d   1      28.287 -14.188  -0.719  0.00  0.00    -0.269 OA
ATOM     22  H   UNL d   1      28.671 -15.326   2.260  0.00  0.00     0.190 HD
BRANCH  20  23
ATOM     23  C   UNL d   1      27.360 -13.165   1.327  0.00  0.00     0.280 C 
BRANCH  23  24
ATOM     24  O   UNL d   1      27.079 -13.664   2.643  0.00  0.00    -0.342 OA
BRANCH  24  25
ATOM     25  C   UNL d   1      27.556 -12.958   3.720  0.00  0.00     0.075 A 
ATOM     26  C   UNL d   1      27.456 -11.571   3.836  0.00  0.00     0.038 A 
ATOM     27  C   UNL d   1      27.894 -10.920   5.000  0.00  0.00     0.009 A 
ATOM     28  C   UNL d   1      28.425 -11.643   6.074  0.00  0.00    -0.061 A 
ATOM     29  C   UNL d   1      28.902 -10.934   7.310  0.00  0.00     0.048 C 
ATOM     30  C   UNL d   1      28.500 -13.037   5.970  0.00  0.00     0.016 A 
ATOM     31  C   UNL d   1      28.065 -13.701   4.804  0.00  0.00    -0.028 A 
ATOM     32  C   UNL d   1      28.145 -15.200   4.718  0.00  0.00     0.051 C 
ENDBRANCH  24  25
ENDBRANCH  23  24
ENDBRANCH  20  23
ENDBRANCH  17  19
ENDBRANCH   1  17
TORSDOF 9
ENDMDL
MODEL 7
REMARK VINA RESULT:    -7.080      3.168      6.725
REMARK INTER + INTRA:         -12.930
REMARK INTER:                  -9.765
REMARK INTRA:                  -3.165
REMARK CONF_INDEPENDENT:        2.685
REMARK UNBOUND:                -3.165
REMARK  9 active torsions:
REMARK  status: ('A' for Active; 'I' for Inactive)
REMARK    1  A    between atoms: C_2  and  O_3 
REMARK    2  A    between atoms: O_3  and  C_4 
REMARK    3  A    between atoms: C_10  and  C_11 
REMARK       I    between atoms: C_11  and  N_13 
REMARK    4  A    between atoms: N_13  and  C_14 
REMARK    5  A    between atoms: C_14  and  N_16 
REMARK    6  A    between atoms: N_16  and  N_17 
REMARK       I    between atoms: N_17  and  C_18 
REMARK    7  A    between atoms: C_18  and  C_20 
REMARK    8  A    between atoms: C_20  and  O_21 
REMARK    9  A    between atoms: O_21  and  C_22 
ROOT
ATOM      1  C   UNL d   1      26.699 -12.884  -1.884  0.00  0.00     0.193 C 
ATOM      2  S   UNL d   1      26.343 -12.381  -3.457  0.00  0.00    -0.039 SA
ENDROOT
BRANCH   1   3
ATOM      3  N   UNL d   1      26.287 -14.112  -1.312  0.00  0.00    -0.298 N 
ATOM      4  C   UNL d   1      25.284 -14.989  -1.798  0.00  0.00     0.260 C 
ATOM      5  O   UNL d   1      24.632 -14.771  -2.823  0.00  0.00    -0.267 OA
ATOM      6  H   UNL d   1      26.727 -14.407  -0.447  0.00  0.00     0.171 HD
BRANCH   4   7
ATOM      7  C   UNL d   1      24.942 -16.282  -1.100  0.00  0.00     0.067 A 
ATOM      8  C   UNL d   1      23.619 -16.773  -1.264  0.00  0.00     0.039 A 
ATOM      9  C   UNL d   1      23.204 -17.969  -0.675  0.00  0.00     0.012 A 
ATOM     10  C   UNL d   1      24.095 -18.710   0.088  0.00  0.00     0.022 A 
ATOM     11 BR   UNL d   1      21.429 -18.588  -0.896  0.00  0.00    -0.051 Br
ATOM     12  C   UNL d   1      25.401 -18.241   0.265  0.00  0.00     0.039 A 
ATOM     13  C   UNL d   1      25.833 -17.038  -0.330  0.00  0.00     0.084 A 
BRANCH  13  14
ATOM     14  O   UNL d   1      27.079 -16.522  -0.100  0.00  0.00    -0.350 OA
BRANCH  14  15
ATOM     15  C   UNL d   1      28.156 -17.447  -0.277  0.00  0.00     0.171 C 
ATOM     16  C   UNL d   1      28.845 -17.067  -1.572  0.00  0.00     0.034 C 
ENDBRANCH  14  15
ENDBRANCH  13  14
ENDBRANCH   4   7
ENDBRANCH   1   3
BRANCH   1  17
ATOM     17  N   UNL d   1      27.469 -12.046  -1.054  0.00  0.00    -0.273 N 
ATOM     18  H   UNL d   1      27.877 -11.150  -1.317  0.00  0.00     0.189 HD
BRANCH  17  19
ATOM     19  N   UNL d   1      27.755 -12.473   0.314  0.00  0.00    -0.266 N 
ATOM     20  C   UNL d   1      28.487 -13.627   0.578  0.00  0.00     0.260 C 
ATOM     21  O   UNL d   1      28.916 -14.325  -0.342  0.00  0.00    -0.269 OA
ATOM     22  H   UNL d   1      27.383 -11.864   1.043  0.00  0.00     0.190 HD
BRANCH  20  23
ATOM     23  C   UNL d   1      28.708 -13.964   2.091  0.00  0.00     0.280 C 
BRANCH  23  24
ATOM     24  O   UNL d   1      27.942 -13.072   2.914  0.00  0.00    -0.342 OA
BRANCH  24  25
ATOM     25  C   UNL d   1      28.092 -13.157   4.276  0.00  0.00     0.075 A 
ATOM     26  C   UNL d   1      28.476 -14.323   4.937  0.00  0.00     0.038 A 
ATOM     27  C   UNL d   1      28.688 -14.320   6.325  0.00  0.00     0.009 A 
ATOM     28  C   UNL d   1      28.536 -13.148   7.074  0.00  0.00    -0.061 A 
ATOM     29  C   UNL d   1      28.753 -13.158   8.561  0.00  0.00     0.048 C 
ATOM     30  C   UNL d   1      28.178 -11.969   6.408  0.00  0.00     0.016 A 
ATOM     31  C   UNL d   1      27.961 -11.963   5.014  0.00  0.00    -0.028 A 
ATOM     32  C   UNL d   1      27.588 -10.684   4.317  0.00  0.00     0.051 C 
ENDBRANCH  24  25
ENDBRANCH  23  24
ENDBRANCH  20  23
ENDBRANCH  17  19
ENDBRANCH   1  17
TORSDOF 9
ENDMDL
MODEL 8
REMARK VINA RESULT:    -7.020      2.594      3.364
REMARK INTER + INTRA:         -12.933
REMARK INTER:                  -9.704
REMARK INTRA:                  -3.229
REMARK CONF_INDEPENDENT:        2.685
REMARK UNBOUND:                -3.229
REMARK  9 active torsions:
REMARK  status: ('A' for Active; 'I' for Inactive)
REMARK    1  A    between atoms: C_2  and  O_3 
REMARK    2  A    between atoms: O_3  and  C_4 
REMARK    3  A    between atoms: C_10  and  C_11 
REMARK       I    between atoms: C_11  and  N_13 
REMARK    4  A    between atoms: N_13  and  C_14 
REMARK    5  A    between atoms: C_14  and  N_16 
REMARK    6  A    between atoms: N_16  and  N_17 
REMARK       I    between atoms: N_17  and  C_18 
REMARK    7  A    between atoms: C_18  and  C_20 
REMARK    8  A    between atoms: C_20  and  O_21 
REMARK    9  A    between atoms: O_21  and  C_22 
ROOT
ATOM      1  C   UNL d   1      26.843 -13.967  -4.676  0.00  0.00     0.193 C 
ATOM      2  S   UNL d   1      25.958 -12.535  -4.819  0.00  0.00    -0.039 SA
ENDROOT
BRANCH   1   3
ATOM      3  N   UNL d   1      26.651 -14.943  -3.668  0.00  0.00    -0.298 N 
ATOM      4  C   UNL d   1      25.455 -15.211  -2.953  0.00  0.00     0.260 C 
ATOM      5  O   UNL d   1      24.400 -14.599  -3.143  0.00  0.00    -0.267 OA
ATOM      6  H   UNL d   1      27.446 -15.509  -3.393  0.00  0.00     0.171 HD
BRANCH   4   7
ATOM      7  C   UNL d   1      25.373 -16.292  -1.903  0.00  0.00     0.067 A 
ATOM      8  C   UNL d   1      24.090 -16.845  -1.645  0.00  0.00     0.039 A 
ATOM      9  C   UNL d   1      23.906 -17.861  -0.705  0.00  0.00     0.012 A 
ATOM     10  C   UNL d   1      24.993 -18.356  -0.002  0.00  0.00     0.022 A 
ATOM     11 BR   UNL d   1      22.181 -18.564  -0.371  0.00  0.00    -0.051 Br
ATOM     12  C   UNL d   1      26.265 -17.823  -0.238  0.00  0.00     0.039 A 
ATOM     13  C   UNL d   1      26.463 -16.800  -1.188  0.00  0.00     0.084 A 
BRANCH  13  14
ATOM     14  O   UNL d   1      27.684 -16.209  -1.373  0.00  0.00    -0.350 OA
BRANCH  14  15
ATOM     15  C   UNL d   1      28.231 -15.582  -0.210  0.00  0.00     0.171 C 
ATOM     16  C   UNL d   1      27.655 -14.181  -0.161  0.00  0.00     0.034 C 
ENDBRANCH  14  15
ENDBRANCH  13  14
ENDBRANCH   4   7
ENDBRANCH   1   3
BRANCH   1  17
ATOM     17  N   UNL d   1      27.851 -14.248  -5.619  0.00  0.00    -0.273 N 
ATOM     18  H   UNL d   1      28.087 -13.682  -6.433  0.00  0.00     0.189 HD
BRANCH  17  19
ATOM     19  N   UNL d   1      28.643 -15.466  -5.468  0.00  0.00    -0.266 N 
ATOM     20  C   UNL d   1      29.445 -15.679  -4.350  0.00  0.00     0.260 C 
ATOM     21  O   UNL d   1      29.508 -14.840  -3.452  0.00  0.00    -0.269 OA
ATOM     22  H   UNL d   1      28.559 -16.134  -6.235  0.00  0.00     0.190 HD
BRANCH  20  23
ATOM     23  C   UNL d   1      30.243 -17.026  -4.330  0.00  0.00     0.280 C 
BRANCH  23  24
ATOM     24  O   UNL d   1      29.996 -17.767  -5.533  0.00  0.00    -0.342 OA
BRANCH  24  25
ATOM     25  C   UNL d   1      30.583 -19.002  -5.667  0.00  0.00     0.075 A 
ATOM     26  C   UNL d   1      30.548 -19.982  -4.676  0.00  0.00     0.038 A 
ATOM     27  C   UNL d   1      31.100 -21.251  -4.908  0.00  0.00     0.009 A 
ATOM     28  C   UNL d   1      31.683 -21.568  -6.140  0.00  0.00    -0.061 A 
ATOM     29  C   UNL d   1      32.283 -22.927  -6.373  0.00  0.00     0.048 C 
ATOM     30  C   UNL d   1      31.693 -20.595  -7.146  0.00  0.00     0.016 A 
ATOM     31  C   UNL d   1      31.142 -19.316  -6.922  0.00  0.00    -0.028 A 
ATOM     32  C   UNL d   1      31.155 -18.289  -8.020  0.00  0.00     0.051 C 
ENDBRANCH  24  25
ENDBRANCH  23  24
ENDBRANCH  20  23
ENDBRANCH  17  19
ENDBRANCH   1  17
TORSDOF 9
ENDMDL
MODEL 9
REMARK VINA RESULT:    -6.817      2.327      4.969
REMARK INTER + INTRA:         -12.931
REMARK INTER:                  -9.501
REMARK INTRA:                  -3.429
REMARK CONF_INDEPENDENT:        2.685
REMARK UNBOUND:                -3.429
REMARK  9 active torsions:
REMARK  status: ('A' for Active; 'I' for Inactive)
REMARK    1  A    between atoms: C_2  and  O_3 
REMARK    2  A    between atoms: O_3  and  C_4 
REMARK    3  A    between atoms: C_10  and  C_11 
REMARK       I    between atoms: C_11  and  N_13 
REMARK    4  A    between atoms: N_13  and  C_14 
REMARK    5  A    between atoms: C_14  and  N_16 
REMARK    6  A    between atoms: N_16  and  N_17 
REMARK       I    between atoms: N_17  and  C_18 
REMARK    7  A    between atoms: C_18  and  C_20 
REMARK    8  A    between atoms: C_20  and  O_21 
REMARK    9  A    between atoms: O_21  and  C_22 
ROOT
ATOM      1  C   UNL d   1      27.229 -14.420  -4.554  0.00  0.00     0.193 C 
ATOM      2  S   UNL d   1      28.054 -14.785  -5.982  0.00  0.00    -0.039 SA
ENDROOT
BRANCH   1   3
ATOM      3  N   UNL d   1      26.929 -15.350  -3.529  0.00  0.00    -0.298 N 
ATOM      4  C   UNL d   1      25.731 -15.436  -2.774  0.00  0.00     0.260 C 
ATOM      5  O   UNL d   1      24.771 -14.676  -2.937  0.00  0.00    -0.267 OA
ATOM      6  H   UNL d   1      27.641 -16.025  -3.273  0.00  0.00     0.171 HD
BRANCH   4   7
ATOM      7  C   UNL d   1      25.526 -16.485  -1.710  0.00  0.00     0.067 A 
ATOM      8  C   UNL d   1      24.203 -16.967  -1.525  0.00  0.00     0.039 A 
ATOM      9  C   UNL d   1      23.907 -17.950  -0.578  0.00  0.00     0.012 A 
ATOM     10  C   UNL d   1      24.920 -18.482   0.205  0.00  0.00     0.022 A 
ATOM     11 BR   UNL d   1      22.131 -18.557  -0.343  0.00  0.00    -0.051 Br
ATOM     12  C   UNL d   1      26.230 -18.018   0.042  0.00  0.00     0.039 A 
ATOM     13  C   UNL d   1      26.541 -17.030  -0.914  0.00  0.00     0.084 A 
BRANCH  13  14
ATOM     14  O   UNL d   1      27.800 -16.505  -1.031  0.00  0.00    -0.350 OA
BRANCH  14  15
ATOM     15  C   UNL d   1      28.785 -17.108  -0.188  0.00  0.00     0.171 C 
ATOM     16  C   UNL d   1      29.963 -17.454  -1.078  0.00  0.00     0.034 C 
ENDBRANCH  14  15
ENDBRANCH  13  14
ENDBRANCH   4   7
ENDBRANCH   1   3
BRANCH   1  17
ATOM     17  N   UNL d   1      26.798 -13.098  -4.330  0.00  0.00    -0.273 N 
ATOM     18  H   UNL d   1      26.484 -12.439  -5.041  0.00  0.00     0.189 HD
BRANCH  17  19
ATOM     19  N   UNL d   1      26.809 -12.570  -2.967  0.00  0.00    -0.266 N 
ATOM     20  C   UNL d   1      27.934 -11.944  -2.438  0.00  0.00     0.260 C 
ATOM     21  O   UNL d   1      28.958 -11.817  -3.110  0.00  0.00    -0.269 OA
ATOM     22  H   UNL d   1      25.939 -12.695  -2.448  0.00  0.00     0.190 HD
BRANCH  20  23
ATOM     23  C   UNL d   1      27.802 -11.436  -0.963  0.00  0.00     0.280 C 
BRANCH  23  24
ATOM     24  O   UNL d   1      26.749 -12.141  -0.289  0.00  0.00    -0.342 OA
BRANCH  24  25
ATOM     25  C   UNL d   1      27.063 -12.844   0.848  0.00  0.00     0.075 A 
ATOM     26  C   UNL d   1      27.637 -14.115   0.833  0.00  0.00     0.038 A 
ATOM     27  C   UNL d   1      28.006 -14.745   2.031  0.00  0.00     0.009 A 
ATOM     28  C   UNL d   1      27.822 -14.111   3.265  0.00  0.00    -0.061 A 
ATOM     29  C   UNL d   1      28.209 -14.801   4.543  0.00  0.00     0.048 C 
ATOM     30  C   UNL d   1      27.273 -12.823   3.281  0.00  0.00     0.016 A 
ATOM     31  C   UNL d   1      26.897 -12.182   2.081  0.00  0.00    -0.028 A 
ATOM     32  C   UNL d   1      26.318 -10.795   2.120  0.00  0.00     0.051 C 
ENDBRANCH  24  25
ENDBRANCH  23  24
ENDBRANCH  20  23
ENDBRANCH  17  19
ENDBRANCH   1  17
TORSDOF 9
ENDMDL
