MODEL 1
REMARK VINA RESULT:    -9.378      0.000      0.000
REMARK INTER + INTRA:         -12.685
REMARK INTER:                 -11.466
REMARK INTRA:                  -1.219
REMARK CONF_INDEPENDENT:        2.088
REMARK UNBOUND:                -1.219
REMARK  7 active torsions:
REMARK  status: ('A' for Active; 'I' for Inactive)
REMARK    1  A    between atoms: O_2  and  C_3 
REMARK    2  A    between atoms: C_6  and  N_7 
REMARK       I    between atoms: N_7  and  C_8 
REMARK       I    between atoms: C_8  and  N_19 
REMARK       I    between atoms: N_9  and  C_10 
REMARK    3  A    between atoms: C_10  and  C_12 
REMARK    4  A    between atoms: N_19  and  C_20 
REMARK    5  A    between atoms: C_20  and  C_21 
REMARK    6  A    between atoms: C_21  and  C_22 
REMARK    7  A    between atoms: C_32  and  O_33 
ROOT
ATOM      1  N   UNL d   1      27.316 -17.239   0.626  0.00  0.00    -0.190 N 
ATOM      2  C   UNL d   1      26.153 -17.280  -0.181  0.00  0.00     0.704 C 
ATOM      3  N   UNL d   1      25.767 -16.482  -1.137  0.00  0.00    -0.023 NA
ATOM      4  C   UNL d   1      26.150 -15.166  -1.039  0.00  0.00     0.294 C 
ATOM      5  O   UNL d   1      26.152 -14.568   0.013  0.00  0.00    -0.265 OA
ATOM      6  N   UNL d   1      25.248 -18.333   0.052  0.00  0.00    -0.224 N 
ATOM      7  H   UNL d   1      27.292 -17.783   1.477  0.00  0.00     0.184 HD
ATOM      8  H   UNL d   1      25.286 -18.854   0.920  0.00  0.00     0.177 HD
ENDROOT
BRANCH   1   9
ATOM      9  C   UNL d   1      28.401 -16.283   0.607  0.00  0.00     0.052 C 
ATOM     10  C   UNL d   1      29.595 -16.439  -0.078  0.00  0.00     0.033 C 
ATOM     11  C   UNL d   1      30.722 -15.582   0.196  0.00  0.00     0.042 C 
ATOM     12  C   UNL d   1      30.744 -14.622   1.232  0.00  0.00     0.101 C 
ATOM     13  C   UNL d   1      29.557 -14.487   1.900  0.00  0.00     0.103 C 
ATOM     14  C   UNL d   1      28.397 -15.104   1.341  0.00  0.00     0.069 C 
BRANCH  12  15
ATOM     15  O   UNL d   1      31.770 -13.713   1.203  0.00  0.00    -0.353 OA
ATOM     16  C   UNL d   1      32.400 -13.276   0.004  0.00  0.00     0.210 C 
ENDBRANCH  12  15
BRANCH  13  17
ATOM     17  O   UNL d   1      29.297 -13.956   3.123  0.00  0.00    -0.353 OA
ATOM     18  C   UNL d   1      30.126 -14.127   4.232  0.00  0.00     0.210 C 
ENDBRANCH  13  17
ENDBRANCH   1   9
BRANCH   6  19
ATOM     19  C   UNL d   1      23.939 -18.334  -0.668  0.00  0.00     0.142 C 
BRANCH  19  20
ATOM     20  C   UNL d   1      22.714 -18.232   0.235  0.00  0.00     0.057 C 
BRANCH  20  21
ATOM     21  C   UNL d   1      21.412 -18.838  -0.245  0.00  0.00    -0.048 A 
ATOM     22  C   UNL d   1      20.546 -19.337   0.639  0.00  0.00    -0.006 A 
ATOM     23  C   UNL d   1      20.624 -19.417   2.053  0.00  0.00     0.014 A 
ATOM     24  C   UNL d   1      19.423 -19.904  -0.117  0.00  0.00     0.038 A 
ATOM     25  C   UNL d   1      19.709 -20.146   2.698  0.00  0.00     0.001 A 
ATOM     26  C   UNL d   1      18.567 -20.710   1.998  0.00  0.00     0.002 A 
ATOM     27  C   UNL d   1      18.380 -20.613   0.663  0.00  0.00     0.030 A 
ATOM     28  N   UNL d   1      19.557 -19.692  -1.371  0.00  0.00    -0.385 N 
ATOM     29  C   UNL d   1      20.885 -19.038  -1.645  0.00  0.00     0.155 A 
ATOM     30  H   UNL d   1      18.837 -19.947  -2.049  0.00  0.00     0.160 HD
ENDBRANCH  20  21
ENDBRANCH  19  20
ENDBRANCH   6  19
BRANCH   4  31
ATOM     31  C   UNL d   1      26.164 -14.365  -2.319  0.00  0.00     0.040 C 
ATOM     32  C   UNL d   1      25.240 -13.391  -2.769  0.00  0.00     0.017 C 
ATOM     33  C   UNL d   1      25.082 -13.164  -4.145  0.00  0.00     0.001 C 
ATOM     34  C   UNL d   1      25.942 -13.779  -5.042  0.00  0.00     0.001 C 
ATOM     35  C   UNL d   1      26.932 -14.646  -4.576  0.00  0.00     0.007 C 
ATOM     36  C   UNL d   1      27.042 -14.951  -3.223  0.00  0.00    -0.046 C 
ATOM     37  C   UNL d   1      28.055 -15.917  -2.684  0.00  0.00     0.049 C 
ENDBRANCH   4  31
TORSDOF 7
ENDMDL
MODEL 2
REMARK VINA RESULT:    -9.362      3.621      7.810
REMARK INTER + INTRA:         -12.781
REMARK INTER:                 -11.450
REMARK INTRA:                  -1.331
REMARK CONF_INDEPENDENT:        2.088
REMARK UNBOUND:                -1.331
REMARK  7 active torsions:
REMARK  status: ('A' for Active; 'I' for Inactive)
REMARK    1  A    between atoms: O_2  and  C_3 
REMARK    2  A    between atoms: C_6  and  N_7 
REMARK       I    between atoms: N_7  and  C_8 
REMARK       I    between atoms: C_8  and  N_19 
REMARK       I    between atoms: N_9  and  C_10 
REMARK    3  A    between atoms: C_10  and  C_12 
REMARK    4  A    between atoms: N_19  and  C_20 
REMARK    5  A    between atoms: C_20  and  C_21 
REMARK    6  A    between atoms: C_21  and  C_22 
REMARK    7  A    between atoms: C_32  and  O_33 
ROOT
ATOM      1  N   UNL d   1      28.879 -14.360  -1.251  0.00  0.00    -0.190 N 
ATOM      2  C   UNL d   1      27.785 -14.084  -0.396  0.00  0.00     0.704 C 
ATOM      3  N   UNL d   1      26.646 -14.704  -0.263  0.00  0.00    -0.023 NA
ATOM      4  C   UNL d   1      26.143 -15.323  -1.383  0.00  0.00     0.294 C 
ATOM      5  O   UNL d   1      26.208 -14.825  -2.483  0.00  0.00    -0.265 OA
ATOM      6  N   UNL d   1      27.908 -12.976   0.465  0.00  0.00    -0.224 N 
ATOM      7  H   UNL d   1      29.542 -13.611  -1.390  0.00  0.00     0.184 HD
ATOM      8  H   UNL d   1      28.606 -12.265   0.282  0.00  0.00     0.177 HD
ENDROOT
BRANCH   1   9
ATOM      9  C   UNL d   1      29.025 -15.419  -2.226  0.00  0.00     0.052 C 
ATOM     10  C   UNL d   1      29.712 -16.605  -2.024  0.00  0.00     0.033 C 
ATOM     11  C   UNL d   1      30.051 -17.461  -3.134  0.00  0.00     0.042 C 
ATOM     12  C   UNL d   1      29.826 -17.119  -4.486  0.00  0.00     0.101 C 
ATOM     13  C   UNL d   1      29.151 -15.942  -4.664  0.00  0.00     0.103 C 
ATOM     14  C   UNL d   1      28.538 -15.340  -3.524  0.00  0.00     0.069 C 
BRANCH  12  15
ATOM     15  O   UNL d   1      29.957 -18.129  -5.404  0.00  0.00    -0.353 OA
ATOM     16  C   UNL d   1      30.733 -18.018  -6.591  0.00  0.00     0.210 C 
ENDBRANCH  12  15
BRANCH  13  17
ATOM     17  O   UNL d   1      29.065 -15.139  -5.757  0.00  0.00    -0.353 OA
ATOM     18  C   UNL d   1      30.154 -14.820  -6.569  0.00  0.00     0.210 C 
ENDBRANCH  13  17
ENDBRANCH   1   9
BRANCH   6  19
ATOM     19  C   UNL d   1      26.727 -12.556   1.276  0.00  0.00     0.142 C 
BRANCH  19  20
ATOM     20  C   UNL d   1      27.035 -12.245   2.737  0.00  0.00     0.057 C 
BRANCH  20  21
ATOM     21  C   UNL d   1      27.686 -13.320   3.581  0.00  0.00    -0.048 A 
ATOM     22  C   UNL d   1      27.976 -13.076   4.861  0.00  0.00    -0.006 A 
ATOM     23  C   UNL d   1      27.777 -11.905   5.638  0.00  0.00     0.014 A 
ATOM     24  C   UNL d   1      28.649 -14.266   5.395  0.00  0.00     0.038 A 
ATOM     25  C   UNL d   1      28.337 -11.846   6.848  0.00  0.00     0.001 A 
ATOM     26  C   UNL d   1      28.996 -13.004   7.430  0.00  0.00     0.002 A 
ATOM     27  C   UNL d   1      29.159 -14.180   6.784  0.00  0.00     0.030 A 
ATOM     28  N   UNL d   1      28.693 -15.201   4.523  0.00  0.00    -0.385 N 
ATOM     29  C   UNL d   1      28.144 -14.709   3.211  0.00  0.00     0.155 A 
ATOM     30  H   UNL d   1      29.057 -16.131   4.738  0.00  0.00     0.160 HD
ENDBRANCH  20  21
ENDBRANCH  19  20
ENDBRANCH   6  19
BRANCH   4  31
ATOM     31  C   UNL d   1      25.142 -16.430  -1.155  0.00  0.00     0.040 C 
ATOM     32  C   UNL d   1      23.731 -16.390  -1.270  0.00  0.00     0.017 C 
ATOM     33  C   UNL d   1      22.946 -17.280  -0.519  0.00  0.00     0.001 C 
ATOM     34  C   UNL d   1      23.562 -18.290   0.204  0.00  0.00     0.001 C 
ATOM     35  C   UNL d   1      24.953 -18.395   0.211  0.00  0.00     0.007 C 
ATOM     36  C   UNL d   1      25.748 -17.467  -0.454  0.00  0.00    -0.046 C 
ATOM     37  C   UNL d   1      27.247 -17.508  -0.430  0.00  0.00     0.049 C 
ENDBRANCH   4  31
TORSDOF 7
ENDMDL
MODEL 3
REMARK VINA RESULT:    -9.211      3.505      6.738
REMARK INTER + INTRA:         -13.704
REMARK INTER:                 -11.299
REMARK INTRA:                  -2.405
REMARK CONF_INDEPENDENT:        2.088
REMARK UNBOUND:                -2.405
REMARK  7 active torsions:
REMARK  status: ('A' for Active; 'I' for Inactive)
REMARK    1  A    between atoms: O_2  and  C_3 
REMARK    2  A    between atoms: C_6  and  N_7 
REMARK       I    between atoms: N_7  and  C_8 
REMARK       I    between atoms: C_8  and  N_19 
REMARK       I    between atoms: N_9  and  C_10 
REMARK    3  A    between atoms: C_10  and  C_12 
REMARK    4  A    between atoms: N_19  and  C_20 
REMARK    5  A    between atoms: C_20  and  C_21 
REMARK    6  A    between atoms: C_21  and  C_22 
REMARK    7  A    between atoms: C_32  and  O_33 
ROOT
ATOM      1  N   UNL d   1      30.116 -14.813   3.949  0.00  0.00    -0.190 N 
ATOM      2  C   UNL d   1      29.728 -14.394   2.653  0.00  0.00     0.704 C 
ATOM      3  N   UNL d   1      29.039 -13.353   2.278  0.00  0.00    -0.023 NA
ATOM      4  C   UNL d   1      28.092 -12.887   3.159  0.00  0.00     0.294 C 
ATOM      5  O   UNL d   1      27.388 -13.628   3.806  0.00  0.00    -0.265 OA
ATOM      6  N   UNL d   1      30.132 -15.201   1.572  0.00  0.00    -0.224 N 
ATOM      7  H   UNL d   1      30.407 -15.775   4.043  0.00  0.00     0.184 HD
ATOM      8  H   UNL d   1      30.431 -16.156   1.733  0.00  0.00     0.177 HD
ENDROOT
BRANCH   1   9
ATOM      9  C   UNL d   1      29.843 -14.187   5.225  0.00  0.00     0.052 C 
ATOM     10  C   UNL d   1      28.951 -14.659   6.174  0.00  0.00     0.033 C 
ATOM     11  C   UNL d   1      28.530 -13.824   7.272  0.00  0.00     0.042 C 
ATOM     12  C   UNL d   1      28.885 -12.463   7.404  0.00  0.00     0.101 C 
ATOM     13  C   UNL d   1      29.762 -12.015   6.453  0.00  0.00     0.103 C 
ATOM     14  C   UNL d   1      30.407 -12.983   5.625  0.00  0.00     0.069 C 
BRANCH  12  15
ATOM     15  O   UNL d   1      28.632 -11.879   8.618  0.00  0.00    -0.353 OA
ATOM     16  C   UNL d   1      28.537 -12.607   9.837  0.00  0.00     0.210 C 
ENDBRANCH  12  15
BRANCH  13  17
ATOM     17  O   UNL d   1      30.046 -10.749   6.051  0.00  0.00    -0.353 OA
ATOM     18  C   UNL d   1      29.507  -9.609   6.650  0.00  0.00     0.210 C 
ENDBRANCH  13  17
ENDBRANCH   1   9
BRANCH   6  19
ATOM     19  C   UNL d   1      29.622 -14.885   0.204  0.00  0.00     0.142 C 
BRANCH  19  20
ATOM     20  C   UNL d   1      28.795 -15.993  -0.440  0.00  0.00     0.057 C 
BRANCH  20  21
ATOM     21  C   UNL d   1      27.425 -15.646  -0.983  0.00  0.00    -0.048 A 
ATOM     22  C   UNL d   1      26.367 -16.383  -0.638  0.00  0.00    -0.006 A 
ATOM     23  C   UNL d   1      26.280 -17.522   0.204  0.00  0.00     0.014 A 
ATOM     24  C   UNL d   1      25.206 -15.852  -1.361  0.00  0.00     0.038 A 
ATOM     25  C   UNL d   1      25.131 -18.202   0.232  0.00  0.00     0.001 A 
ATOM     26  C   UNL d   1      23.947 -17.707  -0.450  0.00  0.00     0.002 A 
ATOM     27  C   UNL d   1      23.928 -16.589  -1.210  0.00  0.00     0.030 A 
ATOM     28  N   UNL d   1      25.519 -14.812  -2.037  0.00  0.00    -0.385 N 
ATOM     29  C   UNL d   1      27.002 -14.567  -1.949  0.00  0.00     0.155 A 
ATOM     30  H   UNL d   1      24.825 -14.261  -2.545  0.00  0.00     0.160 HD
ENDBRANCH  20  21
ENDBRANCH  19  20
ENDBRANCH   6  19
BRANCH   4  31
ATOM     31  C   UNL d   1      27.658 -11.450   2.993  0.00  0.00     0.040 C 
ATOM     32  C   UNL d   1      27.970 -10.328   3.797  0.00  0.00     0.017 C 
ATOM     33  C   UNL d   1      27.087  -9.238   3.845  0.00  0.00     0.001 C 
ATOM     34  C   UNL d   1      26.001  -9.201   2.983  0.00  0.00     0.001 C 
ATOM     35  C   UNL d   1      25.771 -10.261   2.105  0.00  0.00     0.007 C 
ATOM     36  C   UNL d   1      26.585 -11.389   2.111  0.00  0.00    -0.046 C 
ATOM     37  C   UNL d   1      26.345 -12.574   1.223  0.00  0.00     0.049 C 
ENDBRANCH   4  31
TORSDOF 7
ENDMDL
MODEL 4
REMARK VINA RESULT:    -9.073      1.249      2.268
REMARK INTER + INTRA:         -13.036
REMARK INTER:                 -11.161
REMARK INTRA:                  -1.874
REMARK CONF_INDEPENDENT:        2.088
REMARK UNBOUND:                -1.874
REMARK  7 active torsions:
REMARK  status: ('A' for Active; 'I' for Inactive)
REMARK    1  A    between atoms: O_2  and  C_3 
REMARK    2  A    between atoms: C_6  and  N_7 
REMARK       I    between atoms: N_7  and  C_8 
REMARK       I    between atoms: C_8  and  N_19 
REMARK       I    between atoms: N_9  and  C_10 
REMARK    3  A    between atoms: C_10  and  C_12 
REMARK    4  A    between atoms: N_19  and  C_20 
REMARK    5  A    between atoms: C_20  and  C_21 
REMARK    6  A    between atoms: C_21  and  C_22 
REMARK    7  A    between atoms: C_32  and  O_33 
ROOT
ATOM      1  N   UNL d   1      27.345 -17.332   0.584  0.00  0.00    -0.190 N 
ATOM      2  C   UNL d   1      26.206 -17.478  -0.244  0.00  0.00     0.704 C 
ATOM      3  N   UNL d   1      25.887 -16.864  -1.350  0.00  0.00    -0.023 NA
ATOM      4  C   UNL d   1      26.333 -15.571  -1.491  0.00  0.00     0.294 C 
ATOM      5  O   UNL d   1      26.334 -14.782  -0.575  0.00  0.00    -0.265 OA
ATOM      6  N   UNL d   1      25.243 -18.426   0.152  0.00  0.00    -0.224 N 
ATOM      7  H   UNL d   1      27.271 -17.700   1.521  0.00  0.00     0.184 HD
ATOM      8  H   UNL d   1      25.230 -18.770   1.105  0.00  0.00     0.177 HD
ENDROOT
BRANCH   1   9
ATOM      9  C   UNL d   1      28.477 -16.445   0.422  0.00  0.00     0.052 C 
ATOM     10  C   UNL d   1      28.588 -15.179   0.972  0.00  0.00     0.033 C 
ATOM     11  C   UNL d   1      29.607 -14.264   0.522  0.00  0.00     0.042 C 
ATOM     12  C   UNL d   1      30.473 -14.526  -0.563  0.00  0.00     0.101 C 
ATOM     13  C   UNL d   1      30.344 -15.780  -1.096  0.00  0.00     0.103 C 
ATOM     14  C   UNL d   1      29.577 -16.742  -0.372  0.00  0.00     0.069 C 
BRANCH  12  15
ATOM     15  O   UNL d   1      31.549 -13.688  -0.705  0.00  0.00    -0.353 OA
ATOM     16  C   UNL d   1      32.899 -14.103  -0.531  0.00  0.00     0.210 C 
ENDBRANCH  12  15
BRANCH  13  17
ATOM     17  O   UNL d   1      30.725 -16.259  -2.309  0.00  0.00    -0.353 OA
ATOM     18  C   UNL d   1      30.735 -15.491  -3.474  0.00  0.00     0.210 C 
ENDBRANCH  13  17
ENDBRANCH   1   9
BRANCH   6  19
ATOM     19  C   UNL d   1      23.957 -18.510  -0.602  0.00  0.00     0.142 C 
BRANCH  19  20
ATOM     20  C   UNL d   1      22.709 -18.233   0.230  0.00  0.00     0.057 C 
BRANCH  20  21
ATOM     21  C   UNL d   1      21.396 -18.840  -0.217  0.00  0.00    -0.048 A 
ATOM     22  C   UNL d   1      20.547 -19.326   0.691  0.00  0.00    -0.006 A 
ATOM     23  C   UNL d   1      20.654 -19.391   2.104  0.00  0.00     0.014 A 
ATOM     24  C   UNL d   1      19.406 -19.898  -0.035  0.00  0.00     0.038 A 
ATOM     25  C   UNL d   1      19.750 -20.109   2.775  0.00  0.00     0.001 A 
ATOM     26  C   UNL d   1      18.592 -20.677   2.106  0.00  0.00     0.002 A 
ATOM     27  C   UNL d   1      18.378 -20.595   0.774  0.00  0.00     0.030 A 
ATOM     28  N   UNL d   1      19.515 -19.700  -1.294  0.00  0.00    -0.385 N 
ATOM     29  C   UNL d   1      20.840 -19.054  -1.602  0.00  0.00     0.155 A 
ATOM     30  H   UNL d   1      18.781 -19.961  -1.954  0.00  0.00     0.160 HD
ENDBRANCH  20  21
ENDBRANCH  19  20
ENDBRANCH   6  19
BRANCH   4  31
ATOM     31  C   UNL d   1      26.423 -15.035  -2.900  0.00  0.00     0.040 C 
ATOM     32  C   UNL d   1      27.575 -14.782  -3.684  0.00  0.00     0.017 C 
ATOM     33  C   UNL d   1      27.530 -13.809  -4.694  0.00  0.00     0.001 C 
ATOM     34  C   UNL d   1      26.318 -13.219  -5.020  0.00  0.00     0.001 C 
ATOM     35  C   UNL d   1      25.161 -13.567  -4.320  0.00  0.00     0.007 C 
ATOM     36  C   UNL d   1      25.207 -14.462  -3.257  0.00  0.00    -0.046 C 
ATOM     37  C   UNL d   1      24.001 -14.825  -2.442  0.00  0.00     0.049 C 
ENDBRANCH   4  31
TORSDOF 7
ENDMDL
MODEL 5
REMARK VINA RESULT:    -8.695      3.622      8.139
REMARK INTER + INTRA:         -12.993
REMARK INTER:                 -10.784
REMARK INTRA:                  -2.209
REMARK CONF_INDEPENDENT:        2.088
REMARK UNBOUND:                -2.209
REMARK  7 active torsions:
REMARK  status: ('A' for Active; 'I' for Inactive)
REMARK    1  A    between atoms: O_2  and  C_3 
REMARK    2  A    between atoms: C_6  and  N_7 
REMARK       I    between atoms: N_7  and  C_8 
REMARK       I    between atoms: C_8  and  N_19 
REMARK       I    between atoms: N_9  and  C_10 
REMARK    3  A    between atoms: C_10  and  C_12 
REMARK    4  A    between atoms: N_19  and  C_20 
REMARK    5  A    between atoms: C_20  and  C_21 
REMARK    6  A    between atoms: C_21  and  C_22 
REMARK    7  A    between atoms: C_32  and  O_33 
ROOT
ATOM      1  N   UNL d   1      29.615 -15.151  -2.331  0.00  0.00    -0.190 N 
ATOM      2  C   UNL d   1      29.437 -16.455  -1.811  0.00  0.00     0.704 C 
ATOM      3  N   UNL d   1      28.346 -17.077  -1.459  0.00  0.00    -0.023 NA
ATOM      4  C   UNL d   1      27.319 -16.301  -0.977  0.00  0.00     0.294 C 
ATOM      5  O   UNL d   1      27.507 -15.362  -0.239  0.00  0.00    -0.265 OA
ATOM      6  N   UNL d   1      30.594 -17.238  -1.634  0.00  0.00    -0.224 N 
ATOM      7  H   UNL d   1      30.549 -14.770  -2.282  0.00  0.00     0.184 HD
ATOM      8  H   UNL d   1      31.507 -16.799  -1.611  0.00  0.00     0.177 HD
ENDROOT
BRANCH   1   9
ATOM      9  C   UNL d   1      28.617 -14.141  -2.611  0.00  0.00     0.052 C 
ATOM     10  C   UNL d   1      28.404 -12.996  -1.862  0.00  0.00     0.033 C 
ATOM     11  C   UNL d   1      27.210 -12.207  -2.041  0.00  0.00     0.042 C 
ATOM     12  C   UNL d   1      26.139 -12.584  -2.881  0.00  0.00     0.101 C 
ATOM     13  C   UNL d   1      26.367 -13.721  -3.609  0.00  0.00     0.103 C 
ATOM     14  C   UNL d   1      27.698 -14.238  -3.647  0.00  0.00     0.069 C 
BRANCH  12  15
ATOM     15  O   UNL d   1      25.202 -11.620  -3.150  0.00  0.00    -0.353 OA
ATOM     16  C   UNL d   1      25.529 -10.296  -3.556  0.00  0.00     0.210 C 
ENDBRANCH  12  15
BRANCH  13  17
ATOM     17  O   UNL d   1      25.491 -14.557  -4.224  0.00  0.00    -0.353 OA
ATOM     18  C   UNL d   1      25.878 -15.576  -5.096  0.00  0.00     0.210 C 
ENDBRANCH  13  17
ENDBRANCH   1   9
BRANCH   6  19
ATOM     19  C   UNL d   1      30.475 -18.560  -0.950  0.00  0.00     0.142 C 
BRANCH  19  20
ATOM     20  C   UNL d   1      31.491 -19.605  -1.401  0.00  0.00     0.057 C 
BRANCH  20  21
ATOM     21  C   UNL d   1      31.184 -20.422  -2.638  0.00  0.00    -0.048 A 
ATOM     22  C   UNL d   1      31.134 -19.827  -3.832  0.00  0.00    -0.006 A 
ATOM     23  C   UNL d   1      31.324 -18.467  -4.186  0.00  0.00     0.014 A 
ATOM     24  C   UNL d   1      30.758 -20.848  -4.817  0.00  0.00     0.038 A 
ATOM     25  C   UNL d   1      31.023 -18.089  -5.431  0.00  0.00     0.001 A 
ATOM     26  C   UNL d   1      30.666 -19.063  -6.448  0.00  0.00     0.002 A 
ATOM     27  C   UNL d   1      30.538 -20.388  -6.209  0.00  0.00     0.030 A 
ATOM     28  N   UNL d   1      30.665 -22.002  -4.273  0.00  0.00    -0.385 N 
ATOM     29  C   UNL d   1      30.857 -21.888  -2.784  0.00  0.00     0.155 A 
ATOM     30  H   UNL d   1      30.486 -22.850  -4.815  0.00  0.00     0.160 HD
ENDBRANCH  20  21
ENDBRANCH  19  20
ENDBRANCH   6  19
BRANCH   4  31
ATOM     31  C   UNL d   1      25.931 -16.893  -1.044  0.00  0.00     0.040 C 
ATOM     32  C   UNL d   1      24.792 -16.414  -1.736  0.00  0.00     0.017 C 
ATOM     33  C   UNL d   1      23.508 -16.737  -1.269  0.00  0.00     0.001 C 
ATOM     34  C   UNL d   1      23.367 -17.650  -0.235  0.00  0.00     0.001 C 
ATOM     35  C   UNL d   1      24.498 -18.212   0.360  0.00  0.00     0.007 C 
ATOM     36  C   UNL d   1      25.778 -17.832  -0.030  0.00  0.00    -0.046 C 
ATOM     37  C   UNL d   1      27.021 -18.368   0.616  0.00  0.00     0.049 C 
ENDBRANCH   4  31
TORSDOF 7
ENDMDL
MODEL 6
REMARK VINA RESULT:    -8.666      3.779      7.059
REMARK INTER + INTRA:         -13.204
REMARK INTER:                 -10.754
REMARK INTRA:                  -2.450
REMARK CONF_INDEPENDENT:        2.088
REMARK UNBOUND:                -2.450
REMARK  7 active torsions:
REMARK  status: ('A' for Active; 'I' for Inactive)
REMARK    1  A    between atoms: O_2  and  C_3 
REMARK    2  A    between atoms: C_6  and  N_7 
REMARK       I    between atoms: N_7  and  C_8 
REMARK       I    between atoms: C_8  and  N_19 
REMARK       I    between atoms: N_9  and  C_10 
REMARK    3  A    between atoms: C_10  and  C_12 
REMARK    4  A    between atoms: N_19  and  C_20 
REMARK    5  A    between atoms: C_20  and  C_21 
REMARK    6  A    between atoms: C_21  and  C_22 
REMARK    7  A    between atoms: C_32  and  O_33 
ROOT
ATOM      1  N   UNL d   1      30.179 -14.805   3.995  0.00  0.00    -0.190 N 
ATOM      2  C   UNL d   1      29.819 -14.391   2.690  0.00  0.00     0.704 C 
ATOM      3  N   UNL d   1      29.136 -13.352   2.297  0.00  0.00    -0.023 NA
ATOM      4  C   UNL d   1      28.168 -12.887   3.156  0.00  0.00     0.294 C 
ATOM      5  O   UNL d   1      27.452 -13.628   3.789  0.00  0.00    -0.265 OA
ATOM      6  N   UNL d   1      30.249 -15.199   1.620  0.00  0.00    -0.224 N 
ATOM      7  H   UNL d   1      30.470 -15.767   4.098  0.00  0.00     0.184 HD
ATOM      8  H   UNL d   1      30.546 -16.153   1.790  0.00  0.00     0.177 HD
ENDROOT
BRANCH   1   9
ATOM      9  C   UNL d   1      29.876 -14.177   5.263  0.00  0.00     0.052 C 
ATOM     10  C   UNL d   1      28.991 -14.667   6.208  0.00  0.00     0.033 C 
ATOM     11  C   UNL d   1      28.535 -13.836   7.295  0.00  0.00     0.042 C 
ATOM     12  C   UNL d   1      28.848 -12.464   7.418  0.00  0.00     0.101 C 
ATOM     13  C   UNL d   1      29.720 -11.998   6.471  0.00  0.00     0.103 C 
ATOM     14  C   UNL d   1      30.400 -12.953   5.657  0.00  0.00     0.069 C 
BRANCH  12  15
ATOM     15  O   UNL d   1      28.567 -11.877   8.625  0.00  0.00    -0.353 OA
ATOM     16  C   UNL d   1      28.297 -12.612   9.813  0.00  0.00     0.210 C 
ENDBRANCH  12  15
BRANCH  13  17
ATOM     17  O   UNL d   1      29.969 -10.727   6.060  0.00  0.00    -0.353 OA
ATOM     18  C   UNL d   1      29.579  -9.594   6.776  0.00  0.00     0.210 C 
ENDBRANCH  13  17
ENDBRANCH   1   9
BRANCH   6  19
ATOM     19  C   UNL d   1      29.769 -14.888   0.240  0.00  0.00     0.142 C 
BRANCH  19  20
ATOM     20  C   UNL d   1      29.299 -16.099  -0.560  0.00  0.00     0.057 C 
BRANCH  20  21
ATOM     21  C   UNL d   1      27.866 -16.559  -0.396  0.00  0.00    -0.048 A 
ATOM     22  C   UNL d   1      26.916 -16.073  -1.197  0.00  0.00    -0.006 A 
ATOM     23  C   UNL d   1      27.003 -15.128  -2.252  0.00  0.00     0.014 A 
ATOM     24  C   UNL d   1      25.637 -16.647  -0.763  0.00  0.00     0.038 A 
ATOM     25  C   UNL d   1      25.868 -14.656  -2.774  0.00  0.00     0.001 A 
ATOM     26  C   UNL d   1      24.578 -15.207  -2.394  0.00  0.00     0.002 A 
ATOM     27  C   UNL d   1      24.417 -16.163  -1.451  0.00  0.00     0.030 A 
ATOM     28  N   UNL d   1      25.808 -17.489   0.185  0.00  0.00    -0.385 N 
ATOM     29  C   UNL d   1      27.253 -17.506   0.606  0.00  0.00     0.155 A 
ATOM     30  H   UNL d   1      25.041 -18.046   0.566  0.00  0.00     0.160 HD
ENDBRANCH  20  21
ENDBRANCH  19  20
ENDBRANCH   6  19
BRANCH   4  31
ATOM     31  C   UNL d   1      27.735 -11.451   2.976  0.00  0.00     0.040 C 
ATOM     32  C   UNL d   1      28.063 -10.318   3.759  0.00  0.00     0.017 C 
ATOM     33  C   UNL d   1      27.183  -9.225   3.806  0.00  0.00     0.001 C 
ATOM     34  C   UNL d   1      26.083  -9.199   2.962  0.00  0.00     0.001 C 
ATOM     35  C   UNL d   1      25.836 -10.270   2.103  0.00  0.00     0.007 C 
ATOM     36  C   UNL d   1      26.647 -11.400   2.111  0.00  0.00    -0.046 C 
ATOM     37  C   UNL d   1      26.390 -12.597   1.245  0.00  0.00     0.049 C 
ENDBRANCH   4  31
TORSDOF 7
ENDMDL
MODEL 7
REMARK VINA RESULT:    -7.895      4.695      7.147
REMARK INTER + INTRA:         -12.656
REMARK INTER:                  -9.983
REMARK INTRA:                  -2.673
REMARK CONF_INDEPENDENT:        2.088
REMARK UNBOUND:                -2.673
REMARK  7 active torsions:
REMARK  status: ('A' for Active; 'I' for Inactive)
REMARK    1  A    between atoms: O_2  and  C_3 
REMARK    2  A    between atoms: C_6  and  N_7 
REMARK       I    between atoms: N_7  and  C_8 
REMARK       I    between atoms: C_8  and  N_19 
REMARK       I    between atoms: N_9  and  C_10 
REMARK    3  A    between atoms: C_10  and  C_12 
REMARK    4  A    between atoms: N_19  and  C_20 
REMARK    5  A    between atoms: C_20  and  C_21 
REMARK    6  A    between atoms: C_21  and  C_22 
REMARK    7  A    between atoms: C_32  and  O_33 
ROOT
ATOM      1  N   UNL d   1      29.185 -15.052   1.438  0.00  0.00    -0.190 N 
ATOM      2  C   UNL d   1      29.225 -15.732   0.197  0.00  0.00     0.704 C 
ATOM      3  N   UNL d   1      28.608 -15.474  -0.923  0.00  0.00    -0.023 NA
ATOM      4  C   UNL d   1      27.376 -14.872  -0.826  0.00  0.00     0.294 C 
ATOM      5  O   UNL d   1      26.569 -15.178   0.020  0.00  0.00    -0.265 OA
ATOM      6  N   UNL d   1      30.051 -16.870   0.116  0.00  0.00    -0.224 N 
ATOM      7  H   UNL d   1      29.518 -15.564   2.243  0.00  0.00     0.184 HD
ATOM      8  H   UNL d   1      30.368 -17.330   0.962  0.00  0.00     0.177 HD
ENDROOT
BRANCH   1   9
ATOM      9  C   UNL d   1      28.432 -13.871   1.802  0.00  0.00     0.052 C 
ATOM     10  C   UNL d   1      28.445 -12.670   1.114  0.00  0.00     0.033 C 
ATOM     11  C   UNL d   1      27.903 -11.472   1.707  0.00  0.00     0.042 C 
ATOM     12  C   UNL d   1      27.438 -11.398   3.039  0.00  0.00     0.101 C 
ATOM     13  C   UNL d   1      27.439 -12.594   3.704  0.00  0.00     0.103 C 
ATOM     14  C   UNL d   1      27.646 -13.785   2.943  0.00  0.00     0.069 C 
BRANCH  12  15
ATOM     15  O   UNL d   1      26.718 -10.280   3.375  0.00  0.00    -0.353 OA
ATOM     16  C   UNL d   1      25.844  -9.607   2.475  0.00  0.00     0.210 C 
ENDBRANCH  12  15
BRANCH  13  17
ATOM     17  O   UNL d   1      27.407 -12.855   5.037  0.00  0.00    -0.353 OA
ATOM     18  C   UNL d   1      28.155 -13.863   5.645  0.00  0.00     0.210 C 
ENDBRANCH  13  17
ENDBRANCH   1   9
BRANCH   6  19
ATOM     19  C   UNL d   1      30.012 -17.706  -1.121  0.00  0.00     0.142 C 
BRANCH  19  20
ATOM     20  C   UNL d   1      31.052 -17.336  -2.173  0.00  0.00     0.057 C 
BRANCH  20  21
ATOM     21  C   UNL d   1      30.620 -17.280  -3.624  0.00  0.00    -0.048 A 
ATOM     22  C   UNL d   1      30.181 -16.131  -4.142  0.00  0.00    -0.006 A 
ATOM     23  C   UNL d   1      30.027 -14.855  -3.542  0.00  0.00     0.014 A 
ATOM     24  C   UNL d   1      29.781 -16.399  -5.529  0.00  0.00     0.038 A 
ATOM     25  C   UNL d   1      29.377 -13.909  -4.224  0.00  0.00     0.001 A 
ATOM     26  C   UNL d   1      28.978 -14.117  -5.606  0.00  0.00     0.002 A 
ATOM     27  C   UNL d   1      29.158 -15.278  -6.275  0.00  0.00     0.030 A 
ATOM     28  N   UNL d   1      30.035 -17.609  -5.857  0.00  0.00    -0.385 N 
ATOM     29  C   UNL d   1      30.546 -18.371  -4.664  0.00  0.00     0.155 A 
ATOM     30  H   UNL d   1      29.894 -17.958  -6.807  0.00  0.00     0.160 HD
ENDBRANCH  20  21
ENDBRANCH  19  20
ENDBRANCH   6  19
BRANCH   4  31
ATOM     31  C   UNL d   1      26.889 -14.125  -2.045  0.00  0.00     0.040 C 
ATOM     32  C   UNL d   1      27.012 -12.749  -2.354  0.00  0.00     0.017 C 
ATOM     33  C   UNL d   1      26.070 -12.137  -3.195  0.00  0.00     0.001 C 
ATOM     34  C   UNL d   1      25.122 -12.917  -3.840  0.00  0.00     0.001 C 
ATOM     35  C   UNL d   1      25.088 -14.295  -3.624  0.00  0.00     0.007 C 
ATOM     36  C   UNL d   1      25.957 -14.903  -2.723  0.00  0.00    -0.046 C 
ATOM     37  C   UNL d   1      25.921 -16.371  -2.417  0.00  0.00     0.049 C 
ENDBRANCH   4  31
TORSDOF 7
ENDMDL
MODEL 8
REMARK VINA RESULT:    -7.539      4.438      7.220
REMARK INTER + INTRA:         -12.587
REMARK INTER:                  -9.627
REMARK INTRA:                  -2.960
REMARK CONF_INDEPENDENT:        2.088
REMARK UNBOUND:                -2.960
REMARK  7 active torsions:
REMARK  status: ('A' for Active; 'I' for Inactive)
REMARK    1  A    between atoms: O_2  and  C_3 
REMARK    2  A    between atoms: C_6  and  N_7 
REMARK       I    between atoms: N_7  and  C_8 
REMARK       I    between atoms: C_8  and  N_19 
REMARK       I    between atoms: N_9  and  C_10 
REMARK    3  A    between atoms: C_10  and  C_12 
REMARK    4  A    between atoms: N_19  and  C_20 
REMARK    5  A    between atoms: C_20  and  C_21 
REMARK    6  A    between atoms: C_21  and  C_22 
REMARK    7  A    between atoms: C_32  and  O_33 
ROOT
ATOM      1  N   UNL d   1      29.507 -15.134   1.374  0.00  0.00    -0.190 N 
ATOM      2  C   UNL d   1      29.395 -15.923   0.204  0.00  0.00     0.704 C 
ATOM      3  N   UNL d   1      28.645 -15.761  -0.850  0.00  0.00    -0.023 NA
ATOM      4  C   UNL d   1      27.433 -15.140  -0.659  0.00  0.00     0.294 C 
ATOM      5  O   UNL d   1      26.736 -15.360   0.305  0.00  0.00    -0.265 OA
ATOM      6  N   UNL d   1      30.205 -17.072   0.127  0.00  0.00    -0.224 N 
ATOM      7  H   UNL d   1      29.937 -15.573   2.175  0.00  0.00     0.184 HD
ATOM      8  H   UNL d   1      30.624 -17.457   0.966  0.00  0.00     0.177 HD
ENDROOT
BRANCH   1   9
ATOM      9  C   UNL d   1      28.803 -13.917   1.719  0.00  0.00     0.052 C 
ATOM     10  C   UNL d   1      27.896 -13.782   2.756  0.00  0.00     0.033 C 
ATOM     11  C   UNL d   1      27.034 -12.629   2.839  0.00  0.00     0.042 C 
ATOM     12  C   UNL d   1      26.960 -11.631   1.842  0.00  0.00     0.101 C 
ATOM     13  C   UNL d   1      27.861 -11.785   0.823  0.00  0.00     0.103 C 
ATOM     14  C   UNL d   1      28.911 -12.738   0.994  0.00  0.00     0.069 C 
BRANCH  12  15
ATOM     15  O   UNL d   1      26.300 -10.477   2.178  0.00  0.00    -0.353 OA
ATOM     16  C   UNL d   1      26.685  -9.638   3.261  0.00  0.00     0.210 C 
ENDBRANCH  12  15
BRANCH  13  17
ATOM     17  O   UNL d   1      27.861 -11.264  -0.431  0.00  0.00    -0.353 OA
ATOM     18  C   UNL d   1      27.677  -9.907  -0.704  0.00  0.00     0.210 C 
ENDBRANCH  13  17
ENDBRANCH   1   9
BRANCH   6  19
ATOM     19  C   UNL d   1      30.016 -18.016  -1.015  0.00  0.00     0.142 C 
BRANCH  19  20
ATOM     20  C   UNL d   1      31.157 -18.031  -2.026  0.00  0.00     0.057 C 
BRANCH  20  21
ATOM     21  C   UNL d   1      30.816 -17.945  -3.499  0.00  0.00    -0.048 A 
ATOM     22  C   UNL d   1      30.317 -16.813  -4.000  0.00  0.00    -0.006 A 
ATOM     23  C   UNL d   1      30.019 -15.582  -3.362  0.00  0.00     0.014 A 
ATOM     24  C   UNL d   1      30.030 -17.049  -5.420  0.00  0.00     0.038 A 
ATOM     25  C   UNL d   1      29.337 -14.661  -4.048  0.00  0.00     0.001 A 
ATOM     26  C   UNL d   1      29.047 -14.839  -5.461  0.00  0.00     0.002 A 
ATOM     27  C   UNL d   1      29.365 -15.950  -6.161  0.00  0.00     0.030 A 
ATOM     28  N   UNL d   1      30.404 -18.219  -5.778  0.00  0.00    -0.385 N 
ATOM     29  C   UNL d   1      30.900 -18.990  -4.584  0.00  0.00     0.155 A 
ATOM     30  H   UNL d   1      30.354 -18.535  -6.748  0.00  0.00     0.160 HD
ENDBRANCH  20  21
ENDBRANCH  19  20
ENDBRANCH   6  19
BRANCH   4  31
ATOM     31  C   UNL d   1      26.799 -14.501  -1.871  0.00  0.00     0.040 C 
ATOM     32  C   UNL d   1      26.926 -13.174  -2.347  0.00  0.00     0.017 C 
ATOM     33  C   UNL d   1      25.893 -12.605  -3.108  0.00  0.00     0.001 C 
ATOM     34  C   UNL d   1      24.832 -13.398  -3.520  0.00  0.00     0.001 C 
ATOM     35  C   UNL d   1      24.780 -14.742  -3.147  0.00  0.00     0.007 C 
ATOM     36  C   UNL d   1      25.749 -15.296  -2.318  0.00  0.00    -0.046 C 
ATOM     37  C   UNL d   1      25.705 -16.719  -1.848  0.00  0.00     0.049 C 
ENDBRANCH   4  31
TORSDOF 7
ENDMDL
MODEL 9
REMARK VINA RESULT:    -6.883      3.294      8.076
REMARK INTER + INTRA:         -12.824
REMARK INTER:                  -8.971
REMARK INTRA:                  -3.854
REMARK CONF_INDEPENDENT:        2.088
REMARK UNBOUND:                -3.854
REMARK  7 active torsions:
REMARK  status: ('A' for Active; 'I' for Inactive)
REMARK    1  A    between atoms: O_2  and  C_3 
REMARK    2  A    between atoms: C_6  and  N_7 
REMARK       I    between atoms: N_7  and  C_8 
REMARK       I    between atoms: C_8  and  N_19 
REMARK       I    between atoms: N_9  and  C_10 
REMARK    3  A    between atoms: C_10  and  C_12 
REMARK    4  A    between atoms: N_19  and  C_20 
REMARK    5  A    between atoms: C_20  and  C_21 
REMARK    6  A    between atoms: C_21  and  C_22 
REMARK    7  A    between atoms: C_32  and  O_33 
ROOT
ATOM      1  N   UNL d   1      28.132 -15.983   0.965  0.00  0.00    -0.190 N 
ATOM      2  C   UNL d   1      29.241 -15.370   0.334  0.00  0.00     0.704 C 
ATOM      3  N   UNL d   1      29.436 -15.077  -0.922  0.00  0.00    -0.023 NA
ATOM      4  C   UNL d   1      28.839 -15.897  -1.849  0.00  0.00     0.294 C 
ATOM      5  O   UNL d   1      28.789 -17.098  -1.717  0.00  0.00    -0.265 OA
ATOM      6  N   UNL d   1      30.324 -15.003   1.156  0.00  0.00    -0.224 N 
ATOM      7  H   UNL d   1      28.291 -16.361   1.888  0.00  0.00     0.184 HD
ATOM      8  H   UNL d   1      30.420 -15.405   2.081  0.00  0.00     0.177 HD
ENDROOT
BRANCH   1   9
ATOM      9  C   UNL d   1      26.899 -16.458   0.375  0.00  0.00     0.052 C 
ATOM     10  C   UNL d   1      26.451 -17.768   0.401  0.00  0.00     0.033 C 
ATOM     11  C   UNL d   1      25.374 -18.199  -0.455  0.00  0.00     0.042 C 
ATOM     12  C   UNL d   1      24.785 -17.381  -1.446  0.00  0.00     0.101 C 
ATOM     13  C   UNL d   1      25.245 -16.092  -1.460  0.00  0.00     0.103 C 
ATOM     14  C   UNL d   1      26.039 -15.651  -0.358  0.00  0.00     0.069 C 
BRANCH  12  15
ATOM     15  O   UNL d   1      23.612 -17.833  -1.995  0.00  0.00    -0.353 OA
ATOM     16  C   UNL d   1      22.638 -18.575  -1.269  0.00  0.00     0.210 C 
ENDBRANCH  12  15
BRANCH  13  17
ATOM     17  O   UNL d   1      25.189 -15.153  -2.440  0.00  0.00    -0.353 OA
ATOM     18  C   UNL d   1      24.030 -14.450  -2.770  0.00  0.00     0.210 C 
ENDBRANCH  13  17
ENDBRANCH   1   9
BRANCH   6  19
ATOM     19  C   UNL d   1      31.575 -14.493   0.519  0.00  0.00     0.142 C 
BRANCH  19  20
ATOM     20  C   UNL d   1      31.546 -13.012   0.154  0.00  0.00     0.057 C 
BRANCH  20  21
ATOM     21  C   UNL d   1      30.958 -12.611  -1.183  0.00  0.00    -0.048 A 
ATOM     22  C   UNL d   1      29.674 -12.255  -1.263  0.00  0.00    -0.006 A 
ATOM     23  C   UNL d   1      28.679 -12.181  -0.255  0.00  0.00     0.014 A 
ATOM     24  C   UNL d   1      29.380 -11.986  -2.676  0.00  0.00     0.038 A 
ATOM     25  C   UNL d   1      27.412 -11.986  -0.629  0.00  0.00     0.001 A 
ATOM     26  C   UNL d   1      27.072 -11.695  -2.011  0.00  0.00     0.002 A 
ATOM     27  C   UNL d   1      27.972 -11.672  -3.019  0.00  0.00     0.030 A 
ATOM     28  N   UNL d   1      30.433 -12.092  -3.395  0.00  0.00    -0.385 N 
ATOM     29  C   UNL d   1      31.585 -12.575  -2.555  0.00  0.00     0.155 A 
ATOM     30  H   UNL d   1      30.439 -11.867  -4.391  0.00  0.00     0.160 HD
ENDBRANCH  20  21
ENDBRANCH  19  20
ENDBRANCH   6  19
BRANCH   4  31
ATOM     31  C   UNL d   1      28.623 -15.318  -3.227  0.00  0.00     0.040 C 
ATOM     32  C   UNL d   1      27.421 -14.868  -3.825  0.00  0.00     0.017 C 
ATOM     33  C   UNL d   1      27.287 -14.890  -5.223  0.00  0.00     0.001 C 
ATOM     34  C   UNL d   1      28.387 -15.200  -6.009  0.00  0.00     0.001 C 
ATOM     35  C   UNL d   1      29.605 -15.523  -5.409  0.00  0.00     0.007 C 
ATOM     36  C   UNL d   1      29.728 -15.594  -4.025  0.00  0.00    -0.046 C 
ATOM     37  C   UNL d   1      31.001 -15.989  -3.337  0.00  0.00     0.049 C 
ENDBRANCH   4  31
TORSDOF 7
ENDMDL
