MODEL 1
REMARK VINA RESULT:    -8.645      0.000      0.000
REMARK INTER + INTRA:         -14.250
REMARK INTER:                 -12.225
REMARK INTRA:                  -2.025
REMARK CONF_INDEPENDENT:        3.580
REMARK UNBOUND:                -2.025
REMARK  12 active torsions:
REMARK  status: ('A' for Active; 'I' for Inactive)
REMARK    1  A    between atoms: C_2  and  C_3 
REMARK    2  A    between atoms: C_4  and  C_3 
REMARK    3  A    between atoms: C_4  and  N_13 
REMARK    4  A    between atoms: C_4  and  C_5 
REMARK       I    between atoms: C_5  and  N_7 
REMARK    5  A    between atoms: N_7  and  C_8 
REMARK    6  A    between atoms: C_8  and  C_9 
REMARK    7  A    between atoms: C_9  and  C_10 
REMARK       I    between atoms: N_13  and  C_14 
REMARK    8  A    between atoms: N_13  and  C_25 
REMARK    9  A    between atoms: C_14  and  C_16 
REMARK   10  A    between atoms: C_19  and  C_20 
REMARK       I    between atoms: C_20  and  N_21 
REMARK   11  A    between atoms: C_23  and  N_24 
REMARK   12  A    between atoms: C_29  and  C_30 
ROOT
ATOM      1  N   UNL d   1      26.724 -14.881  -1.032  0.00  0.00    -0.299 N 
ATOM      2  C   UNL d   1      27.411 -13.805  -0.346  0.00  0.00     0.270 C 
ATOM      3  O   UNL d   1      27.914 -12.873  -0.980  0.00  0.00    -0.266 OA
ENDROOT
BRANCH   1   4
ATOM      4  C   UNL d   1      25.956 -16.032  -0.370  0.00  0.00     0.185 C 
BRANCH   4   5
ATOM      5  C   UNL d   1      24.570 -16.520  -0.906  0.00  0.00     0.241 C 
ATOM      6  O   UNL d   1      23.831 -15.762  -1.537  0.00  0.00    -0.271 OA
ATOM      7  N   UNL d   1      24.235 -17.865  -0.671  0.00  0.00    -0.359 N 
ATOM      8  H   UNL d   1      24.760 -18.340   0.046  0.00  0.00     0.162 HD
BRANCH   7   9
ATOM      9  C   UNL d   1      22.825 -18.216  -0.812  0.00  0.00     0.123 C 
BRANCH   9  10
ATOM     10  C   UNL d   1      22.008 -18.576   0.463  0.00  0.00     0.023 C 
BRANCH  10  11
ATOM     11  C   UNL d   1      20.539 -19.031   0.204  0.00  0.00    -0.021 C 
ATOM     12  C   UNL d   1      20.316 -19.332  -1.267  0.00  0.00     0.009 C 
ATOM     13  C   UNL d   1      20.008 -20.087   1.158  0.00  0.00     0.009 C 
ENDBRANCH  10  11
ENDBRANCH   9  10
ENDBRANCH   7   9
ENDBRANCH   4   5
BRANCH   4  14
ATOM     14  C   UNL d   1      26.649 -17.401  -0.412  0.00  0.00     0.035 C 
BRANCH  14  15
ATOM     15  C   UNL d   1      28.029 -17.346   0.225  0.00  0.00    -0.002 C 
ATOM     16  C   UNL d   1      29.057 -17.331  -0.886  0.00  0.00     0.005 C 
ENDBRANCH  14  15
ENDBRANCH   4  14
ENDBRANCH   1   4
BRANCH   1  17
ATOM     17  C   UNL d   1      26.795 -14.869  -2.519  0.00  0.00     0.039 A 
ATOM     18  C   UNL d   1      25.684 -14.624  -3.332  0.00  0.00     0.030 A 
ATOM     19  C   UNL d   1      25.734 -14.826  -4.734  0.00  0.00     0.003 A 
ATOM     20  C   UNL d   1      26.914 -15.197  -5.381  0.00  0.00     0.016 A 
ATOM     21  C   UNL d   1      28.046 -15.408  -4.619  0.00  0.00     0.050 A 
ATOM     22  C   UNL d   1      27.946 -15.230  -3.230  0.00  0.00     0.046 A 
BRANCH  21  23
ATOM     23  C   UNL d   1      29.349 -15.921  -5.196  0.00  0.00     0.417 C 
ATOM     24  F   UNL d   1      29.343 -15.950  -6.556  0.00  0.00    -0.166 F 
ATOM     25  F   UNL d   1      30.419 -15.169  -4.829  0.00  0.00    -0.166 F 
ATOM     26  F   UNL d   1      29.653 -17.197  -4.810  0.00  0.00    -0.166 F 
ENDBRANCH  21  23
ENDBRANCH   1  17
BRANCH   2  27
ATOM     27  C   UNL d   1      27.553 -13.801   1.096  0.00  0.00     0.120 C 
ATOM     28  S   UNL d   1      26.362 -13.103   2.106  0.00  0.00     0.020 SA
ATOM     29  N   UNL d   1      27.028 -13.555   3.566  0.00  0.00    -0.203 NA
ATOM     30  C   UNL d   1      28.250 -14.047   3.327  0.00  0.00     0.160 C 
ATOM     31  C   UNL d   1      28.597 -14.208   1.889  0.00  0.00     0.085 C 
BRANCH  30  32
ATOM     32  C   UNL d   1      29.109 -14.483   4.436  0.00  0.00     0.271 C 
ATOM     33  N   UNL d   1      30.393 -14.954   4.205  0.00  0.00    -0.365 N 
ATOM     34  H   UNL d   1      30.706 -15.347   3.328  0.00  0.00     0.159 HD
ATOM     35  H   UNL d   1      31.054 -15.051   4.970  0.00  0.00     0.159 HD
ATOM     36  O   UNL d   1      28.707 -14.296   5.601  0.00  0.00    -0.266 OA
ENDBRANCH  30  32
BRANCH  31  37
ATOM     37  N   UNL d   1      29.696 -14.821   1.335  0.00  0.00    -0.396 N 
ATOM     38  H   UNL d   1      29.968 -15.736   1.689  0.00  0.00     0.156 HD
ATOM     39  H   UNL d   1      29.824 -14.793   0.324  0.00  0.00     0.156 HD
ENDBRANCH  31  37
ENDBRANCH   2  27
TORSDOF 12
ENDMDL
MODEL 2
REMARK VINA RESULT:    -8.301      1.917      2.347
REMARK INTER + INTRA:         -13.783
REMARK INTER:                 -11.881
REMARK INTRA:                  -1.902
REMARK CONF_INDEPENDENT:        3.580
REMARK UNBOUND:                -1.902
REMARK  12 active torsions:
REMARK  status: ('A' for Active; 'I' for Inactive)
REMARK    1  A    between atoms: C_2  and  C_3 
REMARK    2  A    between atoms: C_4  and  C_3 
REMARK    3  A    between atoms: C_4  and  N_13 
REMARK    4  A    between atoms: C_4  and  C_5 
REMARK       I    between atoms: C_5  and  N_7 
REMARK    5  A    between atoms: N_7  and  C_8 
REMARK    6  A    between atoms: C_8  and  C_9 
REMARK    7  A    between atoms: C_9  and  C_10 
REMARK       I    between atoms: N_13  and  C_14 
REMARK    8  A    between atoms: N_13  and  C_25 
REMARK    9  A    between atoms: C_14  and  C_16 
REMARK   10  A    between atoms: C_19  and  C_20 
REMARK       I    between atoms: C_20  and  N_21 
REMARK   11  A    between atoms: C_23  and  N_24 
REMARK   12  A    between atoms: C_29  and  C_30 
ROOT
ATOM      1  N   UNL d   1      26.606 -14.607  -0.887  0.00  0.00    -0.299 N 
ATOM      2  C   UNL d   1      27.291 -13.557  -0.162  0.00  0.00     0.270 C 
ATOM      3  O   UNL d   1      27.736 -12.568  -0.753  0.00  0.00    -0.266 OA
ENDROOT
BRANCH   1   4
ATOM      4  C   UNL d   1      25.904 -15.824  -0.272  0.00  0.00     0.185 C 
BRANCH   4   5
ATOM      5  C   UNL d   1      24.571 -16.396  -0.856  0.00  0.00     0.241 C 
ATOM      6  O   UNL d   1      23.807 -15.683  -1.510  0.00  0.00    -0.271 OA
ATOM      7  N   UNL d   1      24.313 -17.760  -0.636  0.00  0.00    -0.359 N 
ATOM      8  H   UNL d   1      24.842 -18.205   0.098  0.00  0.00     0.162 HD
BRANCH   7   9
ATOM      9  C   UNL d   1      22.933 -18.198  -0.826  0.00  0.00     0.123 C 
BRANCH   9  10
ATOM     10  C   UNL d   1      22.085 -18.575   0.424  0.00  0.00     0.023 C 
BRANCH  10  11
ATOM     11  C   UNL d   1      20.829 -19.453   0.133  0.00  0.00    -0.021 C 
ATOM     12  C   UNL d   1      19.810 -19.329   1.252  0.00  0.00     0.009 C 
ATOM     13  C   UNL d   1      20.256 -19.325  -1.268  0.00  0.00     0.009 C 
ENDBRANCH  10  11
ENDBRANCH   9  10
ENDBRANCH   7   9
ENDBRANCH   4   5
BRANCH   4  14
ATOM     14  C   UNL d   1      26.693 -17.140  -0.323  0.00  0.00     0.035 C 
BRANCH  14  15
ATOM     15  C   UNL d   1      28.103 -16.965   0.218  0.00  0.00    -0.002 C 
ATOM     16  C   UNL d   1      29.069 -17.087  -0.941  0.00  0.00     0.005 C 
ENDBRANCH  14  15
ENDBRANCH   4  14
ENDBRANCH   1   4
BRANCH   1  17
ATOM     17  C   UNL d   1      26.608 -14.495  -2.372  0.00  0.00     0.039 A 
ATOM     18  C   UNL d   1      27.037 -15.527  -3.213  0.00  0.00     0.030 A 
ATOM     19  C   UNL d   1      27.227 -15.320  -4.602  0.00  0.00     0.003 A 
ATOM     20  C   UNL d   1      26.915 -14.104  -5.212  0.00  0.00     0.016 A 
ATOM     21  C   UNL d   1      26.449 -13.071  -4.425  0.00  0.00     0.050 A 
ATOM     22  C   UNL d   1      26.306 -13.306  -3.048  0.00  0.00     0.046 A 
BRANCH  21  23
ATOM     23  C   UNL d   1      26.186 -11.677  -4.956  0.00  0.00     0.417 C 
ATOM     24  F   UNL d   1      25.529 -10.891  -4.062  0.00  0.00    -0.166 F 
ATOM     25  F   UNL d   1      27.327 -11.017  -5.288  0.00  0.00    -0.166 F 
ATOM     26  F   UNL d   1      25.416 -11.659  -6.086  0.00  0.00    -0.166 F 
ENDBRANCH  21  23
ENDBRANCH   1  17
BRANCH   2  27
ATOM     27  C   UNL d   1      27.500 -13.643   1.269  0.00  0.00     0.120 C 
ATOM     28  S   UNL d   1      26.364 -12.999   2.375  0.00  0.00     0.020 SA
ATOM     29  N   UNL d   1      27.091 -13.546   3.772  0.00  0.00    -0.203 NA
ATOM     30  C   UNL d   1      28.295 -14.033   3.446  0.00  0.00     0.160 C 
ATOM     31  C   UNL d   1      28.574 -14.107   1.987  0.00  0.00     0.085 C 
BRANCH  30  32
ATOM     32  C   UNL d   1      29.199 -14.543   4.486  0.00  0.00     0.271 C 
ATOM     33  N   UNL d   1      30.456 -15.034   4.163  0.00  0.00    -0.365 N 
ATOM     34  H   UNL d   1      30.711 -15.391   3.253  0.00  0.00     0.159 HD
ATOM     35  H   UNL d   1      31.154 -15.185   4.886  0.00  0.00     0.159 HD
ATOM     36  O   UNL d   1      28.864 -14.405   5.678  0.00  0.00    -0.266 OA
ENDBRANCH  30  32
BRANCH  31  37
ATOM     37  N   UNL d   1      29.639 -14.694   1.345  0.00  0.00    -0.396 N 
ATOM     38  H   UNL d   1      29.941 -15.616   1.655  0.00  0.00     0.156 HD
ATOM     39  H   UNL d   1      29.701 -14.637   0.329  0.00  0.00     0.156 HD
ENDBRANCH  31  37
ENDBRANCH   2  27
TORSDOF 12
ENDMDL
MODEL 3
REMARK VINA RESULT:    -7.300      3.931      7.625
REMARK INTER + INTRA:         -13.751
REMARK INTER:                 -10.879
REMARK INTRA:                  -2.871
REMARK CONF_INDEPENDENT:        3.580
REMARK UNBOUND:                -2.871
REMARK  12 active torsions:
REMARK  status: ('A' for Active; 'I' for Inactive)
REMARK    1  A    between atoms: C_2  and  C_3 
REMARK    2  A    between atoms: C_4  and  C_3 
REMARK    3  A    between atoms: C_4  and  N_13 
REMARK    4  A    between atoms: C_4  and  C_5 
REMARK       I    between atoms: C_5  and  N_7 
REMARK    5  A    between atoms: N_7  and  C_8 
REMARK    6  A    between atoms: C_8  and  C_9 
REMARK    7  A    between atoms: C_9  and  C_10 
REMARK       I    between atoms: N_13  and  C_14 
REMARK    8  A    between atoms: N_13  and  C_25 
REMARK    9  A    between atoms: C_14  and  C_16 
REMARK   10  A    between atoms: C_19  and  C_20 
REMARK       I    between atoms: C_20  and  N_21 
REMARK   11  A    between atoms: C_23  and  N_24 
REMARK   12  A    between atoms: C_29  and  C_30 
ROOT
ATOM      1  N   UNL d   1      26.390 -14.994  -2.084  0.00  0.00    -0.299 N 
ATOM      2  C   UNL d   1      25.976 -15.015  -3.471  0.00  0.00     0.270 C 
ATOM      3  O   UNL d   1      25.155 -15.847  -3.872  0.00  0.00    -0.266 OA
ENDROOT
BRANCH   1   4
ATOM      4  C   UNL d   1      27.303 -13.951  -1.427  0.00  0.00     0.185 C 
BRANCH   4   5
ATOM      5  C   UNL d   1      27.006 -13.363  -0.008  0.00  0.00     0.241 C 
ATOM      6  O   UNL d   1      26.728 -12.171   0.139  0.00  0.00    -0.271 OA
ATOM      7  N   UNL d   1      27.029 -14.263   1.071  0.00  0.00    -0.359 N 
ATOM      8  H   UNL d   1      27.497 -15.142   0.913  0.00  0.00     0.162 HD
BRANCH   7   9
ATOM      9  C   UNL d   1      27.141 -13.675   2.402  0.00  0.00     0.123 C 
BRANCH   9  10
ATOM     10  C   UNL d   1      28.134 -14.306   3.422  0.00  0.00     0.023 C 
BRANCH  10  11
ATOM     11  C   UNL d   1      27.860 -13.958   4.918  0.00  0.00    -0.021 C 
ATOM     12  C   UNL d   1      28.699 -14.825   5.839  0.00  0.00     0.009 C 
ATOM     13  C   UNL d   1      27.870 -12.477   5.253  0.00  0.00     0.009 C 
ENDBRANCH  10  11
ENDBRANCH   9  10
ENDBRANCH   7   9
ENDBRANCH   4   5
BRANCH   4  14
ATOM     14  C   UNL d   1      28.733 -14.420  -1.123  0.00  0.00     0.035 C 
BRANCH  14  15
ATOM     15  C   UNL d   1      29.476 -14.800  -2.394  0.00  0.00    -0.002 C 
ATOM     16  C   UNL d   1      29.246 -16.274  -2.649  0.00  0.00     0.005 C 
ENDBRANCH  14  15
ENDBRANCH   4  14
ENDBRANCH   1   4
BRANCH   1  17
ATOM     17  C   UNL d   1      25.893 -16.106  -1.227  0.00  0.00     0.039 A 
ATOM     18  C   UNL d   1      26.745 -16.974  -0.536  0.00  0.00     0.030 A 
ATOM     19  C   UNL d   1      26.257 -18.144   0.097  0.00  0.00     0.003 A 
ATOM     20  C   UNL d   1      24.893 -18.443   0.133  0.00  0.00     0.016 A 
ATOM     21  C   UNL d   1      24.013 -17.590  -0.501  0.00  0.00     0.050 A 
ATOM     22  C   UNL d   1      24.541 -16.460  -1.145  0.00  0.00     0.046 A 
BRANCH  21  23
ATOM     23  C   UNL d   1      22.530 -17.872  -0.623  0.00  0.00     0.417 C 
ATOM     24  F   UNL d   1      21.806 -16.753  -0.895  0.00  0.00    -0.166 F 
ATOM     25  F   UNL d   1      22.243 -18.767  -1.604  0.00  0.00    -0.166 F 
ATOM     26  F   UNL d   1      21.977 -18.392   0.514  0.00  0.00    -0.166 F 
ENDBRANCH  21  23
ENDBRANCH   1  17
BRANCH   2  27
ATOM     27  C   UNL d   1      26.526 -14.085  -4.436  0.00  0.00     0.120 C 
ATOM     28  S   UNL d   1      27.865 -14.505  -5.414  0.00  0.00     0.020 SA
ATOM     29  N   UNL d   1      27.883 -13.129  -6.355  0.00  0.00    -0.203 NA
ATOM     30  C   UNL d   1      27.028 -12.251  -5.817  0.00  0.00     0.160 C 
ATOM     31  C   UNL d   1      26.211 -12.773  -4.688  0.00  0.00     0.085 C 
BRANCH  30  32
ATOM     32  C   UNL d   1      26.866 -10.913  -6.402  0.00  0.00     0.271 C 
ATOM     33  N   UNL d   1      27.549 -10.549  -7.553  0.00  0.00    -0.365 N 
ATOM     34  H   UNL d   1      28.406 -10.981  -7.867  0.00  0.00     0.159 HD
ATOM     35  H   UNL d   1      27.281  -9.717  -8.072  0.00  0.00     0.159 HD
ATOM     36  O   UNL d   1      26.002 -10.158  -5.917  0.00  0.00    -0.266 OA
ENDBRANCH  30  32
BRANCH  31  37
ATOM     37  N   UNL d   1      25.155 -12.173  -4.043  0.00  0.00    -0.396 N 
ATOM     38  H   UNL d   1      24.927 -11.211  -4.284  0.00  0.00     0.156 HD
ATOM     39  H   UNL d   1      24.297 -12.703  -3.896  0.00  0.00     0.156 HD
ENDBRANCH  31  37
ENDBRANCH   2  27
TORSDOF 12
ENDMDL
MODEL 4
REMARK VINA RESULT:    -7.265      2.016      3.119
REMARK INTER + INTRA:         -13.721
REMARK INTER:                 -10.845
REMARK INTRA:                  -2.877
REMARK CONF_INDEPENDENT:        3.580
REMARK UNBOUND:                -2.877
REMARK  12 active torsions:
REMARK  status: ('A' for Active; 'I' for Inactive)
REMARK    1  A    between atoms: C_2  and  C_3 
REMARK    2  A    between atoms: C_4  and  C_3 
REMARK    3  A    between atoms: C_4  and  N_13 
REMARK    4  A    between atoms: C_4  and  C_5 
REMARK       I    between atoms: C_5  and  N_7 
REMARK    5  A    between atoms: N_7  and  C_8 
REMARK    6  A    between atoms: C_8  and  C_9 
REMARK    7  A    between atoms: C_9  and  C_10 
REMARK       I    between atoms: N_13  and  C_14 
REMARK    8  A    between atoms: N_13  and  C_25 
REMARK    9  A    between atoms: C_14  and  C_16 
REMARK   10  A    between atoms: C_19  and  C_20 
REMARK       I    between atoms: C_20  and  N_21 
REMARK   11  A    between atoms: C_23  and  N_24 
REMARK   12  A    between atoms: C_29  and  C_30 
ROOT
ATOM      1  N   UNL d   1      28.431 -15.298  -2.659  0.00  0.00    -0.299 N 
ATOM      2  C   UNL d   1      29.038 -14.318  -1.783  0.00  0.00     0.270 C 
ATOM      3  O   UNL d   1      30.110 -13.783  -2.081  0.00  0.00    -0.266 OA
ENDROOT
BRANCH   1   4
ATOM      4  C   UNL d   1      27.054 -15.950  -2.474  0.00  0.00     0.185 C 
BRANCH   4   5
ATOM      5  C   UNL d   1      26.674 -16.729  -1.173  0.00  0.00     0.241 C 
ATOM      6  O   UNL d   1      27.536 -17.056  -0.355  0.00  0.00    -0.271 OA
ATOM      7  N   UNL d   1      25.309 -16.995  -0.966  0.00  0.00    -0.359 N 
ATOM      8  H   UNL d   1      24.710 -16.922  -1.773  0.00  0.00     0.162 HD
BRANCH   7   9
ATOM      9  C   UNL d   1      24.992 -18.032   0.011  0.00  0.00     0.123 C 
BRANCH   9  10
ATOM     10  C   UNL d   1      23.721 -18.905  -0.204  0.00  0.00     0.023 C 
BRANCH  10  11
ATOM     11  C   UNL d   1      22.505 -18.161  -0.837  0.00  0.00    -0.021 C 
ATOM     12  C   UNL d   1      21.222 -18.945  -0.629  0.00  0.00     0.009 C 
ATOM     13  C   UNL d   1      22.407 -16.681  -0.512  0.00  0.00     0.009 C 
ENDBRANCH  10  11
ENDBRANCH   9  10
ENDBRANCH   7   9
ENDBRANCH   4   5
BRANCH   4  14
ATOM     14  C   UNL d   1      25.862 -14.984  -2.452  0.00  0.00     0.035 C 
BRANCH  14  15
ATOM     15  C   UNL d   1      25.747 -14.210  -3.755  0.00  0.00    -0.002 C 
ATOM     16  C   UNL d   1      25.874 -15.195  -4.898  0.00  0.00     0.005 C 
ENDBRANCH  14  15
ENDBRANCH   4  14
ENDBRANCH   1   4
BRANCH   1  17
ATOM     17  C   UNL d   1      29.236 -15.721  -3.838  0.00  0.00     0.039 A 
ATOM     18  C   UNL d   1      29.299 -14.980  -5.023  0.00  0.00     0.030 A 
ATOM     19  C   UNL d   1      29.898 -15.506  -6.195  0.00  0.00     0.003 A 
ATOM     20  C   UNL d   1      30.528 -16.752  -6.200  0.00  0.00     0.016 A 
ATOM     21  C   UNL d   1      30.526 -17.499  -5.039  0.00  0.00     0.050 A 
ATOM     22  C   UNL d   1      29.892 -16.955  -3.910  0.00  0.00     0.046 A 
BRANCH  21  23
ATOM     23  C   UNL d   1      31.077 -18.906  -4.959  0.00  0.00     0.417 C 
ATOM     24  F   UNL d   1      30.112 -19.833  -4.718  0.00  0.00    -0.166 F 
ATOM     25  F   UNL d   1      31.708 -19.291  -6.099  0.00  0.00    -0.166 F 
ATOM     26  F   UNL d   1      31.998 -19.077  -3.962  0.00  0.00    -0.166 F 
ENDBRANCH  21  23
ENDBRANCH   1  17
BRANCH   2  27
ATOM     27  C   UNL d   1      28.426 -13.954  -0.521  0.00  0.00     0.120 C 
ATOM     28  S   UNL d   1      27.292 -12.677  -0.416  0.00  0.00     0.020 SA
ATOM     29  N   UNL d   1      26.887 -12.882   1.187  0.00  0.00    -0.203 NA
ATOM     30  C   UNL d   1      27.741 -13.765   1.720  0.00  0.00     0.160 C 
ATOM     31  C   UNL d   1      28.662 -14.417   0.750  0.00  0.00     0.085 C 
BRANCH  30  32
ATOM     32  C   UNL d   1      27.665 -14.110   3.145  0.00  0.00     0.271 C 
ATOM     33  N   UNL d   1      28.686 -14.816   3.766  0.00  0.00    -0.365 N 
ATOM     34  H   UNL d   1      29.341 -15.414   3.282  0.00  0.00     0.159 HD
ATOM     35  H   UNL d   1      28.737 -14.867   4.779  0.00  0.00     0.159 HD
ATOM     36  O   UNL d   1      26.725 -13.642   3.816  0.00  0.00    -0.266 OA
ENDBRANCH  30  32
BRANCH  31  37
ATOM     37  N   UNL d   1      29.532 -15.461   0.961  0.00  0.00    -0.396 N 
ATOM     38  H   UNL d   1      30.061 -15.480   1.830  0.00  0.00     0.156 HD
ATOM     39  H   UNL d   1      29.241 -16.407   0.716  0.00  0.00     0.156 HD
ENDBRANCH  31  37
ENDBRANCH   2  27
TORSDOF 12
ENDMDL
MODEL 5
REMARK VINA RESULT:    -7.156      3.973      7.743
REMARK INTER + INTRA:         -13.663
REMARK INTER:                 -10.735
REMARK INTRA:                  -2.928
REMARK CONF_INDEPENDENT:        3.580
REMARK UNBOUND:                -2.928
REMARK  12 active torsions:
REMARK  status: ('A' for Active; 'I' for Inactive)
REMARK    1  A    between atoms: C_2  and  C_3 
REMARK    2  A    between atoms: C_4  and  C_3 
REMARK    3  A    between atoms: C_4  and  N_13 
REMARK    4  A    between atoms: C_4  and  C_5 
REMARK       I    between atoms: C_5  and  N_7 
REMARK    5  A    between atoms: N_7  and  C_8 
REMARK    6  A    between atoms: C_8  and  C_9 
REMARK    7  A    between atoms: C_9  and  C_10 
REMARK       I    between atoms: N_13  and  C_14 
REMARK    8  A    between atoms: N_13  and  C_25 
REMARK    9  A    between atoms: C_14  and  C_16 
REMARK   10  A    between atoms: C_19  and  C_20 
REMARK       I    between atoms: C_20  and  N_21 
REMARK   11  A    between atoms: C_23  and  N_24 
REMARK   12  A    between atoms: C_29  and  C_30 
ROOT
ATOM      1  N   UNL d   1      26.229 -14.778  -2.041  0.00  0.00    -0.299 N 
ATOM      2  C   UNL d   1      26.047 -14.968  -3.465  0.00  0.00     0.270 C 
ATOM      3  O   UNL d   1      25.454 -15.960  -3.899  0.00  0.00    -0.266 OA
ENDROOT
BRANCH   1   4
ATOM      4  C   UNL d   1      26.837 -13.544  -1.361  0.00  0.00     0.185 C 
BRANCH   4   5
ATOM      5  C   UNL d   1      27.086 -13.486   0.182  0.00  0.00     0.241 C 
ATOM      6  O   UNL d   1      26.318 -12.873   0.926  0.00  0.00    -0.271 OA
ATOM      7  N   UNL d   1      28.195 -14.196   0.674  0.00  0.00    -0.359 N 
ATOM      8  H   UNL d   1      28.898 -14.456   0.000  0.00  0.00     0.162 HD
BRANCH   7   9
ATOM      9  C   UNL d   1      28.652 -13.836   2.013  0.00  0.00     0.123 C 
BRANCH   9  10
ATOM     10  C   UNL d   1      27.721 -14.123   3.228  0.00  0.00     0.023 C 
BRANCH  10  11
ATOM     11  C   UNL d   1      28.381 -13.937   4.628  0.00  0.00    -0.021 C 
ATOM     12  C   UNL d   1      27.779 -12.749   5.358  0.00  0.00     0.009 C 
ATOM     13  C   UNL d   1      28.505 -15.200   5.462  0.00  0.00     0.009 C 
ENDBRANCH  10  11
ENDBRANCH   9  10
ENDBRANCH   7   9
ENDBRANCH   4   5
BRANCH   4  14
ATOM     14  C   UNL d   1      28.270 -13.195  -1.782  0.00  0.00     0.035 C 
BRANCH  14  15
ATOM     15  C   UNL d   1      28.591 -11.734  -1.507  0.00  0.00    -0.002 C 
ATOM     16  C   UNL d   1      27.508 -10.889  -2.142  0.00  0.00     0.005 C 
ENDBRANCH  14  15
ENDBRANCH   4  14
ENDBRANCH   1   4
BRANCH   1  17
ATOM     17  C   UNL d   1      25.803 -15.904  -1.164  0.00  0.00     0.039 A 
ATOM     18  C   UNL d   1      26.704 -16.675  -0.422  0.00  0.00     0.030 A 
ATOM     19  C   UNL d   1      26.297 -17.864   0.233  0.00  0.00     0.003 A 
ATOM     20  C   UNL d   1      24.964 -18.277   0.241  0.00  0.00     0.016 A 
ATOM     21  C   UNL d   1      24.034 -17.522  -0.444  0.00  0.00     0.050 A 
ATOM     22  C   UNL d   1      24.484 -16.370  -1.108  0.00  0.00     0.046 A 
BRANCH  21  23
ATOM     23  C   UNL d   1      22.585 -17.933  -0.598  0.00  0.00     0.417 C 
ATOM     24  F   UNL d   1      21.762 -16.874  -0.825  0.00  0.00    -0.166 F 
ATOM     25  F   UNL d   1      22.391 -18.802  -1.625  0.00  0.00    -0.166 F 
ATOM     26  F   UNL d   1      22.073 -18.558   0.505  0.00  0.00    -0.166 F 
ENDBRANCH  21  23
ENDBRANCH   1  17
BRANCH   2  27
ATOM     27  C   UNL d   1      26.574 -14.018  -4.425  0.00  0.00     0.120 C 
ATOM     28  S   UNL d   1      27.924 -14.398  -5.404  0.00  0.00     0.020 SA
ATOM     29  N   UNL d   1      27.907 -13.017  -6.337  0.00  0.00    -0.203 NA
ATOM     30  C   UNL d   1      27.029 -12.164  -5.795  0.00  0.00     0.160 C 
ATOM     31  C   UNL d   1      26.226 -12.713  -4.670  0.00  0.00     0.085 C 
BRANCH  30  32
ATOM     32  C   UNL d   1      26.834 -10.827  -6.372  0.00  0.00     0.271 C 
ATOM     33  N   UNL d   1      27.505 -10.440  -7.524  0.00  0.00    -0.365 N 
ATOM     34  H   UNL d   1      28.371 -10.851  -7.843  0.00  0.00     0.159 HD
ATOM     35  H   UNL d   1      27.215  -9.613  -8.037  0.00  0.00     0.159 HD
ATOM     36  O   UNL d   1      25.953 -10.096  -5.880  0.00  0.00    -0.266 OA
ENDBRANCH  30  32
BRANCH  31  37
ATOM     37  N   UNL d   1      25.155 -12.144  -4.021  0.00  0.00    -0.396 N 
ATOM     38  H   UNL d   1      24.913 -11.181  -4.244  0.00  0.00     0.156 HD
ATOM     39  H   UNL d   1      24.305 -12.690  -3.892  0.00  0.00     0.156 HD
ENDBRANCH  31  37
ENDBRANCH   2  27
TORSDOF 12
ENDMDL
MODEL 6
REMARK VINA RESULT:    -6.875      3.594      7.327
REMARK INTER + INTRA:         -13.280
REMARK INTER:                 -10.455
REMARK INTRA:                  -2.825
REMARK CONF_INDEPENDENT:        3.580
REMARK UNBOUND:                -2.825
REMARK  12 active torsions:
REMARK  status: ('A' for Active; 'I' for Inactive)
REMARK    1  A    between atoms: C_2  and  C_3 
REMARK    2  A    between atoms: C_4  and  C_3 
REMARK    3  A    between atoms: C_4  and  N_13 
REMARK    4  A    between atoms: C_4  and  C_5 
REMARK       I    between atoms: C_5  and  N_7 
REMARK    5  A    between atoms: N_7  and  C_8 
REMARK    6  A    between atoms: C_8  and  C_9 
REMARK    7  A    between atoms: C_9  and  C_10 
REMARK       I    between atoms: N_13  and  C_14 
REMARK    8  A    between atoms: N_13  and  C_25 
REMARK    9  A    between atoms: C_14  and  C_16 
REMARK   10  A    between atoms: C_19  and  C_20 
REMARK       I    between atoms: C_20  and  N_21 
REMARK   11  A    between atoms: C_23  and  N_24 
REMARK   12  A    between atoms: C_29  and  C_30 
ROOT
ATOM      1  N   UNL d   1      25.695 -16.241  -1.480  0.00  0.00    -0.299 N 
ATOM      2  C   UNL d   1      24.971 -16.949  -0.445  0.00  0.00     0.270 C 
ATOM      3  O   UNL d   1      25.532 -17.276   0.606  0.00  0.00    -0.266 OA
ENDROOT
BRANCH   1   4
ATOM      4  C   UNL d   1      25.099 -15.673  -2.775  0.00  0.00     0.185 C 
BRANCH   4   5
ATOM      5  C   UNL d   1      24.928 -14.135  -3.006  0.00  0.00     0.241 C 
ATOM      6  O   UNL d   1      24.049 -13.700  -3.752  0.00  0.00    -0.271 OA
ATOM      7  N   UNL d   1      25.790 -13.285  -2.291  0.00  0.00    -0.359 N 
ATOM      8  H   UNL d   1      26.621 -13.707  -1.907  0.00  0.00     0.162 HD
BRANCH   7   9
ATOM      9  C   UNL d   1      25.901 -11.915  -2.782  0.00  0.00     0.123 C 
BRANCH   9  10
ATOM     10  C   UNL d   1      27.228 -11.136  -2.544  0.00  0.00     0.023 C 
BRANCH  10  11
ATOM     11  C   UNL d   1      28.466 -11.680  -3.322  0.00  0.00    -0.021 C 
ATOM     12  C   UNL d   1      28.904 -13.026  -2.772  0.00  0.00     0.009 C 
ATOM     13  C   UNL d   1      28.362 -11.614  -4.836  0.00  0.00     0.009 C 
ENDBRANCH  10  11
ENDBRANCH   9  10
ENDBRANCH   7   9
ENDBRANCH   4   5
BRANCH   4  14
ATOM     14  C   UNL d   1      25.904 -15.950  -4.052  0.00  0.00     0.035 C 
BRANCH  14  15
ATOM     15  C   UNL d   1      26.604 -14.697  -4.552  0.00  0.00    -0.002 C 
ATOM     16  C   UNL d   1      27.819 -15.124  -5.348  0.00  0.00     0.005 C 
ENDBRANCH  14  15
ENDBRANCH   4  14
ENDBRANCH   1   4
BRANCH   1  17
ATOM     17  C   UNL d   1      27.158 -16.072  -1.267  0.00  0.00     0.039 A 
ATOM     18  C   UNL d   1      28.109 -16.971  -1.762  0.00  0.00     0.030 A 
ATOM     19  C   UNL d   1      29.469 -16.903  -1.369  0.00  0.00     0.003 A 
ATOM     20  C   UNL d   1      29.942 -15.885  -0.538  0.00  0.00     0.016 A 
ATOM     21  C   UNL d   1      29.044 -14.952  -0.061  0.00  0.00     0.050 A 
ATOM     22  C   UNL d   1      27.700 -15.075  -0.447  0.00  0.00     0.046 A 
BRANCH  21  23
ATOM     23  C   UNL d   1      29.421 -13.874   0.935  0.00  0.00     0.417 C 
ATOM     24  F   UNL d   1      30.763 -13.798   1.140  0.00  0.00    -0.166 F 
ATOM     25  F   UNL d   1      29.016 -12.636   0.548  0.00  0.00    -0.166 F 
ATOM     26  F   UNL d   1      28.876 -14.061   2.175  0.00  0.00    -0.166 F 
ENDBRANCH  21  23
ENDBRANCH   1  17
BRANCH   2  27
ATOM     27  C   UNL d   1      23.581 -17.320  -0.616  0.00  0.00     0.120 C 
ATOM     28  S   UNL d   1      22.373 -16.141  -0.895  0.00  0.00     0.020 SA
ATOM     29  N   UNL d   1      21.103 -17.191  -1.146  0.00  0.00    -0.203 NA
ATOM     30  C   UNL d   1      21.516 -18.423  -0.819  0.00  0.00     0.160 C 
ATOM     31  C   UNL d   1      22.964 -18.541  -0.501  0.00  0.00     0.085 C 
BRANCH  30  32
ATOM     32  C   UNL d   1      20.590 -19.562  -0.887  0.00  0.00     0.271 C 
ATOM     33  N   UNL d   1      20.377 -20.377   0.214  0.00  0.00    -0.365 N 
ATOM     34  H   UNL d   1      21.031 -20.486   0.977  0.00  0.00     0.159 HD
ATOM     35  H   UNL d   1      19.592 -21.022   0.236  0.00  0.00     0.159 HD
ATOM     36  O   UNL d   1      19.902 -19.700  -1.917  0.00  0.00    -0.266 OA
ENDBRANCH  30  32
BRANCH  31  37
ATOM     37  N   UNL d   1      23.705 -19.679  -0.286  0.00  0.00    -0.396 N 
ATOM     38  H   UNL d   1      24.698 -19.577  -0.087  0.00  0.00     0.156 HD
ATOM     39  H   UNL d   1      23.315 -20.425   0.289  0.00  0.00     0.156 HD
ENDBRANCH  31  37
ENDBRANCH   2  27
TORSDOF 12
ENDMDL
MODEL 7
REMARK VINA RESULT:    -6.540      3.989      6.778
REMARK INTER + INTRA:         -13.339
REMARK INTER:                 -10.120
REMARK INTRA:                  -3.219
REMARK CONF_INDEPENDENT:        3.580
REMARK UNBOUND:                -3.219
REMARK  12 active torsions:
REMARK  status: ('A' for Active; 'I' for Inactive)
REMARK    1  A    between atoms: C_2  and  C_3 
REMARK    2  A    between atoms: C_4  and  C_3 
REMARK    3  A    between atoms: C_4  and  N_13 
REMARK    4  A    between atoms: C_4  and  C_5 
REMARK       I    between atoms: C_5  and  N_7 
REMARK    5  A    between atoms: N_7  and  C_8 
REMARK    6  A    between atoms: C_8  and  C_9 
REMARK    7  A    between atoms: C_9  and  C_10 
REMARK       I    between atoms: N_13  and  C_14 
REMARK    8  A    between atoms: N_13  and  C_25 
REMARK    9  A    between atoms: C_14  and  C_16 
REMARK   10  A    between atoms: C_19  and  C_20 
REMARK       I    between atoms: C_20  and  N_21 
REMARK   11  A    between atoms: C_23  and  N_24 
REMARK   12  A    between atoms: C_29  and  C_30 
ROOT
ATOM      1  N   UNL d   1      28.970 -14.590   0.395  0.00  0.00    -0.299 N 
ATOM      2  C   UNL d   1      28.963 -13.559  -0.622  0.00  0.00     0.270 C 
ATOM      3  O   UNL d   1      29.465 -12.453  -0.403  0.00  0.00    -0.266 OA
ENDROOT
BRANCH   1   4
ATOM      4  C   UNL d   1      28.492 -16.038   0.221  0.00  0.00     0.185 C 
BRANCH   4   5
ATOM      5  C   UNL d   1      26.974 -16.415   0.210  0.00  0.00     0.241 C 
ATOM      6  O   UNL d   1      26.105 -15.542   0.180  0.00  0.00    -0.271 OA
ATOM      7  N   UNL d   1      26.659 -17.784   0.191  0.00  0.00    -0.359 N 
ATOM      8  H   UNL d   1      27.394 -18.418   0.463  0.00  0.00     0.162 HD
BRANCH   7   9
ATOM      9  C   UNL d   1      25.294 -18.140   0.569  0.00  0.00     0.123 C 
BRANCH   9  10
ATOM     10  C   UNL d   1      24.290 -18.555  -0.546  0.00  0.00     0.023 C 
BRANCH  10  11
ATOM     11  C   UNL d   1      22.819 -18.089  -0.321  0.00  0.00    -0.021 C 
ATOM     12  C   UNL d   1      22.687 -16.591  -0.528  0.00  0.00     0.009 C 
ATOM     13  C   UNL d   1      21.758 -18.924  -1.017  0.00  0.00     0.009 C 
ENDBRANCH  10  11
ENDBRANCH   9  10
ENDBRANCH   7   9
ENDBRANCH   4   5
BRANCH   4  14
ATOM     14  C   UNL d   1      28.843 -16.695  -1.121  0.00  0.00     0.035 C 
BRANCH  14  15
ATOM     15  C   UNL d   1      30.334 -16.973  -1.232  0.00  0.00    -0.002 C 
ATOM     16  C   UNL d   1      30.565 -17.794  -2.482  0.00  0.00     0.005 C 
ENDBRANCH  14  15
ENDBRANCH   4  14
ENDBRANCH   1   4
BRANCH   1  17
ATOM     17  C   UNL d   1      29.472 -14.191   1.738  0.00  0.00     0.039 A 
ATOM     18  C   UNL d   1      30.784 -13.761   1.965  0.00  0.00     0.030 A 
ATOM     19  C   UNL d   1      31.292 -13.590   3.277  0.00  0.00     0.003 A 
ATOM     20  C   UNL d   1      30.485 -13.761   4.404  0.00  0.00     0.016 A 
ATOM     21  C   UNL d   1      29.172 -14.145   4.223  0.00  0.00     0.050 A 
ATOM     22  C   UNL d   1      28.717 -14.336   2.909  0.00  0.00     0.046 A 
BRANCH  21  23
ATOM     23  C   UNL d   1      28.239 -14.468   5.371  0.00  0.00     0.417 C 
ATOM     24  F   UNL d   1      27.445 -13.417   5.712  0.00  0.00    -0.166 F 
ATOM     25  F   UNL d   1      27.408 -15.508   5.098  0.00  0.00    -0.166 F 
ATOM     26  F   UNL d   1      28.889 -14.817   6.522  0.00  0.00    -0.166 F 
ENDBRANCH  21  23
ENDBRANCH   1  17
BRANCH   2  27
ATOM     27  C   UNL d   1      28.346 -13.780  -1.914  0.00  0.00     0.120 C 
ATOM     28  S   UNL d   1      29.287 -13.976  -3.329  0.00  0.00     0.020 SA
ATOM     29  N   UNL d   1      28.036 -14.332  -4.371  0.00  0.00    -0.203 NA
ATOM     30  C   UNL d   1      26.885 -14.103  -3.727  0.00  0.00     0.160 C 
ATOM     31  C   UNL d   1      27.023 -13.776  -2.282  0.00  0.00     0.085 C 
BRANCH  30  32
ATOM     32  C   UNL d   1      25.598 -14.278  -4.413  0.00  0.00     0.271 C 
ATOM     33  N   UNL d   1      24.771 -13.194  -4.671  0.00  0.00    -0.365 N 
ATOM     34  H   UNL d   1      24.790 -12.328  -4.153  0.00  0.00     0.159 HD
ATOM     35  H   UNL d   1      23.997 -13.279  -5.324  0.00  0.00     0.159 HD
ATOM     36  O   UNL d   1      25.325 -15.403  -4.875  0.00  0.00    -0.266 OA
ENDBRANCH  30  32
BRANCH  31  37
ATOM     37  N   UNL d   1      26.036 -13.645  -1.333  0.00  0.00    -0.396 N 
ATOM     38  H   UNL d   1      25.248 -14.289  -1.365  0.00  0.00     0.156 HD
ATOM     39  H   UNL d   1      26.299 -13.472  -0.364  0.00  0.00     0.156 HD
ENDBRANCH  31  37
ENDBRANCH   2  27
TORSDOF 12
ENDMDL
MODEL 8
REMARK VINA RESULT:    -6.169      4.170      8.051
REMARK INTER + INTRA:         -13.758
REMARK INTER:                  -9.749
REMARK INTRA:                  -4.010
REMARK CONF_INDEPENDENT:        3.580
REMARK UNBOUND:                -4.010
REMARK  12 active torsions:
REMARK  status: ('A' for Active; 'I' for Inactive)
REMARK    1  A    between atoms: C_2  and  C_3 
REMARK    2  A    between atoms: C_4  and  C_3 
REMARK    3  A    between atoms: C_4  and  N_13 
REMARK    4  A    between atoms: C_4  and  C_5 
REMARK       I    between atoms: C_5  and  N_7 
REMARK    5  A    between atoms: N_7  and  C_8 
REMARK    6  A    between atoms: C_8  and  C_9 
REMARK    7  A    between atoms: C_9  and  C_10 
REMARK       I    between atoms: N_13  and  C_14 
REMARK    8  A    between atoms: N_13  and  C_25 
REMARK    9  A    between atoms: C_14  and  C_16 
REMARK   10  A    between atoms: C_19  and  C_20 
REMARK       I    between atoms: C_20  and  N_21 
REMARK   11  A    between atoms: C_23  and  N_24 
REMARK   12  A    between atoms: C_29  and  C_30 
ROOT
ATOM      1  N   UNL d   1      26.851 -15.082  -2.392  0.00  0.00    -0.299 N 
ATOM      2  C   UNL d   1      26.440 -13.718  -2.131  0.00  0.00     0.270 C 
ATOM      3  O   UNL d   1      25.905 -13.414  -1.060  0.00  0.00    -0.266 OA
ENDROOT
BRANCH   1   4
ATOM      4  C   UNL d   1      27.627 -15.575  -3.620  0.00  0.00     0.185 C 
BRANCH   4   5
ATOM      5  C   UNL d   1      27.357 -15.012  -5.054  0.00  0.00     0.241 C 
ATOM      6  O   UNL d   1      26.483 -15.502  -5.773  0.00  0.00    -0.271 OA
ATOM      7  N   UNL d   1      28.122 -13.905  -5.457  0.00  0.00    -0.359 N 
ATOM      8  H   UNL d   1      28.963 -13.723  -4.931  0.00  0.00     0.162 HD
BRANCH   7   9
ATOM      9  C   UNL d   1      28.156 -13.628  -6.890  0.00  0.00     0.123 C 
BRANCH   9  10
ATOM     10  C   UNL d   1      29.527 -13.334  -7.567  0.00  0.00     0.023 C 
BRANCH  10  11
ATOM     11  C   UNL d   1      30.718 -14.203  -7.058  0.00  0.00    -0.021 C 
ATOM     12  C   UNL d   1      31.377 -13.565  -5.848  0.00  0.00     0.009 C 
ATOM     13  C   UNL d   1      30.426 -15.687  -6.915  0.00  0.00     0.009 C 
ENDBRANCH  10  11
ENDBRANCH   9  10
ENDBRANCH   7   9
ENDBRANCH   4   5
BRANCH   4  14
ATOM     14  C   UNL d   1      29.136 -15.294  -3.606  0.00  0.00     0.035 C 
BRANCH  14  15
ATOM     15  C   UNL d   1      29.921 -16.489  -3.087  0.00  0.00    -0.002 C 
ATOM     16  C   UNL d   1      30.030 -17.500  -4.208  0.00  0.00     0.005 C 
ENDBRANCH  14  15
ENDBRANCH   4  14
ENDBRANCH   1   4
BRANCH   1  17
ATOM     17  C   UNL d   1      26.459 -16.097  -1.375  0.00  0.00     0.039 A 
ATOM     18  C   UNL d   1      27.385 -16.748  -0.553  0.00  0.00     0.030 A 
ATOM     19  C   UNL d   1      27.012 -17.854   0.251  0.00  0.00     0.003 A 
ATOM     20  C   UNL d   1      25.689 -18.293   0.327  0.00  0.00     0.016 A 
ATOM     21  C   UNL d   1      24.735 -17.650  -0.436  0.00  0.00     0.050 A 
ATOM     22  C   UNL d   1      25.152 -16.581  -1.245  0.00  0.00     0.046 A 
BRANCH  21  23
ATOM     23  C   UNL d   1      23.295 -18.110  -0.520  0.00  0.00     0.417 C 
ATOM     24  F   UNL d   1      23.116 -19.106  -1.428  0.00  0.00    -0.166 F 
ATOM     25  F   UNL d   1      22.821 -18.575   0.665  0.00  0.00    -0.166 F 
ATOM     26  F   UNL d   1      22.427 -17.122  -0.894  0.00  0.00    -0.166 F 
ENDBRANCH  21  23
ENDBRANCH   1  17
BRANCH   2  27
ATOM     27  C   UNL d   1      26.615 -12.675  -3.121  0.00  0.00     0.120 C 
ATOM     28  S   UNL d   1      27.812 -11.466  -2.939  0.00  0.00     0.020 SA
ATOM     29  N   UNL d   1      27.595 -10.726  -4.416  0.00  0.00    -0.203 NA
ATOM     30  C   UNL d   1      26.491 -11.236  -4.975  0.00  0.00     0.160 C 
ATOM     31  C   UNL d   1      25.885 -12.383  -4.246  0.00  0.00     0.085 C 
BRANCH  30  32
ATOM     32  C   UNL d   1      26.011 -10.736  -6.271  0.00  0.00     0.271 C 
ATOM     33  N   UNL d   1      26.765  -9.840  -7.015  0.00  0.00    -0.365 N 
ATOM     34  H   UNL d   1      27.467  -9.227  -6.627  0.00  0.00     0.159 HD
ATOM     35  H   UNL d   1      26.542  -9.663  -7.990  0.00  0.00     0.159 HD
ATOM     36  O   UNL d   1      24.974 -11.236  -6.748  0.00  0.00    -0.266 OA
ENDBRANCH  30  32
BRANCH  31  37
ATOM     37  N   UNL d   1      24.856 -13.204  -4.642  0.00  0.00    -0.396 N 
ATOM     38  H   UNL d   1      24.216 -12.866  -5.358  0.00  0.00     0.156 HD
ATOM     39  H   UNL d   1      25.040 -14.196  -4.789  0.00  0.00     0.156 HD
ENDBRANCH  31  37
ENDBRANCH   2  27
TORSDOF 12
ENDMDL
MODEL 9
REMARK VINA RESULT:    -6.074      4.400      8.152
REMARK INTER + INTRA:         -13.547
REMARK INTER:                  -9.654
REMARK INTRA:                  -3.893
REMARK CONF_INDEPENDENT:        3.580
REMARK UNBOUND:                -3.893
REMARK  12 active torsions:
REMARK  status: ('A' for Active; 'I' for Inactive)
REMARK    1  A    between atoms: C_2  and  C_3 
REMARK    2  A    between atoms: C_4  and  C_3 
REMARK    3  A    between atoms: C_4  and  N_13 
REMARK    4  A    between atoms: C_4  and  C_5 
REMARK       I    between atoms: C_5  and  N_7 
REMARK    5  A    between atoms: N_7  and  C_8 
REMARK    6  A    between atoms: C_8  and  C_9 
REMARK    7  A    between atoms: C_9  and  C_10 
REMARK       I    between atoms: N_13  and  C_14 
REMARK    8  A    between atoms: N_13  and  C_25 
REMARK    9  A    between atoms: C_14  and  C_16 
REMARK   10  A    between atoms: C_19  and  C_20 
REMARK       I    between atoms: C_20  and  N_21 
REMARK   11  A    between atoms: C_23  and  N_24 
REMARK   12  A    between atoms: C_29  and  C_30 
ROOT
ATOM      1  N   UNL d   1      26.604 -15.125  -2.203  0.00  0.00    -0.299 N 
ATOM      2  C   UNL d   1      26.207 -15.222  -3.593  0.00  0.00     0.270 C 
ATOM      3  O   UNL d   1      25.388 -16.071  -3.957  0.00  0.00    -0.266 OA
ENDROOT
BRANCH   1   4
ATOM      4  C   UNL d   1      27.514 -14.051  -1.593  0.00  0.00     0.185 C 
BRANCH   4   5
ATOM      5  C   UNL d   1      27.187 -12.526  -1.704  0.00  0.00     0.241 C 
ATOM      6  O   UNL d   1      26.058 -12.141  -2.017  0.00  0.00    -0.271 OA
ATOM      7  N   UNL d   1      28.222 -11.629  -1.390  0.00  0.00    -0.359 N 
ATOM      8  H   UNL d   1      29.157 -12.005  -1.388  0.00  0.00     0.162 HD
BRANCH   7   9
ATOM      9  C   UNL d   1      28.053 -10.256  -1.857  0.00  0.00     0.123 C 
BRANCH   9  10
ATOM     10  C   UNL d   1      27.368 -10.009  -3.233  0.00  0.00     0.023 C 
BRANCH  10  11
ATOM     11  C   UNL d   1      25.949  -9.365  -3.161  0.00  0.00    -0.021 C 
ATOM     12  C   UNL d   1      25.886  -8.311  -2.069  0.00  0.00     0.009 C 
ATOM     13  C   UNL d   1      25.362  -8.936  -4.494  0.00  0.00     0.009 C 
ENDBRANCH  10  11
ENDBRANCH   9  10
ENDBRANCH   7   9
ENDBRANCH   4   5
BRANCH   4  14
ATOM     14  C   UNL d   1      27.650 -14.088  -0.065  0.00  0.00     0.035 C 
BRANCH  14  15
ATOM     15  C   UNL d   1      26.505 -13.354   0.614  0.00  0.00    -0.002 C 
ATOM     16  C   UNL d   1      26.846 -13.210   2.081  0.00  0.00     0.005 C 
ENDBRANCH  14  15
ENDBRANCH   4  14
ENDBRANCH   1   4
BRANCH   1  17
ATOM     17  C   UNL d   1      26.091 -16.186  -1.293  0.00  0.00     0.039 A 
ATOM     18  C   UNL d   1      26.929 -17.052  -0.583  0.00  0.00     0.030 A 
ATOM     19  C   UNL d   1      26.418 -18.180   0.106  0.00  0.00     0.003 A 
ATOM     20  C   UNL d   1      25.047 -18.434   0.181  0.00  0.00     0.016 A 
ATOM     21  C   UNL d   1      24.180 -17.580  -0.471  0.00  0.00     0.050 A 
ATOM     22  C   UNL d   1      24.730 -16.494  -1.170  0.00  0.00     0.046 A 
BRANCH  21  23
ATOM     23  C   UNL d   1      22.687 -17.819  -0.553  0.00  0.00     0.417 C 
ATOM     24  F   UNL d   1      22.354 -18.715  -1.520  0.00  0.00    -0.166 F 
ATOM     25  F   UNL d   1      22.165 -18.290   0.610  0.00  0.00    -0.166 F 
ATOM     26  F   UNL d   1      21.968 -16.693  -0.842  0.00  0.00    -0.166 F 
ENDBRANCH  21  23
ENDBRANCH   1  17
BRANCH   2  27
ATOM     27  C   UNL d   1      26.774 -14.350  -4.601  0.00  0.00     0.120 C 
ATOM     28  S   UNL d   1      28.256 -14.722  -5.369  0.00  0.00     0.020 SA
ATOM     29  N   UNL d   1      28.250 -13.467  -6.465  0.00  0.00    -0.203 NA
ATOM     30  C   UNL d   1      27.253 -12.636  -6.136  0.00  0.00     0.160 C 
ATOM     31  C   UNL d   1      26.363 -13.117  -5.046  0.00  0.00     0.085 C 
BRANCH  30  32
ATOM     32  C   UNL d   1      27.031 -11.399  -6.896  0.00  0.00     0.271 C 
ATOM     33  N   UNL d   1      27.939 -10.976  -7.856  0.00  0.00    -0.365 N 
ATOM     34  H   UNL d   1      28.913 -11.244  -7.875  0.00  0.00     0.159 HD
ATOM     35  H   UNL d   1      27.687 -10.251  -8.522  0.00  0.00     0.159 HD
ATOM     36  O   UNL d   1      25.944 -10.806  -6.753  0.00  0.00    -0.266 OA
ENDBRANCH  30  32
BRANCH  31  37
ATOM     37  N   UNL d   1      25.183 -12.572  -4.597  0.00  0.00    -0.396 N 
ATOM     38  H   UNL d   1      25.060 -12.447  -3.594  0.00  0.00     0.156 HD
ATOM     39  H   UNL d   1      24.782 -11.777  -5.093  0.00  0.00     0.156 HD
ENDBRANCH  31  37
ENDBRANCH   2  27
TORSDOF 12
ENDMDL
