MODEL 1
REMARK VINA RESULT:    -8.612      0.000      0.000
REMARK INTER + INTRA:         -14.846
REMARK INTER:                 -11.297
REMARK INTRA:                  -3.549
REMARK CONF_INDEPENDENT:        2.685
REMARK UNBOUND:                -3.549
REMARK  9 active torsions:
REMARK  status: ('A' for Active; 'I' for Inactive)
REMARK    1  A    between atoms: CA_4  and  C_2 
REMARK    2  A    between atoms: CA_4  and  N_15 
REMARK    3  A    between atoms: CA_4  and  CB_5 
REMARK    4  A    between atoms: CB_5  and  CG_6 
REMARK       I    between atoms: N_15  and  C_16 
REMARK    5  A    between atoms: C_16  and  C_18 
REMARK    6  A    between atoms: C_18  and  C_19 
REMARK    7  A    between atoms: C_18  and  N_26 
REMARK    8  A    between atoms: C_19  and  C_20 
REMARK    9  A    between atoms: C_36  and  O_37 
ROOT
ATOM      1  C   UNK d   0      27.324 -15.069  -0.650  0.00  0.00     0.188 C 
ENDROOT
BRANCH   1   2
ATOM      2  C   UNK d   0      28.056 -14.674  -1.940  0.00  0.00     0.241 C 
ATOM      3  N   TRP d   1      27.680 -15.247  -3.139  0.00  0.00    -0.344 N 
ATOM      4  H   TRP d   1      26.955 -15.953  -3.213  0.00  0.00     0.163 HD
ATOM      5  O   UNK d   0      29.070 -13.964  -1.856  0.00  0.00    -0.271 OA
BRANCH   3   6
ATOM      6  CA  TRP d   1      28.328 -14.780  -4.388  0.00  0.00     0.190 C 
BRANCH   6   7
ATOM      7  CB  TRP d   1      29.811 -15.182  -4.520  0.00  0.00     0.077 C 
BRANCH   7   8
ATOM      8  CG  TRP d   1      30.106 -16.643  -4.399  0.00  0.00    -0.028 C 
ATOM      9  CD1 TRP d   1      30.192 -17.367  -3.228  0.00  0.00     0.096 C 
ATOM     10  NE1 TRP d   1      30.746 -18.574  -3.513  0.00  0.00    -0.365 N 
ATOM     11  CE2 TRP d   1      30.832 -18.739  -4.871  0.00  0.00     0.042 A 
ATOM     12  HE1 TRP d   1      31.072 -19.221  -2.811  0.00  0.00     0.165 HD
ATOM     13  CZ2 TRP d   1      31.279 -19.834  -5.609  0.00  0.00     0.030 A 
ATOM     14  CD2 TRP d   1      30.416 -17.544  -5.461  0.00  0.00    -0.002 A 
ATOM     15  CH2 TRP d   1      31.278 -19.710  -6.999  0.00  0.00     0.002 A 
ATOM     16  CZ3 TRP d   1      30.856 -18.536  -7.623  0.00  0.00     0.001 A 
ATOM     17  CE3 TRP d   1      30.429 -17.440  -6.866  0.00  0.00     0.014 A 
ENDBRANCH   7   8
ENDBRANCH   6   7
BRANCH   6  18
ATOM     18  C   TRP d   1      27.392 -15.198  -5.566  0.00  0.00     0.197 C 
ATOM     19  O   TRP d   1      26.236 -15.575  -5.212  0.00  0.00    -0.646 OA
ATOM     20  OXT TRP d   1      27.913 -15.200  -6.717  0.00  0.00    -0.646 OA
ENDBRANCH   6  18
ENDBRANCH   3   6
ENDBRANCH   1   2
BRANCH   1  21
ATOM     21  C   UNK d   0      26.964 -16.604  -0.847  0.00  0.00     0.073 C 
BRANCH  21  22
ATOM     22  C   UNK d   0      25.500 -17.022  -0.727  0.00  0.00    -0.056 C 
ATOM     23  C   UNK d   0      25.097 -18.227  -0.149  0.00  0.00     0.007 C 
ATOM     24  C   UNK d   0      23.732 -18.533  -0.030  0.00  0.00     0.001 C 
ATOM     25  C   UNK d   0      22.767 -17.570  -0.296  0.00  0.00     0.000 C 
ATOM     26  C   UNK d   0      23.157 -16.395  -0.894  0.00  0.00     0.001 C 
ATOM     27  C   UNK d   0      24.490 -16.208  -1.245  0.00  0.00     0.007 C 
ENDBRANCH  21  22
ENDBRANCH   1  21
BRANCH   1  28
ATOM     28  N   UNK d   0      28.098 -14.782   0.649  0.00  0.00    -0.290 N 
ATOM     29  C   UNK d   0      27.405 -14.196   1.711  0.00  0.00     0.260 C 
ATOM     30  O   UNK d   0      26.273 -13.700   1.628  0.00  0.00    -0.267 OA
ATOM     31  C   UNK d   0      28.087 -14.091   3.019  0.00  0.00     0.058 C 
ATOM     32  C   UNK d   0      27.406 -14.070   4.232  0.00  0.00     0.019 C 
ATOM     33  C   UNK d   0      29.467 -13.929   2.963  0.00  0.00     0.047 C 
ATOM     34  C   UNK d   0      28.110 -13.776   5.399  0.00  0.00     0.001 C 
ATOM     35  C   UNK d   0      29.481 -13.505   5.338  0.00  0.00     0.002 C 
ATOM     36  C   UNK d   0      30.156 -13.554   4.115  0.00  0.00     0.030 C 
ATOM     37  N   UNK d   0      30.116 -14.287   1.804  0.00  0.00    -0.346 N 
ATOM     38  C   UNK d   0      29.444 -15.273   0.980  0.00  0.00     0.332 C 
ATOM     39  H   UNK d   0      30.682 -13.629   1.283  0.00  0.00     0.164 HD
BRANCH  38  40
ATOM     40  O   UNK d   0      30.347 -15.393  -0.069  0.00  0.00    -0.359 OA
ATOM     41  H   UNK d   0      29.901 -15.693  -0.882  0.00  0.00     0.214 HD
ENDBRANCH  38  40
ENDBRANCH   1  28
TORSDOF 9
ENDMDL
MODEL 2
REMARK VINA RESULT:    -8.478      2.744      4.999
REMARK INTER + INTRA:         -14.978
REMARK INTER:                 -11.163
REMARK INTRA:                  -3.816
REMARK CONF_INDEPENDENT:        2.685
REMARK UNBOUND:                -3.816
REMARK  9 active torsions:
REMARK  status: ('A' for Active; 'I' for Inactive)
REMARK    1  A    between atoms: CA_4  and  C_2 
REMARK    2  A    between atoms: CA_4  and  N_15 
REMARK    3  A    between atoms: CA_4  and  CB_5 
REMARK    4  A    between atoms: CB_5  and  CG_6 
REMARK       I    between atoms: N_15  and  C_16 
REMARK    5  A    between atoms: C_16  and  C_18 
REMARK    6  A    between atoms: C_18  and  C_19 
REMARK    7  A    between atoms: C_18  and  N_26 
REMARK    8  A    between atoms: C_19  and  C_20 
REMARK    9  A    between atoms: C_36  and  O_37 
ROOT
ATOM      1  C   UNK d   0      25.978 -15.805  -0.566  0.00  0.00     0.188 C 
ENDROOT
BRANCH   1   2
ATOM      2  C   UNK d   0      25.718 -15.472  -2.041  0.00  0.00     0.241 C 
ATOM      3  N   TRP d   1      26.776 -15.425  -2.926  0.00  0.00    -0.344 N 
ATOM      4  H   TRP d   1      27.741 -15.568  -2.645  0.00  0.00     0.163 HD
ATOM      5  O   UNK d   0      24.582 -15.102  -2.376  0.00  0.00    -0.271 OA
BRANCH   3   6
ATOM      6  CA  TRP d   1      26.495 -15.201  -4.365  0.00  0.00     0.190 C 
BRANCH   6   7
ATOM      7  CB  TRP d   1      25.547 -14.019  -4.649  0.00  0.00     0.077 C 
BRANCH   7   8
ATOM      8  CG  TRP d   1      25.967 -12.695  -4.091  0.00  0.00    -0.028 C 
ATOM      9  CD1 TRP d   1      26.312 -12.430  -2.782  0.00  0.00     0.096 C 
ATOM     10  NE1 TRP d   1      26.355 -11.083  -2.618  0.00  0.00    -0.365 N 
ATOM     11  CE2 TRP d   1      26.251 -10.461  -3.835  0.00  0.00     0.042 A 
ATOM     12  HE1 TRP d   1      26.417 -10.630  -1.719  0.00  0.00     0.165 HD
ATOM     13  CZ2 TRP d   1      26.303  -9.104  -4.149  0.00  0.00     0.030 A 
ATOM     14  CD2 TRP d   1      26.026 -11.453  -4.790  0.00  0.00    -0.002 A 
ATOM     15  CH2 TRP d   1      26.141  -8.752  -5.490  0.00  0.00     0.002 A 
ATOM     16  CZ3 TRP d   1      25.928  -9.718  -6.473  0.00  0.00     0.001 A 
ATOM     17  CE3 TRP d   1      25.860 -11.074  -6.137  0.00  0.00     0.014 A 
ENDBRANCH   7   8
ENDBRANCH   6   7
BRANCH   6  18
ATOM     18  C   TRP d   1      27.875 -15.170  -5.095  0.00  0.00     0.197 C 
ATOM     19  O   TRP d   1      27.804 -15.200  -6.359  0.00  0.00    -0.646 OA
ATOM     20  OXT TRP d   1      28.898 -15.210  -4.354  0.00  0.00    -0.646 OA
ENDBRANCH   6  18
ENDBRANCH   3   6
ENDBRANCH   1   2
BRANCH   1  21
ATOM     21  C   UNK d   0      25.564 -17.332  -0.422  0.00  0.00     0.073 C 
BRANCH  21  22
ATOM     22  C   UNK d   0      24.079 -17.686  -0.488  0.00  0.00    -0.056 C 
ATOM     23  C   UNK d   0      23.089 -16.755  -0.808  0.00  0.00     0.007 C 
ATOM     24  C   UNK d   0      21.745 -17.155  -0.895  0.00  0.00     0.001 C 
ATOM     25  C   UNK d   0      21.405 -18.501  -0.864  0.00  0.00     0.000 C 
ATOM     26  C   UNK d   0      22.372 -19.416  -0.519  0.00  0.00     0.001 C 
ATOM     27  C   UNK d   0      23.648 -18.978  -0.182  0.00  0.00     0.007 C 
ENDBRANCH  21  22
ENDBRANCH   1  21
BRANCH   1  28
ATOM     28  N   UNK d   0      27.405 -15.508  -0.074  0.00  0.00    -0.290 N 
ATOM     29  C   UNK d   0      27.565 -14.586   0.963  0.00  0.00     0.260 C 
ATOM     30  O   UNK d   0      26.673 -13.835   1.385  0.00  0.00    -0.267 OA
ATOM     31  C   UNK d   0      28.907 -14.436   1.566  0.00  0.00     0.058 C 
ATOM     32  C   UNK d   0      29.108 -14.027   2.882  0.00  0.00     0.019 C 
ATOM     33  C   UNK d   0      29.976 -14.650   0.705  0.00  0.00     0.047 C 
ATOM     34  C   UNK d   0      30.401 -13.728   3.307  0.00  0.00     0.001 C 
ATOM     35  C   UNK d   0      31.473 -13.837   2.415  0.00  0.00     0.002 C 
ATOM     36  C   UNK d   0      31.258 -14.272   1.104  0.00  0.00     0.030 C 
ATOM     37  N   UNK d   0      29.748 -15.360  -0.451  0.00  0.00    -0.346 N 
ATOM     38  C   UNK d   0      28.616 -16.265  -0.424  0.00  0.00     0.332 C 
ATOM     39  H   UNK d   0      29.947 -14.973  -1.364  0.00  0.00     0.164 HD
BRANCH  38  40
ATOM     40  O   UNK d   0      28.679 -16.797  -1.707  0.00  0.00    -0.359 OA
ATOM     41  H   UNK d   0      28.944 -16.118  -2.354  0.00  0.00     0.214 HD
ENDBRANCH  38  40
ENDBRANCH   1  28
TORSDOF 9
ENDMDL
MODEL 3
REMARK VINA RESULT:    -8.323      4.044      7.784
REMARK INTER + INTRA:         -15.381
REMARK INTER:                 -11.008
REMARK INTRA:                  -4.373
REMARK CONF_INDEPENDENT:        2.685
REMARK UNBOUND:                -4.373
REMARK  9 active torsions:
REMARK  status: ('A' for Active; 'I' for Inactive)
REMARK    1  A    between atoms: CA_4  and  C_2 
REMARK    2  A    between atoms: CA_4  and  N_15 
REMARK    3  A    between atoms: CA_4  and  CB_5 
REMARK    4  A    between atoms: CB_5  and  CG_6 
REMARK       I    between atoms: N_15  and  C_16 
REMARK    5  A    between atoms: C_16  and  C_18 
REMARK    6  A    between atoms: C_18  and  C_19 
REMARK    7  A    between atoms: C_18  and  N_26 
REMARK    8  A    between atoms: C_19  and  C_20 
REMARK    9  A    between atoms: C_36  and  O_37 
ROOT
ATOM      1  C   UNK d   0      28.493 -12.411   2.601  0.00  0.00     0.188 C 
ENDROOT
BRANCH   1   2
ATOM      2  C   UNK d   0      28.422 -10.963   2.097  0.00  0.00     0.241 C 
ATOM      3  N   TRP d   1      27.192 -10.368   1.902  0.00  0.00    -0.344 N 
ATOM      4  H   TRP d   1      26.312 -10.854   2.044  0.00  0.00     0.163 HD
ATOM      5  O   UNK d   0      29.469 -10.409   1.730  0.00  0.00    -0.271 OA
BRANCH   3   6
ATOM      6  CA  TRP d   1      27.142  -8.938   1.513  0.00  0.00     0.190 C 
BRANCH   6   7
ATOM      7  CB  TRP d   1      27.810  -8.628   0.158  0.00  0.00     0.077 C 
BRANCH   7   8
ATOM      8  CG  TRP d   1      27.010  -8.967  -1.059  0.00  0.00    -0.028 C 
ATOM      9  CD1 TRP d   1      25.929  -8.265  -1.550  0.00  0.00     0.096 C 
ATOM     10  NE1 TRP d   1      25.313  -9.033  -2.486  0.00  0.00    -0.365 N 
ATOM     11  CE2 TRP d   1      26.082 -10.131  -2.770  0.00  0.00     0.042 A 
ATOM     12  HE1 TRP d   1      24.405  -8.824  -2.873  0.00  0.00     0.165 HD
ATOM     13  CZ2 TRP d   1      25.873 -11.150  -3.697  0.00  0.00     0.030 A 
ATOM     14  CD2 TRP d   1      27.174 -10.108  -1.899  0.00  0.00    -0.002 A 
ATOM     15  CH2 TRP d   1      26.826 -12.169  -3.752  0.00  0.00     0.002 A 
ATOM     16  CZ3 TRP d   1      27.936 -12.171  -2.907  0.00  0.00     0.001 A 
ATOM     17  CE3 TRP d   1      28.119 -11.151  -1.969  0.00  0.00     0.014 A 
ENDBRANCH   7   8
ENDBRANCH   6   7
BRANCH   6  18
ATOM     18  C   TRP d   1      25.659  -8.478   1.672  0.00  0.00     0.197 C 
ATOM     19  O   TRP d   1      24.871  -9.374   2.097  0.00  0.00    -0.646 OA
ATOM     20  OXT TRP d   1      25.394  -7.307   1.280  0.00  0.00    -0.646 OA
ENDBRANCH   6  18
ENDBRANCH   3   6
ENDBRANCH   1   2
BRANCH   1  21
ATOM     21  C   UNK d   0      27.462 -12.465   3.809  0.00  0.00     0.073 C 
BRANCH  21  22
ATOM     22  C   UNK d   0      27.980 -12.897   5.180  0.00  0.00    -0.056 C 
ATOM     23  C   UNK d   0      28.591 -14.131   5.408  0.00  0.00     0.007 C 
ATOM     24  C   UNK d   0      29.085 -14.450   6.683  0.00  0.00     0.001 C 
ATOM     25  C   UNK d   0      29.155 -13.481   7.676  0.00  0.00     0.000 C 
ATOM     26  C   UNK d   0      28.527 -12.276   7.466  0.00  0.00     0.001 C 
ATOM     27  C   UNK d   0      27.816 -12.065   6.290  0.00  0.00     0.007 C 
ENDBRANCH  21  22
ENDBRANCH   1  21
BRANCH   1  28
ATOM     28  N   UNK d   0      28.238 -13.485   1.530  0.00  0.00    -0.290 N 
ATOM     29  C   UNK d   0      26.994 -13.498   0.893  0.00  0.00     0.260 C 
ATOM     30  O   UNK d   0      26.006 -12.846   1.261  0.00  0.00    -0.267 OA
ATOM     31  C   UNK d   0      26.808 -14.400  -0.263  0.00  0.00     0.058 C 
ATOM     32  C   UNK d   0      25.905 -14.143  -1.291  0.00  0.00     0.019 C 
ATOM     33  C   UNK d   0      27.539 -15.581  -0.224  0.00  0.00     0.047 C 
ATOM     34  C   UNK d   0      25.656 -15.136  -2.237  0.00  0.00     0.001 C 
ATOM     35  C   UNK d   0      26.308 -16.369  -2.143  0.00  0.00     0.002 C 
ATOM     36  C   UNK d   0      27.230 -16.604  -1.119  0.00  0.00     0.030 C 
ATOM     37  N   UNK d   0      28.636 -15.640   0.605  0.00  0.00    -0.346 N 
ATOM     38  C   UNK d   0      29.251 -14.367   0.930  0.00  0.00     0.332 C 
ATOM     39  H   UNK d   0      28.721 -16.338   1.332  0.00  0.00     0.164 HD
BRANCH  38  40
ATOM     40  O   UNK d   0      30.290 -14.784   1.754  0.00  0.00    -0.359 OA
ATOM     41  H   UNK d   0      29.979 -15.440   2.404  0.00  0.00     0.214 HD
ENDBRANCH  38  40
ENDBRANCH   1  28
TORSDOF 9
ENDMDL
MODEL 4
REMARK VINA RESULT:    -8.109      3.357      8.738
REMARK INTER + INTRA:         -15.133
REMARK INTER:                 -10.794
REMARK INTRA:                  -4.339
REMARK CONF_INDEPENDENT:        2.685
REMARK UNBOUND:                -4.339
REMARK  9 active torsions:
REMARK  status: ('A' for Active; 'I' for Inactive)
REMARK    1  A    between atoms: CA_4  and  C_2 
REMARK    2  A    between atoms: CA_4  and  N_15 
REMARK    3  A    between atoms: CA_4  and  CB_5 
REMARK    4  A    between atoms: CB_5  and  CG_6 
REMARK       I    between atoms: N_15  and  C_16 
REMARK    5  A    between atoms: C_16  and  C_18 
REMARK    6  A    between atoms: C_18  and  C_19 
REMARK    7  A    between atoms: C_18  and  N_26 
REMARK    8  A    between atoms: C_19  and  C_20 
REMARK    9  A    between atoms: C_36  and  O_37 
ROOT
ATOM      1  C   UNK d   0      30.145 -15.284  -4.421  0.00  0.00     0.188 C 
ENDROOT
BRANCH   1   2
ATOM      2  C   UNK d   0      28.837 -15.606  -3.686  0.00  0.00     0.241 C 
ATOM      3  N   TRP d   1      27.727 -14.810  -3.887  0.00  0.00    -0.344 N 
ATOM      4  H   TRP d   1      27.737 -13.986  -4.480  0.00  0.00     0.163 HD
ATOM      5  O   UNK d   0      28.847 -16.485  -2.810  0.00  0.00    -0.271 OA
BRANCH   3   6
ATOM      6  CA  TRP d   1      26.445 -15.194  -3.249  0.00  0.00     0.190 C 
BRANCH   6   7
ATOM      7  CB  TRP d   1      26.464 -15.136  -1.708  0.00  0.00     0.077 C 
BRANCH   7   8
ATOM      8  CG  TRP d   1      26.033 -16.382  -1.001  0.00  0.00    -0.028 C 
ATOM      9  CD1 TRP d   1      26.860 -17.328  -0.431  0.00  0.00     0.096 C 
ATOM     10  NE1 TRP d   1      26.115 -18.427  -0.145  0.00  0.00    -0.365 N 
ATOM     11  CE2 TRP d   1      24.785 -18.148  -0.320  0.00  0.00     0.042 A 
ATOM     12  HE1 TRP d   1      26.509 -19.318   0.119  0.00  0.00     0.165 HD
ATOM     13  CZ2 TRP d   1      23.668 -18.951  -0.093  0.00  0.00     0.030 A 
ATOM     14  CD2 TRP d   1      24.697 -16.856  -0.840  0.00  0.00    -0.002 A 
ATOM     15  CH2 TRP d   1      22.418 -18.405  -0.387  0.00  0.00     0.002 A 
ATOM     16  CZ3 TRP d   1      22.292 -17.112  -0.895  0.00  0.00     0.001 A 
ATOM     17  CE3 TRP d   1      23.424 -16.327  -1.136  0.00  0.00     0.014 A 
ENDBRANCH   7   8
ENDBRANCH   6   7
BRANCH   6  18
ATOM     18  C   TRP d   1      25.324 -14.370  -3.956  0.00  0.00     0.197 C 
ATOM     19  O   TRP d   1      25.727 -13.643  -4.912  0.00  0.00    -0.646 OA
ATOM     20  OXT TRP d   1      24.170 -14.450  -3.448  0.00  0.00    -0.646 OA
ENDBRANCH   6  18
ENDBRANCH   3   6
ENDBRANCH   1   2
BRANCH   1  21
ATOM     21  C   UNK d   0      30.891 -16.682  -4.541  0.00  0.00     0.073 C 
BRANCH  21  22
ATOM     22  C   UNK d   0      31.092 -17.275  -5.934  0.00  0.00    -0.056 C 
ATOM     23  C   UNK d   0      31.916 -16.691  -6.898  0.00  0.00     0.007 C 
ATOM     24  C   UNK d   0      32.093 -17.309  -8.146  0.00  0.00     0.001 C 
ATOM     25  C   UNK d   0      31.619 -18.596  -8.370  0.00  0.00     0.000 C 
ATOM     26  C   UNK d   0      30.782 -19.161  -7.437  0.00  0.00     0.001 C 
ATOM     27  C   UNK d   0      30.406 -18.430  -6.315  0.00  0.00     0.007 C 
ENDBRANCH  21  22
ENDBRANCH   1  21
BRANCH   1  28
ATOM     28  N   UNK d   0      29.972 -14.564  -5.769  0.00  0.00    -0.290 N 
ATOM     29  C   UNK d   0      31.007 -13.734  -6.209  0.00  0.00     0.260 C 
ATOM     30  O   UNK d   0      31.965 -13.369  -5.512  0.00  0.00    -0.267 OA
ATOM     31  C   UNK d   0      30.932 -13.190  -7.582  0.00  0.00     0.058 C 
ATOM     32  C   UNK d   0      32.058 -12.852  -8.328  0.00  0.00     0.019 C 
ATOM     33  C   UNK d   0      29.650 -12.954  -8.063  0.00  0.00     0.047 C 
ATOM     34  C   UNK d   0      31.891 -12.168  -9.531  0.00  0.00     0.001 C 
ATOM     35  C   UNK d   0      30.608 -11.831  -9.972  0.00  0.00     0.002 C 
ATOM     36  C   UNK d   0      29.486 -12.199  -9.223  0.00  0.00     0.030 C 
ATOM     37  N   UNK d   0      28.598 -13.597  -7.452  0.00  0.00    -0.346 N 
ATOM     38  C   UNK d   0      28.925 -14.833  -6.766  0.00  0.00     0.332 C 
ATOM     39  H   UNK d   0      27.824 -13.089  -7.045  0.00  0.00     0.164 HD
BRANCH  38  40
ATOM     40  O   UNK d   0      27.674 -15.200  -6.284  0.00  0.00    -0.359 OA
ATOM     41  H   UNK d   0      27.154 -14.416  -6.030  0.00  0.00     0.214 HD
ENDBRANCH  38  40
ENDBRANCH   1  28
TORSDOF 9
ENDMDL
MODEL 5
REMARK VINA RESULT:    -8.023      2.534      4.519
REMARK INTER + INTRA:         -14.817
REMARK INTER:                 -10.708
REMARK INTRA:                  -4.110
REMARK CONF_INDEPENDENT:        2.685
REMARK UNBOUND:                -4.110
REMARK  9 active torsions:
REMARK  status: ('A' for Active; 'I' for Inactive)
REMARK    1  A    between atoms: CA_4  and  C_2 
REMARK    2  A    between atoms: CA_4  and  N_15 
REMARK    3  A    between atoms: CA_4  and  CB_5 
REMARK    4  A    between atoms: CB_5  and  CG_6 
REMARK       I    between atoms: N_15  and  C_16 
REMARK    5  A    between atoms: C_16  and  C_18 
REMARK    6  A    between atoms: C_18  and  C_19 
REMARK    7  A    between atoms: C_18  and  N_26 
REMARK    8  A    between atoms: C_19  and  C_20 
REMARK    9  A    between atoms: C_36  and  O_37 
ROOT
ATOM      1  C   UNK d   0      27.995 -14.508  -0.555  0.00  0.00     0.188 C 
ENDROOT
BRANCH   1   2
ATOM      2  C   UNK d   0      27.279 -13.889  -1.763  0.00  0.00     0.241 C 
ATOM      3  N   TRP d   1      27.807 -14.056  -3.027  0.00  0.00    -0.344 N 
ATOM      4  H   TRP d   1      28.678 -14.547  -3.204  0.00  0.00     0.163 HD
ATOM      5  O   UNK d   0      26.325 -13.122  -1.560  0.00  0.00    -0.271 OA
BRANCH   3   6
ATOM      6  CA  TRP d   1      27.050 -13.538  -4.192  0.00  0.00     0.190 C 
BRANCH   6   7
ATOM      7  CB  TRP d   1      27.929 -12.878  -5.275  0.00  0.00     0.077 C 
BRANCH   7   8
ATOM      8  CG  TRP d   1      28.963 -13.756  -5.903  0.00  0.00    -0.028 C 
ATOM      9  CD1 TRP d   1      28.914 -14.303  -7.169  0.00  0.00     0.096 C 
ATOM     10  NE1 TRP d   1      29.882 -15.251  -7.261  0.00  0.00    -0.365 N 
ATOM     11  CE2 TRP d   1      30.698 -15.193  -6.162  0.00  0.00     0.042 A 
ATOM     12  HE1 TRP d   1      29.948 -15.913  -8.019  0.00  0.00     0.165 HD
ATOM     13  CZ2 TRP d   1      31.842 -15.931  -5.861  0.00  0.00     0.030 A 
ATOM     14  CD2 TRP d   1      30.157 -14.243  -5.293  0.00  0.00    -0.002 A 
ATOM     15  CH2 TRP d   1      32.466 -15.672  -4.639  0.00  0.00     0.002 A 
ATOM     16  CZ3 TRP d   1      31.961 -14.720  -3.754  0.00  0.00     0.001 A 
ATOM     17  CE3 TRP d   1      30.801 -14.003  -4.063  0.00  0.00     0.014 A 
ENDBRANCH   7   8
ENDBRANCH   6   7
BRANCH   6  18
ATOM     18  C   TRP d   1      26.115 -14.691  -4.672  0.00  0.00     0.197 C 
ATOM     19  O   TRP d   1      24.943 -14.654  -4.192  0.00  0.00    -0.646 OA
ATOM     20  OXT TRP d   1      26.647 -15.572  -5.405  0.00  0.00    -0.646 OA
ENDBRANCH   6  18
ENDBRANCH   3   6
ENDBRANCH   1   2
BRANCH   1  21
ATOM     21  C   UNK d   0      26.821 -15.035   0.379  0.00  0.00     0.073 C 
BRANCH  21  22
ATOM     22  C   UNK d   0      25.974 -16.205  -0.118  0.00  0.00    -0.056 C 
ATOM     23  C   UNK d   0      26.175 -17.521   0.301  0.00  0.00     0.007 C 
ATOM     24  C   UNK d   0      25.333 -18.546  -0.160  0.00  0.00     0.001 C 
ATOM     25  C   UNK d   0      24.180 -18.246  -0.873  0.00  0.00     0.000 C 
ATOM     26  C   UNK d   0      23.996 -16.956  -1.314  0.00  0.00     0.001 C 
ATOM     27  C   UNK d   0      24.972 -15.997  -1.068  0.00  0.00     0.007 C 
ENDBRANCH  21  22
ENDBRANCH   1  21
BRANCH   1  28
ATOM     28  N   UNK d   0      29.035 -15.588  -0.899  0.00  0.00    -0.290 N 
ATOM     29  C   UNK d   0      28.800 -16.396  -2.015  0.00  0.00     0.260 C 
ATOM     30  O   UNK d   0      27.726 -16.454  -2.632  0.00  0.00    -0.267 OA
ATOM     31  C   UNK d   0      29.878 -17.303  -2.462  0.00  0.00     0.058 C 
ATOM     32  C   UNK d   0      30.024 -17.718  -3.782  0.00  0.00     0.019 C 
ATOM     33  C   UNK d   0      30.703 -17.794  -1.456  0.00  0.00     0.047 C 
ATOM     34  C   UNK d   0      30.946 -18.721  -4.078  0.00  0.00     0.001 C 
ATOM     35  C   UNK d   0      31.705 -19.297  -3.055  0.00  0.00     0.002 C 
ATOM     36  C   UNK d   0      31.564 -18.853  -1.737  0.00  0.00     0.030 C 
ATOM     37  N   UNK d   0      30.739 -17.118  -0.258  0.00  0.00    -0.346 N 
ATOM     38  C   UNK d   0      30.378 -15.714  -0.313  0.00  0.00     0.332 C 
ATOM     39  H   UNK d   0      30.512 -17.569   0.618  0.00  0.00     0.164 HD
BRANCH  38  40
ATOM     40  O   UNK d   0      30.518 -15.358   1.023  0.00  0.00    -0.359 OA
ATOM     41  H   UNK d   0      30.015 -15.961   1.600  0.00  0.00     0.214 HD
ENDBRANCH  38  40
ENDBRANCH   1  28
TORSDOF 9
ENDMDL
MODEL 6
REMARK VINA RESULT:    -7.793      1.698      4.547
REMARK INTER + INTRA:         -15.021
REMARK INTER:                 -10.478
REMARK INTRA:                  -4.543
REMARK CONF_INDEPENDENT:        2.685
REMARK UNBOUND:                -4.543
REMARK  9 active torsions:
REMARK  status: ('A' for Active; 'I' for Inactive)
REMARK    1  A    between atoms: CA_4  and  C_2 
REMARK    2  A    between atoms: CA_4  and  N_15 
REMARK    3  A    between atoms: CA_4  and  CB_5 
REMARK    4  A    between atoms: CB_5  and  CG_6 
REMARK       I    between atoms: N_15  and  C_16 
REMARK    5  A    between atoms: C_16  and  C_18 
REMARK    6  A    between atoms: C_18  and  C_19 
REMARK    7  A    between atoms: C_18  and  N_26 
REMARK    8  A    between atoms: C_19  and  C_20 
REMARK    9  A    between atoms: C_36  and  O_37 
ROOT
ATOM      1  C   UNK d   0      28.936 -15.453  -1.224  0.00  0.00     0.188 C 
ENDROOT
BRANCH   1   2
ATOM      2  C   UNK d   0      29.578 -15.190  -2.593  0.00  0.00     0.241 C 
ATOM      3  N   TRP d   1      28.839 -15.386  -3.742  0.00  0.00    -0.344 N 
ATOM      4  H   TRP d   1      27.885 -15.734  -3.735  0.00  0.00     0.163 HD
ATOM      5  O   UNK d   0      30.795 -14.954  -2.644  0.00  0.00    -0.271 OA
BRANCH   3   6
ATOM      6  CA  TRP d   1      29.441 -15.030  -5.050  0.00  0.00     0.190 C 
BRANCH   6   7
ATOM      7  CB  TRP d   1      30.712 -15.831  -5.399  0.00  0.00     0.077 C 
BRANCH   7   8
ATOM      8  CG  TRP d   1      30.547 -17.315  -5.490  0.00  0.00    -0.028 C 
ATOM      9  CD1 TRP d   1      30.165 -18.160  -4.469  0.00  0.00     0.096 C 
ATOM     10  NE1 TRP d   1      30.403 -19.438  -4.863  0.00  0.00    -0.365 N 
ATOM     11  CE2 TRP d   1      30.735 -19.462  -6.193  0.00  0.00     0.042 A 
ATOM     12  HE1 TRP d   1      30.370 -20.232  -4.241  0.00  0.00     0.165 HD
ATOM     13  CZ2 TRP d   1      31.003 -20.548  -7.024  0.00  0.00     0.030 A 
ATOM     14  CD2 TRP d   1      30.814 -18.137  -6.624  0.00  0.00    -0.002 A 
ATOM     15  CH2 TRP d   1      31.343 -20.269  -8.349  0.00  0.00     0.002 A 
ATOM     16  CZ3 TRP d   1      31.418 -18.958  -8.818  0.00  0.00     0.001 A 
ATOM     17  CE3 TRP d   1      31.164 -17.880  -7.965  0.00  0.00     0.014 A 
ENDBRANCH   7   8
ENDBRANCH   6   7
BRANCH   6  18
ATOM     18  C   TRP d   1      28.290 -15.069  -6.103  0.00  0.00     0.197 C 
ATOM     19  O   TRP d   1      28.634 -14.730  -7.274  0.00  0.00    -0.646 OA
ATOM     20  OXT TRP d   1      27.139 -15.344  -5.660  0.00  0.00    -0.646 OA
ENDBRANCH   6  18
ENDBRANCH   3   6
ENDBRANCH   1   2
BRANCH   1  21
ATOM     21  C   UNK d   0      29.162 -14.107  -0.411  0.00  0.00     0.073 C 
BRANCH  21  22
ATOM     22  C   UNK d   0      28.396 -13.918   0.897  0.00  0.00    -0.056 C 
ATOM     23  C   UNK d   0      28.819 -14.460   2.112  0.00  0.00     0.007 C 
ATOM     24  C   UNK d   0      28.092 -14.212   3.288  0.00  0.00     0.001 C 
ATOM     25  C   UNK d   0      27.069 -13.273   3.301  0.00  0.00     0.000 C 
ATOM     26  C   UNK d   0      26.630 -12.761   2.102  0.00  0.00     0.001 C 
ATOM     27  C   UNK d   0      27.192 -13.212   0.912  0.00  0.00     0.007 C 
ENDBRANCH  21  22
ENDBRANCH   1  21
BRANCH   1  28
ATOM     28  N   UNK d   0      27.465 -15.901  -1.272  0.00  0.00    -0.290 N 
ATOM     29  C   UNK d   0      27.110 -17.068  -0.591  0.00  0.00     0.260 C 
ATOM     30  O   UNK d   0      27.915 -17.884  -0.120  0.00  0.00    -0.267 OA
ATOM     31  C   UNK d   0      25.674 -17.401  -0.474  0.00  0.00     0.058 C 
ATOM     32  C   UNK d   0      25.150 -18.148   0.578  0.00  0.00     0.019 C 
ATOM     33  C   UNK d   0      24.877 -16.991  -1.535  0.00  0.00     0.047 C 
ATOM     34  C   UNK d   0      23.826 -18.577   0.509  0.00  0.00     0.001 C 
ATOM     35  C   UNK d   0      23.046 -18.260  -0.607  0.00  0.00     0.002 C 
ATOM     36  C   UNK d   0      23.579 -17.489  -1.645  0.00  0.00     0.030 C 
ATOM     37  N   UNK d   0      25.352 -15.996  -2.358  0.00  0.00    -0.346 N 
ATOM     38  C   UNK d   0      26.334 -15.105  -1.770  0.00  0.00     0.332 C 
ATOM     39  H   UNK d   0      25.459 -16.131  -3.355  0.00  0.00     0.164 HD
BRANCH  38  40
ATOM     40  O   UNK d   0      26.585 -14.254  -2.841  0.00  0.00    -0.359 OA
ATOM     41  H   UNK d   0      26.592 -14.745  -3.683  0.00  0.00     0.214 HD
ENDBRANCH  38  40
ENDBRANCH   1  28
TORSDOF 9
ENDMDL
MODEL 7
REMARK VINA RESULT:    -7.514      2.116      4.524
REMARK INTER + INTRA:         -15.484
REMARK INTER:                 -10.199
REMARK INTRA:                  -5.285
REMARK CONF_INDEPENDENT:        2.685
REMARK UNBOUND:                -5.285
REMARK  9 active torsions:
REMARK  status: ('A' for Active; 'I' for Inactive)
REMARK    1  A    between atoms: CA_4  and  C_2 
REMARK    2  A    between atoms: CA_4  and  N_15 
REMARK    3  A    between atoms: CA_4  and  CB_5 
REMARK    4  A    between atoms: CB_5  and  CG_6 
REMARK       I    between atoms: N_15  and  C_16 
REMARK    5  A    between atoms: C_16  and  C_18 
REMARK    6  A    between atoms: C_18  and  C_19 
REMARK    7  A    between atoms: C_18  and  N_26 
REMARK    8  A    between atoms: C_19  and  C_20 
REMARK    9  A    between atoms: C_36  and  O_37 
ROOT
ATOM      1  C   UNK d   0      26.189 -15.957  -1.143  0.00  0.00     0.188 C 
ENDROOT
BRANCH   1   2
ATOM      2  C   UNK d   0      26.428 -15.862  -2.656  0.00  0.00     0.241 C 
ATOM      3  N   TRP d   1      27.690 -15.564  -3.129  0.00  0.00    -0.344 N 
ATOM      4  H   TRP d   1      28.479 -15.367  -2.520  0.00  0.00     0.163 HD
ATOM      5  O   UNK d   0      25.449 -15.904  -3.417  0.00  0.00    -0.271 OA
BRANCH   3   6
ATOM      6  CA  TRP d   1      27.927 -15.575  -4.593  0.00  0.00     0.190 C 
BRANCH   6   7
ATOM      7  CB  TRP d   1      27.348 -14.355  -5.336  0.00  0.00     0.077 C 
BRANCH   7   8
ATOM      8  CG  TRP d   1      26.772 -13.276  -4.475  0.00  0.00    -0.028 C 
ATOM      9  CD1 TRP d   1      25.539 -12.677  -4.628  0.00  0.00     0.096 C 
ATOM     10  NE1 TRP d   1      25.502 -11.572  -3.840  0.00  0.00    -0.365 N 
ATOM     11  CE2 TRP d   1      26.599 -11.547  -3.019  0.00  0.00     0.042 A 
ATOM     12  HE1 TRP d   1      24.782 -10.868  -3.895  0.00  0.00     0.165 HD
ATOM     13  CZ2 TRP d   1      26.944 -10.638  -2.020  0.00  0.00     0.030 A 
ATOM     14  CD2 TRP d   1      27.412 -12.622  -3.381  0.00  0.00    -0.002 A 
ATOM     15  CH2 TRP d   1      28.151 -10.851  -1.352  0.00  0.00     0.002 A 
ATOM     16  CZ3 TRP d   1      28.981 -11.923  -1.678  0.00  0.00     0.001 A 
ATOM     17  CE3 TRP d   1      28.630 -12.813  -2.697  0.00  0.00     0.014 A 
ENDBRANCH   7   8
ENDBRANCH   6   7
BRANCH   6  18
ATOM     18  C   TRP d   1      29.448 -15.854  -4.802  0.00  0.00     0.197 C 
ATOM     19  O   TRP d   1      30.139 -15.836  -3.740  0.00  0.00    -0.646 OA
ATOM     20  OXT TRP d   1      29.833 -15.975  -6.000  0.00  0.00    -0.646 OA
ENDBRANCH   6  18
ENDBRANCH   3   6
ENDBRANCH   1   2
BRANCH   1  21
ATOM     21  C   UNK d   0      25.692 -17.448  -0.910  0.00  0.00     0.073 C 
BRANCH  21  22
ATOM     22  C   UNK d   0      24.190 -17.696  -0.779  0.00  0.00    -0.056 C 
ATOM     23  C   UNK d   0      23.234 -16.701  -0.988  0.00  0.00     0.007 C 
ATOM     24  C   UNK d   0      21.866 -17.004  -0.895  0.00  0.00     0.001 C 
ATOM     25  C   UNK d   0      21.440 -18.322  -0.795  0.00  0.00     0.000 C 
ATOM     26  C   UNK d   0      22.378 -19.300  -0.558  0.00  0.00     0.001 C 
ATOM     27  C   UNK d   0      23.714 -18.951  -0.395  0.00  0.00     0.007 C 
ENDBRANCH  21  22
ENDBRANCH   1  21
BRANCH   1  28
ATOM     28  N   UNK d   0      27.393 -15.568  -0.269  0.00  0.00    -0.290 N 
ATOM     29  C   UNK d   0      27.230 -14.530   0.652  0.00  0.00     0.260 C 
ATOM     30  O   UNK d   0      26.259 -13.760   0.684  0.00  0.00    -0.267 OA
ATOM     31  C   UNK d   0      28.317 -14.278   1.622  0.00  0.00     0.058 C 
ATOM     32  C   UNK d   0      28.100 -13.717   2.878  0.00  0.00     0.019 C 
ATOM     33  C   UNK d   0      29.600 -14.560   1.170  0.00  0.00     0.047 C 
ATOM     34  C   UNK d   0      29.198 -13.337   3.648  0.00  0.00     0.001 C 
ATOM     35  C   UNK d   0      30.494 -13.518   3.154  0.00  0.00     0.002 C 
ATOM     36  C   UNK d   0      30.696 -14.105   1.901  0.00  0.00     0.030 C 
ATOM     37  N   UNK d   0      29.738 -15.402   0.090  0.00  0.00    -0.346 N 
ATOM     38  C   UNK d   0      28.645 -16.329  -0.132  0.00  0.00     0.332 C 
ATOM     39  H   UNK d   0      30.217 -15.116  -0.754  0.00  0.00     0.164 HD
BRANCH  38  40
ATOM     40  O   UNK d   0      29.100 -17.001  -1.260  0.00  0.00    -0.359 OA
ATOM     41  H   UNK d   0      29.629 -16.412  -1.828  0.00  0.00     0.214 HD
ENDBRANCH  38  40
ENDBRANCH   1  28
TORSDOF 9
ENDMDL
MODEL 8
REMARK VINA RESULT:    -7.466      3.011      6.046
REMARK INTER + INTRA:         -15.295
REMARK INTER:                 -10.151
REMARK INTRA:                  -5.144
REMARK CONF_INDEPENDENT:        2.685
REMARK UNBOUND:                -5.144
REMARK  9 active torsions:
REMARK  status: ('A' for Active; 'I' for Inactive)
REMARK    1  A    between atoms: CA_4  and  C_2 
REMARK    2  A    between atoms: CA_4  and  N_15 
REMARK    3  A    between atoms: CA_4  and  CB_5 
REMARK    4  A    between atoms: CB_5  and  CG_6 
REMARK       I    between atoms: N_15  and  C_16 
REMARK    5  A    between atoms: C_16  and  C_18 
REMARK    6  A    between atoms: C_18  and  C_19 
REMARK    7  A    between atoms: C_18  and  N_26 
REMARK    8  A    between atoms: C_19  and  C_20 
REMARK    9  A    between atoms: C_36  and  O_37 
ROOT
ATOM      1  C   UNK d   0      29.434 -13.296   0.428  0.00  0.00     0.188 C 
ENDROOT
BRANCH   1   2
ATOM      2  C   UNK d   0      29.369 -12.199  -0.643  0.00  0.00     0.241 C 
ATOM      3  N   TRP d   1      28.310 -11.314  -0.650  0.00  0.00    -0.344 N 
ATOM      4  H   TRP d   1      27.537 -11.369   0.006  0.00  0.00     0.163 HD
ATOM      5  O   UNK d   0      30.191 -12.226  -1.572  0.00  0.00    -0.271 OA
BRANCH   3   6
ATOM      6  CA  TRP d   1      28.315 -10.200  -1.628  0.00  0.00     0.190 C 
BRANCH   6   7
ATOM      7  CB  TRP d   1      28.372 -10.652  -3.102  0.00  0.00     0.077 C 
BRANCH   7   8
ATOM      8  CG  TRP d   1      27.234 -11.501  -3.570  0.00  0.00    -0.028 C 
ATOM      9  CD1 TRP d   1      25.930 -11.092  -3.759  0.00  0.00     0.096 C 
ATOM     10  NE1 TRP d   1      25.155 -12.196  -3.912  0.00  0.00    -0.365 N 
ATOM     11  CE2 TRP d   1      25.946 -13.308  -4.037  0.00  0.00     0.042 A 
ATOM     12  HE1 TRP d   1      24.146 -12.180  -3.895  0.00  0.00     0.165 HD
ATOM     13  CZ2 TRP d   1      25.588 -14.636  -4.264  0.00  0.00     0.030 A 
ATOM     14  CD2 TRP d   1      27.268 -12.900  -3.847  0.00  0.00    -0.002 A 
ATOM     15  CH2 TRP d   1      26.619 -15.575  -4.322  0.00  0.00     0.002 A 
ATOM     16  CZ3 TRP d   1      27.952 -15.200  -4.150  0.00  0.00     0.001 A 
ATOM     17  CE3 TRP d   1      28.292 -13.867  -3.903  0.00  0.00     0.014 A 
ENDBRANCH   7   8
ENDBRANCH   6   7
BRANCH   6  18
ATOM     18  C   TRP d   1      27.135  -9.254  -1.242  0.00  0.00     0.197 C 
ATOM     19  O   TRP d   1      26.671  -9.438  -0.078  0.00  0.00    -0.646 OA
ATOM     20  OXT TRP d   1      26.720  -8.481  -2.151  0.00  0.00    -0.646 OA
ENDBRANCH   6  18
ENDBRANCH   3   6
ENDBRANCH   1   2
BRANCH   1  21
ATOM     21  C   UNK d   0      29.061 -12.554   1.783  0.00  0.00     0.073 C 
BRANCH  21  22
ATOM     22  C   UNK d   0      28.764 -13.407   3.015  0.00  0.00    -0.056 C 
ATOM     23  C   UNK d   0      29.754 -14.089   3.724  0.00  0.00     0.007 C 
ATOM     24  C   UNK d   0      29.422 -14.822   4.875  0.00  0.00     0.001 C 
ATOM     25  C   UNK d   0      28.155 -14.720   5.436  0.00  0.00     0.000 C 
ATOM     26  C   UNK d   0      27.170 -14.075   4.724  0.00  0.00     0.001 C 
ATOM     27  C   UNK d   0      27.451 -13.572   3.458  0.00  0.00     0.007 C 
ENDBRANCH  21  22
ENDBRANCH   1  21
BRANCH   1  28
ATOM     28  N   UNK d   0      28.563 -14.531   0.146  0.00  0.00    -0.290 N 
ATOM     29  C   UNK d   0      27.190 -14.342  -0.031  0.00  0.00     0.260 C 
ATOM     30  O   UNK d   0      26.583 -13.291   0.221  0.00  0.00    -0.267 OA
ATOM     31  C   UNK d   0      26.378 -15.491  -0.487  0.00  0.00     0.058 C 
ATOM     32  C   UNK d   0      25.199 -15.347  -1.214  0.00  0.00     0.019 C 
ATOM     33  C   UNK d   0      26.821 -16.740  -0.070  0.00  0.00     0.047 C 
ATOM     34  C   UNK d   0      24.400 -16.468  -1.435  0.00  0.00     0.001 C 
ATOM     35  C   UNK d   0      24.785 -17.712  -0.926  0.00  0.00     0.002 C 
ATOM     36  C   UNK d   0      25.984 -17.845  -0.218  0.00  0.00     0.030 C 
ATOM     37  N   UNK d   0      28.129 -16.862   0.341  0.00  0.00    -0.346 N 
ATOM     38  C   UNK d   0      29.052 -15.877  -0.190  0.00  0.00     0.332 C 
ATOM     39  H   UNK d   0      28.370 -17.202   1.262  0.00  0.00     0.164 HD
BRANCH  38  40
ATOM     40  O   UNK d   0      30.238 -16.285   0.411  0.00  0.00    -0.359 OA
ATOM     41  H   UNK d   0      30.101 -16.483   1.355  0.00  0.00     0.214 HD
ENDBRANCH  38  40
ENDBRANCH   1  28
TORSDOF 9
ENDMDL
MODEL 9
REMARK VINA RESULT:    -7.345      3.315      6.165
REMARK INTER + INTRA:         -14.779
REMARK INTER:                 -10.030
REMARK INTRA:                  -4.749
REMARK CONF_INDEPENDENT:        2.685
REMARK UNBOUND:                -4.749
REMARK  9 active torsions:
REMARK  status: ('A' for Active; 'I' for Inactive)
REMARK    1  A    between atoms: CA_4  and  C_2 
REMARK    2  A    between atoms: CA_4  and  N_15 
REMARK    3  A    between atoms: CA_4  and  CB_5 
REMARK    4  A    between atoms: CB_5  and  CG_6 
REMARK       I    between atoms: N_15  and  C_16 
REMARK    5  A    between atoms: C_16  and  C_18 
REMARK    6  A    between atoms: C_18  and  C_19 
REMARK    7  A    between atoms: C_18  and  N_26 
REMARK    8  A    between atoms: C_19  and  C_20 
REMARK    9  A    between atoms: C_36  and  O_37 
ROOT
ATOM      1  C   UNK d   0      27.035 -14.441  -3.812  0.00  0.00     0.188 C 
ENDROOT
BRANCH   1   2
ATOM      2  C   UNK d   0      27.781 -15.047  -5.008  0.00  0.00     0.241 C 
ATOM      3  N   TRP d   1      29.033 -15.599  -4.822  0.00  0.00    -0.344 N 
ATOM      4  H   TRP d   1      29.512 -15.597  -3.928  0.00  0.00     0.163 HD
ATOM      5  O   UNK d   0      27.309 -14.891  -6.145  0.00  0.00    -0.271 OA
BRANCH   3   6
ATOM      6  CA  TRP d   1      29.695 -16.271  -5.967  0.00  0.00     0.190 C 
BRANCH   6   7
ATOM      7  CB  TRP d   1      30.474 -15.317  -6.895  0.00  0.00     0.077 C 
BRANCH   7   8
ATOM      8  CG  TRP d   1      30.358 -13.859  -6.582  0.00  0.00    -0.028 C 
ATOM      9  CD1 TRP d   1      31.001 -13.187  -5.563  0.00  0.00     0.096 C 
ATOM     10  NE1 TRP d   1      30.428 -11.962  -5.434  0.00  0.00    -0.365 N 
ATOM     11  CE2 TRP d   1      29.568 -11.736  -6.477  0.00  0.00     0.042 A 
ATOM     12  HE1 TRP d   1      30.599 -11.343  -4.656  0.00  0.00     0.165 HD
ATOM     13  CZ2 TRP d   1      28.812 -10.605  -6.779  0.00  0.00     0.030 A 
ATOM     14  CD2 TRP d   1      29.517 -12.909  -7.233  0.00  0.00    -0.002 A 
ATOM     15  CH2 TRP d   1      27.993 -10.667  -7.908  0.00  0.00     0.002 A 
ATOM     16  CZ3 TRP d   1      27.928 -11.817  -8.694  0.00  0.00     0.001 A 
ATOM     17  CE3 TRP d   1      28.677 -12.950  -8.364  0.00  0.00     0.014 A 
ENDBRANCH   7   8
ENDBRANCH   6   7
BRANCH   6  18
ATOM     18  C   TRP d   1      30.500 -17.473  -5.380  0.00  0.00     0.197 C 
ATOM     19  O   TRP d   1      30.580 -17.488  -4.116  0.00  0.00    -0.646 OA
ATOM     20  OXT TRP d   1      31.051 -18.237  -6.222  0.00  0.00    -0.646 OA
ENDBRANCH   6  18
ENDBRANCH   3   6
ENDBRANCH   1   2
BRANCH   1  21
ATOM     21  C   UNK d   0      25.785 -13.699  -4.455  0.00  0.00     0.073 C 
BRANCH  21  22
ATOM     22  C   UNK d   0      25.822 -12.175  -4.552  0.00  0.00    -0.056 C 
ATOM     23  C   UNK d   0      25.579 -11.482  -5.738  0.00  0.00     0.007 C 
ATOM     24  C   UNK d   0      25.585 -10.078  -5.751  0.00  0.00     0.001 C 
ATOM     25  C   UNK d   0      25.633  -9.361  -4.562  0.00  0.00     0.000 C 
ATOM     26  C   UNK d   0      25.904 -10.038  -3.396  0.00  0.00     0.001 C 
ATOM     27  C   UNK d   0      26.152 -11.406  -3.434  0.00  0.00     0.007 C 
ENDBRANCH  21  22
ENDBRANCH   1  21
BRANCH   1  28
ATOM     28  N   UNK d   0      26.653 -15.442  -2.709  0.00  0.00    -0.290 N 
ATOM     29  C   UNK d   0      25.301 -15.584  -2.388  0.00  0.00     0.260 C 
ATOM     30  O   UNK d   0      24.400 -14.825  -2.774  0.00  0.00    -0.267 OA
ATOM     31  C   UNK d   0      24.910 -16.674  -1.468  0.00  0.00     0.058 C 
ATOM     32  C   UNK d   0      23.655 -17.277  -1.494  0.00  0.00     0.019 C 
ATOM     33  C   UNK d   0      25.853 -17.011  -0.505  0.00  0.00     0.047 C 
ATOM     34  C   UNK d   0      23.307 -18.157  -0.471  0.00  0.00     0.001 C 
ATOM     35  C   UNK d   0      24.211 -18.420   0.563  0.00  0.00     0.002 C 
ATOM     36  C   UNK d   0      25.477 -17.825   0.562  0.00  0.00     0.030 C 
ATOM     37  N   UNK d   0      27.162 -16.644  -0.721  0.00  0.00    -0.346 N 
ATOM     38  C   UNK d   0      27.543 -16.446  -2.106  0.00  0.00     0.332 C 
ATOM     39  H   UNK d   0      27.670 -16.065  -0.065  0.00  0.00     0.164 HD
BRANCH  38  40
ATOM     40  O   UNK d   0      28.880 -16.097  -1.959  0.00  0.00    -0.359 OA
ATOM     41  H   UNK d   0      29.449 -16.643  -2.531  0.00  0.00     0.214 HD
ENDBRANCH  38  40
ENDBRANCH   1  28
TORSDOF 9
ENDMDL
