MODEL 1
REMARK VINA RESULT:    -8.085      0.000      0.000
REMARK INTER + INTRA:         -16.058
REMARK INTER:                 -11.665
REMARK INTRA:                  -4.393
REMARK CONF_INDEPENDENT:        3.580
REMARK UNBOUND:                -4.393
REMARK  12 active torsions:
REMARK  status: ('A' for Active; 'I' for Inactive)
REMARK    1  A    between atoms: O_2  and  C_3 
REMARK    2  A    between atoms: C_3  and  C_5 
REMARK    3  A    between atoms: C_9  and  C_10 
REMARK    4  A    between atoms: N_11  and  C_10 
REMARK    5  A    between atoms: N_11  and  C_16 
REMARK    6  A    between atoms: N_11  and  C_12 
REMARK    7  A    between atoms: C_12  and  C_13 
REMARK    8  A    between atoms: C_17  and  C_16 
REMARK    9  A    between atoms: C_17  and  C_19 
REMARK   10  A    between atoms: C_17  and  O_18 
REMARK   11  A    between atoms: C_19  and  O_20 
REMARK   12  A    between atoms: O_20  and  C_21 
ROOT
ATOM      1  N   UNL d   1      31.689 -19.299  -0.156  0.00  0.00    -0.062 N 
ATOM      2  H   UNL d   1      30.884 -19.240   0.480  0.00  0.00     0.280 HD
ENDROOT
BRANCH   1   3
ATOM      3  C   UNL d   1      31.716 -20.768  -0.515  0.00  0.00     0.269 C 
BRANCH   3   4
ATOM      4  C   UNL d   1      30.787 -21.711   0.201  0.00  0.00     0.168 C 
BRANCH   4   5
ATOM      5  C   UNL d   1      31.430 -21.977   1.536  0.00  0.00     0.209 C 
BRANCH   5   6
ATOM      6  O   UNL d   1      31.570 -20.785   2.260  0.00  0.00    -0.348 OA
BRANCH   6   7
ATOM      7  C   UNL d   1      31.892 -21.036   3.565  0.00  0.00     0.074 C 
ATOM      8  C   UNL d   1      30.794 -21.219   4.405  0.00  0.00     0.037 C 
ATOM      9  C   UNL d   1      31.004 -21.600   5.723  0.00  0.00     0.003 C 
ATOM     10  C   UNL d   1      32.281 -21.520   6.265  0.00  0.00     0.001 C 
ATOM     11  C   UNL d   1      33.367 -21.217   5.451  0.00  0.00     0.009 C 
ATOM     12  C   UNL d   1      33.202 -21.075   4.076  0.00  0.00    -0.029 C 
ATOM     13  C   UNL d   1      34.452 -21.009   3.248  0.00  0.00     0.051 C 
ENDBRANCH   6   7
ENDBRANCH   5   6
ENDBRANCH   4   5
BRANCH   4  14
ATOM     14  O   UNL d   1      29.538 -21.196   0.604  0.00  0.00    -0.392 OA
ATOM     15  H   UNL d   1      29.626 -20.844   1.519  0.00  0.00     0.210 HD
ENDBRANCH   4  14
ENDBRANCH   3   4
ENDBRANCH   1   3
BRANCH   1  16
ATOM     16  C   UNL d   1      32.838 -18.640   0.600  0.00  0.00     0.239 C 
BRANCH  16  17
ATOM     17  C   UNL d   1      32.614 -17.675   1.769  0.00  0.00     0.003 C 
ATOM     18  C   UNL d   1      33.818 -17.291   2.616  0.00  0.00     0.011 C 
ATOM     19  C   UNL d   1      31.889 -16.415   1.347  0.00  0.00     0.011 C 
ENDBRANCH  16  17
ENDBRANCH   1  16
BRANCH   1  20
ATOM     20  C   UNL d   1      31.280 -18.416  -1.399  0.00  0.00     0.313 C 
BRANCH  20  21
ATOM     21  C   UNL d   1      29.873 -17.817  -1.289  0.00  0.00     0.134 C 
ATOM     22  N   UNL d   1      29.604 -16.829  -2.063  0.00  0.00    -0.225 NA
ATOM     23  C   UNL d   1      28.357 -16.373  -2.139  0.00  0.00     0.116 A 
ATOM     24  S   UNL d   1      27.916 -15.266  -3.340  0.00  0.00    -0.063 SA
ATOM     25  C   UNL d   1      27.338 -16.769  -1.331  0.00  0.00     0.075 A 
ATOM     26  C   UNL d   1      26.344 -15.143  -2.704  0.00  0.00     0.089 A 
ATOM     27  C   UNL d   1      26.158 -16.009  -1.626  0.00  0.00    -0.020 A 
ATOM     28  C   UNL d   1      24.881 -16.161  -0.893  0.00  0.00     0.051 C 
ATOM     29  C   UNL d   1      27.657 -17.818  -0.367  0.00  0.00     0.260 C 
ATOM     30  N   UNL d   1      28.942 -18.337  -0.447  0.00  0.00    -0.309 N 
ATOM     31  O   UNL d   1      26.873 -18.250   0.479  0.00  0.00    -0.267 OA
ATOM     32  H   UNL d   1      29.159 -19.055   0.230  0.00  0.00     0.170 HD
BRANCH  26  33
ATOM     33  C   UNL d   1      25.441 -14.215  -3.366  0.00  0.00     0.300 C 
ATOM     34  O   UNL d   1      24.782 -14.451  -4.360  0.00  0.00    -0.259 OA
BRANCH  33  35
ATOM     35  O   UNL d   1      25.475 -13.009  -2.723  0.00  0.00    -0.322 OA
ATOM     36  C   UNL d   1      26.608 -12.855  -1.868  0.00  0.00     0.213 C 
ENDBRANCH  33  35
ENDBRANCH  26  33
ENDBRANCH  20  21
ENDBRANCH   1  20
TORSDOF 12
ENDMDL
MODEL 2
REMARK VINA RESULT:    -7.853      1.787      3.171
REMARK INTER + INTRA:         -15.626
REMARK INTER:                 -11.433
REMARK INTRA:                  -4.193
REMARK CONF_INDEPENDENT:        3.580
REMARK UNBOUND:                -4.193
REMARK  12 active torsions:
REMARK  status: ('A' for Active; 'I' for Inactive)
REMARK    1  A    between atoms: O_2  and  C_3 
REMARK    2  A    between atoms: C_3  and  C_5 
REMARK    3  A    between atoms: C_9  and  C_10 
REMARK    4  A    between atoms: N_11  and  C_10 
REMARK    5  A    between atoms: N_11  and  C_16 
REMARK    6  A    between atoms: N_11  and  C_12 
REMARK    7  A    between atoms: C_12  and  C_13 
REMARK    8  A    between atoms: C_17  and  C_16 
REMARK    9  A    between atoms: C_17  and  C_19 
REMARK   10  A    between atoms: C_17  and  O_18 
REMARK   11  A    between atoms: C_19  and  O_20 
REMARK   12  A    between atoms: O_20  and  C_21 
ROOT
ATOM      1  N   UNL d   1      31.905 -18.225   0.640  0.00  0.00    -0.062 N 
ATOM      2  H   UNL d   1      30.968 -18.594   0.845  0.00  0.00     0.280 HD
ENDROOT
BRANCH   1   3
ATOM      3  C   UNL d   1      32.675 -19.474   0.269  0.00  0.00     0.269 C 
BRANCH   3   4
ATOM      4  C   UNL d   1      31.912 -20.719  -0.094  0.00  0.00     0.168 C 
BRANCH   4   5
ATOM      5  C   UNL d   1      32.082 -21.653   1.075  0.00  0.00     0.209 C 
BRANCH   5   6
ATOM      6  O   UNL d   1      31.111 -21.398   2.053  0.00  0.00    -0.348 OA
BRANCH   6   7
ATOM      7  C   UNL d   1      31.680 -21.266   3.289  0.00  0.00     0.074 C 
ATOM      8  C   UNL d   1      33.003 -20.823   3.272  0.00  0.00     0.037 C 
ATOM      9  C   UNL d   1      33.639 -20.537   4.471  0.00  0.00     0.003 C 
ATOM     10  C   UNL d   1      33.069 -20.957   5.667  0.00  0.00     0.001 C 
ATOM     11  C   UNL d   1      31.795 -21.514   5.675  0.00  0.00     0.009 C 
ATOM     12  C   UNL d   1      31.044 -21.580   4.504  0.00  0.00    -0.029 C 
ATOM     13  C   UNL d   1      29.597 -21.950   4.649  0.00  0.00     0.051 C 
ENDBRANCH   6   7
ENDBRANCH   5   6
ENDBRANCH   4   5
BRANCH   4  14
ATOM     14  O   UNL d   1      30.506 -20.616  -0.149  0.00  0.00    -0.392 OA
ATOM     15  H   UNL d   1      30.203 -20.062   0.605  0.00  0.00     0.210 HD
ENDBRANCH   4  14
ENDBRANCH   3   4
ENDBRANCH   1   3
BRANCH   1  16
ATOM     16  C   UNL d   1      32.277 -17.391   1.861  0.00  0.00     0.239 C 
BRANCH  16  17
ATOM     17  C   UNL d   1      32.412 -15.866   1.813  0.00  0.00     0.003 C 
ATOM     18  C   UNL d   1      31.533 -15.043   2.743  0.00  0.00     0.011 C 
ATOM     19  C   UNL d   1      33.848 -15.408   1.962  0.00  0.00     0.011 C 
ENDBRANCH  16  17
ENDBRANCH   1  16
BRANCH   1  20
ATOM     20  C   UNL d   1      31.699 -17.289  -0.614  0.00  0.00     0.313 C 
BRANCH  20  21
ATOM     21  C   UNL d   1      30.226 -17.056  -0.970  0.00  0.00     0.134 C 
ATOM     22  N   UNL d   1      29.376 -17.881  -0.476  0.00  0.00    -0.225 NA
ATOM     23  C   UNL d   1      28.074 -17.641  -0.606  0.00  0.00     0.116 A 
ATOM     24  S   UNL d   1      26.940 -18.550   0.261  0.00  0.00    -0.063 SA
ATOM     25  C   UNL d   1      27.543 -16.652  -1.372  0.00  0.00     0.075 A 
ATOM     26  C   UNL d   1      25.653 -17.744  -0.504  0.00  0.00     0.089 A 
ATOM     27  C   UNL d   1      26.111 -16.739  -1.357  0.00  0.00    -0.020 A 
ATOM     28  C   UNL d   1      25.226 -15.837  -2.129  0.00  0.00     0.051 C 
ATOM     29  C   UNL d   1      28.500 -15.771  -2.032  0.00  0.00     0.260 C 
ATOM     30  N   UNL d   1      29.836 -16.002  -1.733  0.00  0.00    -0.309 N 
ATOM     31  O   UNL d   1      28.194 -14.865  -2.808  0.00  0.00    -0.267 OA
ATOM     32  H   UNL d   1      30.494 -15.395  -2.201  0.00  0.00     0.170 HD
BRANCH  26  33
ATOM     33  C   UNL d   1      24.309 -18.176  -0.152  0.00  0.00     0.300 C 
ATOM     34  O   UNL d   1      23.866 -18.270   0.975  0.00  0.00    -0.259 OA
BRANCH  33  35
ATOM     35  O   UNL d   1      23.623 -18.504  -1.288  0.00  0.00    -0.322 OA
ATOM     36  C   UNL d   1      22.205 -18.433  -1.134  0.00  0.00     0.213 C 
ENDBRANCH  33  35
ENDBRANCH  26  33
ENDBRANCH  20  21
ENDBRANCH   1  20
TORSDOF 12
ENDMDL
MODEL 3
REMARK VINA RESULT:    -7.538      2.958      5.846
REMARK INTER + INTRA:         -15.356
REMARK INTER:                 -11.118
REMARK INTRA:                  -4.239
REMARK CONF_INDEPENDENT:        3.580
REMARK UNBOUND:                -4.239
REMARK  12 active torsions:
REMARK  status: ('A' for Active; 'I' for Inactive)
REMARK    1  A    between atoms: O_2  and  C_3 
REMARK    2  A    between atoms: C_3  and  C_5 
REMARK    3  A    between atoms: C_9  and  C_10 
REMARK    4  A    between atoms: N_11  and  C_10 
REMARK    5  A    between atoms: N_11  and  C_16 
REMARK    6  A    between atoms: N_11  and  C_12 
REMARK    7  A    between atoms: C_12  and  C_13 
REMARK    8  A    between atoms: C_17  and  C_16 
REMARK    9  A    between atoms: C_17  and  C_19 
REMARK   10  A    between atoms: C_17  and  O_18 
REMARK   11  A    between atoms: C_19  and  O_20 
REMARK   12  A    between atoms: O_20  and  C_21 
ROOT
ATOM      1  N   UNL d   1      31.525 -16.433   1.221  0.00  0.00    -0.062 N 
ATOM      2  H   UNL d   1      31.161 -16.886   2.070  0.00  0.00     0.280 HD
ENDROOT
BRANCH   1   3
ATOM      3  C   UNL d   1      31.234 -17.460   0.150  0.00  0.00     0.269 C 
BRANCH   3   4
ATOM      4  C   UNL d   1      31.693 -17.195  -1.259  0.00  0.00     0.168 C 
BRANCH   4   5
ATOM      5  C   UNL d   1      30.729 -17.935  -2.146  0.00  0.00     0.209 C 
BRANCH   5   6
ATOM      6  O   UNL d   1      30.307 -17.117  -3.204  0.00  0.00    -0.348 OA
BRANCH   6   7
ATOM      7  C   UNL d   1      30.435 -17.760  -4.404  0.00  0.00     0.074 C 
ATOM      8  C   UNL d   1      30.759 -19.112  -4.303  0.00  0.00     0.037 C 
ATOM      9  C   UNL d   1      30.794 -19.890  -5.452  0.00  0.00     0.003 C 
ATOM     10  C   UNL d   1      30.788 -19.273  -6.698  0.00  0.00     0.001 C 
ATOM     11  C   UNL d   1      30.586 -17.901  -6.797  0.00  0.00     0.009 C 
ATOM     12  C   UNL d   1      30.302 -17.145  -5.662  0.00  0.00    -0.029 C 
ATOM     13  C   UNL d   1      29.843 -15.734  -5.888  0.00  0.00     0.051 C 
ENDBRANCH   6   7
ENDBRANCH   5   6
ENDBRANCH   4   5
BRANCH   4  14
ATOM     14  O   UNL d   1      31.545 -15.879  -1.744  0.00  0.00    -0.392 OA
ATOM     15  H   UNL d   1      30.651 -15.793  -2.145  0.00  0.00     0.210 HD
ENDBRANCH   4  14
ENDBRANCH   3   4
ENDBRANCH   1   3
BRANCH   1  16
ATOM     16  C   UNL d   1      32.952 -16.026   1.573  0.00  0.00     0.239 C 
BRANCH  16  17
ATOM     17  C   UNL d   1      34.026 -17.041   1.979  0.00  0.00     0.003 C 
ATOM     18  C   UNL d   1      35.226 -16.533   2.764  0.00  0.00     0.011 C 
ATOM     19  C   UNL d   1      33.443 -18.241   2.697  0.00  0.00     0.011 C 
ENDBRANCH  16  17
ENDBRANCH   1  16
BRANCH   1  20
ATOM     20  C   UNL d   1      30.625 -15.149   1.039  0.00  0.00     0.313 C 
BRANCH  20  21
ATOM     21  C   UNL d   1      29.320 -15.417   0.280  0.00  0.00     0.134 C 
ATOM     22  N   UNL d   1      29.196 -14.860  -0.870  0.00  0.00    -0.225 NA
ATOM     23  C   UNL d   1      28.169 -15.184  -1.650  0.00  0.00     0.116 A 
ATOM     24  S   UNL d   1      28.124 -14.684  -3.266  0.00  0.00    -0.063 SA
ATOM     25  C   UNL d   1      27.120 -15.958  -1.266  0.00  0.00     0.075 A 
ATOM     26  C   UNL d   1      26.578 -15.361  -3.473  0.00  0.00     0.089 A 
ATOM     27  C   UNL d   1      26.151 -16.025  -2.321  0.00  0.00    -0.020 A 
ATOM     28  C   UNL d   1      24.865 -16.751  -2.210  0.00  0.00     0.051 C 
ATOM     29  C   UNL d   1      27.192 -16.510   0.083  0.00  0.00     0.260 C 
ATOM     30  N   UNL d   1      28.362 -16.240   0.781  0.00  0.00    -0.309 N 
ATOM     31  O   UNL d   1      26.304 -17.179   0.612  0.00  0.00    -0.267 OA
ATOM     32  H   UNL d   1      28.401 -16.616   1.717  0.00  0.00     0.170 HD
BRANCH  26  33
ATOM     33  C   UNL d   1      25.956 -15.188  -4.776  0.00  0.00     0.300 C 
ATOM     34  O   UNL d   1      26.410 -15.571  -5.836  0.00  0.00    -0.259 OA
BRANCH  33  35
ATOM     35  O   UNL d   1      24.792 -14.485  -4.637  0.00  0.00    -0.322 OA
ATOM     36  C   UNL d   1      24.916 -13.347  -3.782  0.00  0.00     0.213 C 
ENDBRANCH  33  35
ENDBRANCH  26  33
ENDBRANCH  20  21
ENDBRANCH   1  20
TORSDOF 12
ENDMDL
MODEL 4
REMARK VINA RESULT:    -7.226      3.927      6.034
REMARK INTER + INTRA:         -15.969
REMARK INTER:                 -10.806
REMARK INTRA:                  -5.163
REMARK CONF_INDEPENDENT:        3.580
REMARK UNBOUND:                -5.163
REMARK  12 active torsions:
REMARK  status: ('A' for Active; 'I' for Inactive)
REMARK    1  A    between atoms: O_2  and  C_3 
REMARK    2  A    between atoms: C_3  and  C_5 
REMARK    3  A    between atoms: C_9  and  C_10 
REMARK    4  A    between atoms: N_11  and  C_10 
REMARK    5  A    between atoms: N_11  and  C_16 
REMARK    6  A    between atoms: N_11  and  C_12 
REMARK    7  A    between atoms: C_12  and  C_13 
REMARK    8  A    between atoms: C_17  and  C_16 
REMARK    9  A    between atoms: C_17  and  C_19 
REMARK   10  A    between atoms: C_17  and  O_18 
REMARK   11  A    between atoms: C_19  and  O_20 
REMARK   12  A    between atoms: O_20  and  C_21 
ROOT
ATOM      1  N   UNL d   1      30.148 -14.449   2.974  0.00  0.00    -0.062 N 
ATOM      2  H   UNL d   1      30.027 -15.349   2.491  0.00  0.00     0.280 HD
ENDROOT
BRANCH   1   3
ATOM      3  C   UNL d   1      31.487 -13.975   2.455  0.00  0.00     0.269 C 
BRANCH   3   4
ATOM      4  C   UNL d   1      31.751 -14.017   0.974  0.00  0.00     0.168 C 
BRANCH   4   5
ATOM      5  C   UNL d   1      31.545 -15.451   0.566  0.00  0.00     0.209 C 
BRANCH   5   6
ATOM      6  O   UNL d   1      30.202 -15.680   0.236  0.00  0.00    -0.348 OA
BRANCH   6   7
ATOM      7  C   UNL d   1      30.068 -15.994  -1.088  0.00  0.00     0.074 C 
ATOM      8  C   UNL d   1      29.612 -14.946  -1.887  0.00  0.00     0.037 C 
ATOM      9  C   UNL d   1      29.555 -15.115  -3.263  0.00  0.00     0.003 C 
ATOM     10  C   UNL d   1      29.676 -16.390  -3.803  0.00  0.00     0.001 C 
ATOM     11  C   UNL d   1      30.012 -17.465  -2.986  0.00  0.00     0.009 C 
ATOM     12  C   UNL d   1      30.314 -17.264  -1.642  0.00  0.00    -0.029 C 
ATOM     13  C   UNL d   1      30.916 -18.424  -0.904  0.00  0.00     0.051 C 
ENDBRANCH   6   7
ENDBRANCH   5   6
ENDBRANCH   4   5
BRANCH   4  14
ATOM     14  O   UNL d   1      30.820 -13.366   0.138  0.00  0.00    -0.392 OA
ATOM     15  H   UNL d   1      29.930 -13.754   0.301  0.00  0.00     0.210 HD
ENDBRANCH   4  14
ENDBRANCH   3   4
ENDBRANCH   1   3
BRANCH   1  16
ATOM     16  C   UNL d   1      29.929 -14.762   4.450  0.00  0.00     0.239 C 
BRANCH  16  17
ATOM     17  C   UNL d   1      28.870 -14.051   5.300  0.00  0.00     0.003 C 
ATOM     18  C   UNL d   1      27.413 -14.442   5.097  0.00  0.00     0.011 C 
ATOM     19  C   UNL d   1      29.190 -14.099   6.780  0.00  0.00     0.011 C 
ENDBRANCH  16  17
ENDBRANCH   1  16
BRANCH   1  20
ATOM     20  C   UNL d   1      28.973 -13.545   2.431  0.00  0.00     0.313 C 
BRANCH  20  21
ATOM     21  C   UNL d   1      28.063 -14.261   1.425  0.00  0.00     0.134 C 
ATOM     22  N   UNL d   1      27.613 -13.556   0.452  0.00  0.00    -0.225 NA
ATOM     23  C   UNL d   1      26.960 -14.150  -0.543  0.00  0.00     0.116 A 
ATOM     24  S   UNL d   1      26.598 -13.303  -1.963  0.00  0.00    -0.063 SA
ATOM     25  C   UNL d   1      26.577 -15.454  -0.547  0.00  0.00     0.075 A 
ATOM     26  C   UNL d   1      25.745 -14.636  -2.586  0.00  0.00     0.089 A 
ATOM     27  C   UNL d   1      25.814 -15.734  -1.728  0.00  0.00    -0.020 A 
ATOM     28  C   UNL d   1      25.206 -17.053  -2.019  0.00  0.00     0.051 C 
ATOM     29  C   UNL d   1      26.986 -16.244   0.610  0.00  0.00     0.260 C 
ATOM     30  N   UNL d   1      27.784 -15.586   1.535  0.00  0.00    -0.309 N 
ATOM     31  O   UNL d   1      26.674 -17.420   0.797  0.00  0.00    -0.267 OA
ATOM     32  H   UNL d   1      28.056 -16.135   2.338  0.00  0.00     0.170 HD
BRANCH  26  33
ATOM     33  C   UNL d   1      25.116 -14.460  -3.885  0.00  0.00     0.300 C 
ATOM     34  O   UNL d   1      24.312 -13.596  -4.175  0.00  0.00    -0.259 OA
BRANCH  33  35
ATOM     35  O   UNL d   1      25.536 -15.447  -4.732  0.00  0.00    -0.322 OA
ATOM     36  C   UNL d   1      26.788 -15.162  -5.357  0.00  0.00     0.213 C 
ENDBRANCH  33  35
ENDBRANCH  26  33
ENDBRANCH  20  21
ENDBRANCH   1  20
TORSDOF 12
ENDMDL
MODEL 5
REMARK VINA RESULT:    -6.800      4.640      7.435
REMARK INTER + INTRA:         -15.546
REMARK INTER:                 -10.379
REMARK INTRA:                  -5.167
REMARK CONF_INDEPENDENT:        3.580
REMARK UNBOUND:                -5.167
REMARK  12 active torsions:
REMARK  status: ('A' for Active; 'I' for Inactive)
REMARK    1  A    between atoms: O_2  and  C_3 
REMARK    2  A    between atoms: C_3  and  C_5 
REMARK    3  A    between atoms: C_9  and  C_10 
REMARK    4  A    between atoms: N_11  and  C_10 
REMARK    5  A    between atoms: N_11  and  C_16 
REMARK    6  A    between atoms: N_11  and  C_12 
REMARK    7  A    between atoms: C_12  and  C_13 
REMARK    8  A    between atoms: C_17  and  C_16 
REMARK    9  A    between atoms: C_17  and  C_19 
REMARK   10  A    between atoms: C_17  and  O_18 
REMARK   11  A    between atoms: C_19  and  O_20 
REMARK   12  A    between atoms: O_20  and  C_21 
ROOT
ATOM      1  N   UNL d   1      29.851 -15.524   1.106  0.00  0.00    -0.062 N 
ATOM      2  H   UNL d   1      30.030 -15.950   2.025  0.00  0.00     0.280 HD
ENDROOT
BRANCH   1   3
ATOM      3  C   UNL d   1      30.215 -16.640   0.151  0.00  0.00     0.269 C 
BRANCH   3   4
ATOM      4  C   UNL d   1      30.217 -16.361  -1.328  0.00  0.00     0.168 C 
BRANCH   4   5
ATOM      5  C   UNL d   1      28.916 -16.913  -1.846  0.00  0.00     0.209 C 
BRANCH   5   6
ATOM      6  O   UNL d   1      27.958 -15.895  -1.953  0.00  0.00    -0.348 OA
BRANCH   6   7
ATOM      7  C   UNL d   1      26.736 -16.320  -1.511  0.00  0.00     0.074 C 
ATOM      8  C   UNL d   1      26.778 -17.450  -0.695  0.00  0.00     0.037 C 
ATOM      9  C   UNL d   1      25.611 -17.895  -0.091  0.00  0.00     0.003 C 
ATOM     10  C   UNL d   1      24.385 -17.399  -0.519  0.00  0.00     0.001 C 
ATOM     11  C   UNL d   1      24.336 -16.350  -1.429  0.00  0.00     0.009 C 
ATOM     12  C   UNL d   1      25.507 -15.728  -1.856  0.00  0.00    -0.029 C 
ATOM     13  C   UNL d   1      25.352 -14.449  -2.625  0.00  0.00     0.051 C 
ENDBRANCH   6   7
ENDBRANCH   5   6
ENDBRANCH   4   5
BRANCH   4  14
ATOM     14  O   UNL d   1      30.112 -15.012  -1.726  0.00  0.00    -0.392 OA
ATOM     15  H   UNL d   1      29.205 -14.860  -2.076  0.00  0.00     0.210 HD
ENDBRANCH   4  14
ENDBRANCH   3   4
ENDBRANCH   1   3
BRANCH   1  16
ATOM     16  C   UNL d   1      30.619 -14.207   1.126  0.00  0.00     0.239 C 
BRANCH  16  17
ATOM     17  C   UNL d   1      30.823 -13.386   2.404  0.00  0.00     0.003 C 
ATOM     18  C   UNL d   1      30.504 -11.899   2.355  0.00  0.00     0.011 C 
ATOM     19  C   UNL d   1      30.124 -13.998   3.600  0.00  0.00     0.011 C 
ENDBRANCH  16  17
ENDBRANCH   1  16
BRANCH   1  20
ATOM     20  C   UNL d   1      28.297 -15.246   1.092  0.00  0.00     0.313 C 
BRANCH  20  21
ATOM     21  C   UNL d   1      27.935 -13.810   0.693  0.00  0.00     0.134 C 
ATOM     22  N   UNL d   1      27.407 -13.075   1.603  0.00  0.00    -0.225 NA
ATOM     23  C   UNL d   1      27.224 -11.777   1.376  0.00  0.00     0.116 A 
ATOM     24  S   UNL d   1      26.791 -10.734   2.636  0.00  0.00    -0.063 SA
ATOM     25  C   UNL d   1      27.407 -11.169   0.173  0.00  0.00     0.075 A 
ATOM     26  C   UNL d   1      26.665  -9.424   1.560  0.00  0.00     0.089 A 
ATOM     27  C   UNL d   1      27.029  -9.789   0.263  0.00  0.00    -0.020 A 
ATOM     28  C   UNL d   1      27.064  -8.853  -0.884  0.00  0.00     0.051 C 
ATOM     29  C   UNL d   1      27.903 -12.020  -0.904  0.00  0.00     0.260 C 
ATOM     30  N   UNL d   1      28.201 -13.328  -0.548  0.00  0.00    -0.309 N 
ATOM     31  O   UNL d   1      28.066 -11.648  -2.066  0.00  0.00    -0.267 OA
ATOM     32  H   UNL d   1      28.534 -13.913  -1.301  0.00  0.00     0.170 HD
BRANCH  26  33
ATOM     33  C   UNL d   1      26.244  -8.152   2.125  0.00  0.00     0.300 C 
ATOM     34  O   UNL d   1      26.676  -7.649   3.144  0.00  0.00    -0.259 OA
BRANCH  33  35
ATOM     35  O   UNL d   1      25.250  -7.617   1.355  0.00  0.00    -0.322 OA
ATOM     36  C   UNL d   1      25.525  -6.285   0.920  0.00  0.00     0.213 C 
ENDBRANCH  33  35
ENDBRANCH  26  33
ENDBRANCH  20  21
ENDBRANCH   1  20
TORSDOF 12
ENDMDL
MODEL 6
REMARK VINA RESULT:    -6.726      3.488      5.354
REMARK INTER + INTRA:         -15.434
REMARK INTER:                 -10.306
REMARK INTRA:                  -5.128
REMARK CONF_INDEPENDENT:        3.580
REMARK UNBOUND:                -5.128
REMARK  12 active torsions:
REMARK  status: ('A' for Active; 'I' for Inactive)
REMARK    1  A    between atoms: O_2  and  C_3 
REMARK    2  A    between atoms: C_3  and  C_5 
REMARK    3  A    between atoms: C_9  and  C_10 
REMARK    4  A    between atoms: N_11  and  C_10 
REMARK    5  A    between atoms: N_11  and  C_16 
REMARK    6  A    between atoms: N_11  and  C_12 
REMARK    7  A    between atoms: C_12  and  C_13 
REMARK    8  A    between atoms: C_17  and  C_16 
REMARK    9  A    between atoms: C_17  and  C_19 
REMARK   10  A    between atoms: C_17  and  O_18 
REMARK   11  A    between atoms: C_19  and  O_20 
REMARK   12  A    between atoms: O_20  and  C_21 
ROOT
ATOM      1  N   UNL d   1      29.291 -14.732   3.623  0.00  0.00    -0.062 N 
ATOM      2  H   UNL d   1      29.853 -15.478   3.193  0.00  0.00     0.280 HD
ENDROOT
BRANCH   1   3
ATOM      3  C   UNL d   1      30.110 -13.494   3.328  0.00  0.00     0.269 C 
BRANCH   3   4
ATOM      4  C   UNL d   1      31.315 -13.613   2.434  0.00  0.00     0.168 C 
BRANCH   4   5
ATOM      5  C   UNL d   1      32.010 -14.879   2.858  0.00  0.00     0.209 C 
BRANCH   5   6
ATOM      6  O   UNL d   1      31.614 -15.952   2.047  0.00  0.00    -0.348 OA
BRANCH   6   7
ATOM      7  C   UNL d   1      32.695 -16.562   1.474  0.00  0.00     0.074 C 
ATOM      8  C   UNL d   1      33.311 -15.819   0.468  0.00  0.00     0.037 C 
ATOM      9  C   UNL d   1      34.489 -16.286  -0.098  0.00  0.00     0.003 C 
ATOM     10  C   UNL d   1      34.886 -17.599   0.131  0.00  0.00     0.001 C 
ATOM     11  C   UNL d   1      34.198 -18.386   1.047  0.00  0.00     0.009 C 
ATOM     12  C   UNL d   1      33.162 -17.847   1.806  0.00  0.00    -0.029 C 
ATOM     13  C   UNL d   1      32.653 -18.682   2.944  0.00  0.00     0.051 C 
ENDBRANCH   6   7
ENDBRANCH   5   6
ENDBRANCH   4   5
BRANCH   4  14
ATOM     14  O   UNL d   1      31.077 -13.884   1.070  0.00  0.00    -0.392 OA
ATOM     15  H   UNL d   1      31.241 -14.840   0.908  0.00  0.00     0.210 HD
ENDBRANCH   4  14
ENDBRANCH   3   4
ENDBRANCH   1   3
BRANCH   1  16
ATOM     16  C   UNL d   1      29.039 -15.201   5.051  0.00  0.00     0.239 C 
BRANCH  16  17
ATOM     17  C   UNL d   1      28.571 -14.255   6.163  0.00  0.00     0.003 C 
ATOM     18  C   UNL d   1      29.614 -13.740   7.145  0.00  0.00     0.011 C 
ATOM     19  C   UNL d   1      27.779 -13.081   5.627  0.00  0.00     0.011 C 
ENDBRANCH  16  17
ENDBRANCH   1  16
BRANCH   1  20
ATOM     20  C   UNL d   1      27.941 -14.730   2.805  0.00  0.00     0.313 C 
BRANCH  20  21
ATOM     21  C   UNL d   1      28.115 -15.122   1.333  0.00  0.00     0.134 C 
ATOM     22  N   UNL d   1      27.096 -14.959   0.569  0.00  0.00    -0.225 NA
ATOM     23  C   UNL d   1      27.228 -15.119  -0.745  0.00  0.00     0.116 A 
ATOM     24  S   UNL d   1      25.990 -14.648  -1.799  0.00  0.00    -0.063 SA
ATOM     25  C   UNL d   1      28.340 -15.607  -1.358  0.00  0.00     0.075 A 
ATOM     26  C   UNL d   1      26.849 -15.249  -3.138  0.00  0.00     0.089 A 
ATOM     27  C   UNL d   1      28.104 -15.734  -2.766  0.00  0.00    -0.020 A 
ATOM     28  C   UNL d   1      29.098 -16.280  -3.718  0.00  0.00     0.051 C 
ATOM     29  C   UNL d   1      29.472 -15.903  -0.486  0.00  0.00     0.260 C 
ATOM     30  N   UNL d   1      29.302 -15.576   0.853  0.00  0.00    -0.309 N 
ATOM     31  O   UNL d   1      30.531 -16.405  -0.864  0.00  0.00    -0.267 OA
ATOM     32  H   UNL d   1      30.085 -15.793   1.452  0.00  0.00     0.170 HD
BRANCH  26  33
ATOM     33  C   UNL d   1      26.195 -15.148  -4.433  0.00  0.00     0.300 C 
ATOM     34  O   UNL d   1      26.631 -15.575  -5.484  0.00  0.00    -0.259 OA
BRANCH  33  35
ATOM     35  O   UNL d   1      25.023 -14.457  -4.300  0.00  0.00    -0.322 OA
ATOM     36  C   UNL d   1      25.159 -13.058  -4.550  0.00  0.00     0.213 C 
ENDBRANCH  33  35
ENDBRANCH  26  33
ENDBRANCH  20  21
ENDBRANCH   1  20
TORSDOF 12
ENDMDL
MODEL 7
REMARK VINA RESULT:    -6.558      5.226      8.825
REMARK INTER + INTRA:         -15.826
REMARK INTER:                 -10.138
REMARK INTRA:                  -5.688
REMARK CONF_INDEPENDENT:        3.580
REMARK UNBOUND:                -5.688
REMARK  12 active torsions:
REMARK  status: ('A' for Active; 'I' for Inactive)
REMARK    1  A    between atoms: O_2  and  C_3 
REMARK    2  A    between atoms: C_3  and  C_5 
REMARK    3  A    between atoms: C_9  and  C_10 
REMARK    4  A    between atoms: N_11  and  C_10 
REMARK    5  A    between atoms: N_11  and  C_16 
REMARK    6  A    between atoms: N_11  and  C_12 
REMARK    7  A    between atoms: C_12  and  C_13 
REMARK    8  A    between atoms: C_17  and  C_16 
REMARK    9  A    between atoms: C_17  and  C_19 
REMARK   10  A    between atoms: C_17  and  O_18 
REMARK   11  A    between atoms: C_19  and  O_20 
REMARK   12  A    between atoms: O_20  and  C_21 
ROOT
ATOM      1  N   UNL d   1      27.869 -15.937  -0.307  0.00  0.00    -0.062 N 
ATOM      2  H   UNL d   1      27.571 -14.964  -0.459  0.00  0.00     0.280 HD
ENDROOT
BRANCH   1   3
ATOM      3  C   UNL d   1      29.309 -15.915  -0.770  0.00  0.00     0.269 C 
BRANCH   3   4
ATOM      4  C   UNL d   1      29.986 -14.588  -0.983  0.00  0.00     0.168 C 
BRANCH   4   5
ATOM      5  C   UNL d   1      29.151 -13.868  -2.007  0.00  0.00     0.209 C 
BRANCH   5   6
ATOM      6  O   UNL d   1      27.861 -13.633  -1.512  0.00  0.00    -0.348 OA
BRANCH   6   7
ATOM      7  C   UNL d   1      26.979 -13.390  -2.529  0.00  0.00     0.074 C 
ATOM      8  C   UNL d   1      26.479 -14.537  -3.145  0.00  0.00     0.037 C 
ATOM      9  C   UNL d   1      25.486 -14.414  -4.107  0.00  0.00     0.003 C 
ATOM     10  C   UNL d   1      25.205 -13.163  -4.645  0.00  0.00     0.001 C 
ATOM     11  C   UNL d   1      25.797 -12.024  -4.111  0.00  0.00     0.009 C 
ATOM     12  C   UNL d   1      26.609 -12.111  -2.983  0.00  0.00    -0.029 C 
ATOM     13  C   UNL d   1      26.991 -10.819  -2.323  0.00  0.00     0.051 C 
ENDBRANCH   6   7
ENDBRANCH   5   6
ENDBRANCH   4   5
BRANCH   4  14
ATOM     14  O   UNL d   1      29.948 -13.670   0.086  0.00  0.00    -0.392 OA
ATOM     15  H   UNL d   1      29.044 -13.283   0.134  0.00  0.00     0.210 HD
ENDBRANCH   4  14
ENDBRANCH   3   4
ENDBRANCH   1   3
BRANCH   1  16
ATOM     16  C   UNL d   1      26.816 -16.786  -1.011  0.00  0.00     0.239 C 
BRANCH  16  17
ATOM     17  C   UNL d   1      25.398 -16.970  -0.462  0.00  0.00     0.003 C 
ATOM     18  C   UNL d   1      24.238 -16.439  -1.292  0.00  0.00     0.011 C 
ATOM     19  C   UNL d   1      25.109 -18.406  -0.077  0.00  0.00     0.011 C 
ENDBRANCH  16  17
ENDBRANCH   1  16
BRANCH   1  20
ATOM     20  C   UNL d   1      27.775 -16.142   1.256  0.00  0.00     0.313 C 
BRANCH  20  21
ATOM     21  C   UNL d   1      27.827 -14.832   2.050  0.00  0.00     0.134 C 
ATOM     22  N   UNL d   1      27.492 -13.763   1.423  0.00  0.00    -0.225 NA
ATOM     23  C   UNL d   1      27.353 -12.623   2.094  0.00  0.00     0.116 A 
ATOM     24  S   UNL d   1      26.653 -11.270   1.357  0.00  0.00    -0.063 SA
ATOM     25  C   UNL d   1      27.695 -12.446   3.398  0.00  0.00     0.075 A 
ATOM     26  C   UNL d   1      26.940 -10.321   2.738  0.00  0.00     0.089 A 
ATOM     27  C   UNL d   1      27.501 -11.075   3.770  0.00  0.00    -0.020 A 
ATOM     28  C   UNL d   1      27.823 -10.536   5.111  0.00  0.00     0.051 C 
ATOM     29  C   UNL d   1      28.184 -13.630   4.096  0.00  0.00     0.260 C 
ATOM     30  N   UNL d   1      28.166 -14.810   3.365  0.00  0.00    -0.309 N 
ATOM     31  O   UNL d   1      28.593 -13.635   5.258  0.00  0.00    -0.267 OA
ATOM     32  H   UNL d   1      28.515 -15.623   3.852  0.00  0.00     0.170 HD
BRANCH  26  33
ATOM     33  C   UNL d   1      26.548  -8.923   2.664  0.00  0.00     0.300 C 
ATOM     34  O   UNL d   1      27.015  -8.018   3.328  0.00  0.00    -0.259 OA
BRANCH  33  35
ATOM     35  O   UNL d   1      25.535  -8.780   1.757  0.00  0.00    -0.322 OA
ATOM     36  C   UNL d   1      25.822  -7.828   0.733  0.00  0.00     0.213 C 
ENDBRANCH  33  35
ENDBRANCH  26  33
ENDBRANCH  20  21
ENDBRANCH   1  20
TORSDOF 12
ENDMDL
MODEL 8
REMARK VINA RESULT:    -6.353      4.231      6.178
REMARK INTER + INTRA:         -15.819
REMARK INTER:                  -9.932
REMARK INTRA:                  -5.887
REMARK CONF_INDEPENDENT:        3.580
REMARK UNBOUND:                -5.887
REMARK  12 active torsions:
REMARK  status: ('A' for Active; 'I' for Inactive)
REMARK    1  A    between atoms: O_2  and  C_3 
REMARK    2  A    between atoms: C_3  and  C_5 
REMARK    3  A    between atoms: C_9  and  C_10 
REMARK    4  A    between atoms: N_11  and  C_10 
REMARK    5  A    between atoms: N_11  and  C_16 
REMARK    6  A    between atoms: N_11  and  C_12 
REMARK    7  A    between atoms: C_12  and  C_13 
REMARK    8  A    between atoms: C_17  and  C_16 
REMARK    9  A    between atoms: C_17  and  C_19 
REMARK   10  A    between atoms: C_17  and  O_18 
REMARK   11  A    between atoms: C_19  and  O_20 
REMARK   12  A    between atoms: O_20  and  C_21 
ROOT
ATOM      1  N   UNL d   1      30.288 -14.553   1.745  0.00  0.00    -0.062 N 
ATOM      2  H   UNL d   1      29.466 -14.955   1.277  0.00  0.00     0.280 HD
ENDROOT
BRANCH   1   3
ATOM      3  C   UNL d   1      31.396 -15.495   1.328  0.00  0.00     0.269 C 
BRANCH   3   4
ATOM      4  C   UNL d   1      31.218 -16.325   0.085  0.00  0.00     0.168 C 
BRANCH   4   5
ATOM      5  C   UNL d   1      29.849 -16.939   0.200  0.00  0.00     0.209 C 
BRANCH   5   6
ATOM      6  O   UNL d   1      28.858 -15.950   0.119  0.00  0.00    -0.348 OA
BRANCH   6   7
ATOM      7  C   UNL d   1      27.613 -16.507   0.034  0.00  0.00     0.074 C 
ATOM      8  C   UNL d   1      27.609 -17.892  -0.130  0.00  0.00     0.037 C 
ATOM      9  C   UNL d   1      26.402 -18.576  -0.106  0.00  0.00     0.003 C 
ATOM     10  C   UNL d   1      25.210 -17.867  -0.205  0.00  0.00     0.001 C 
ATOM     11  C   UNL d   1      25.219 -16.478  -0.166  0.00  0.00     0.009 C 
ATOM     12  C   UNL d   1      26.406 -15.784   0.059  0.00  0.00    -0.029 C 
ATOM     13  C   UNL d   1      26.287 -14.316   0.347  0.00  0.00     0.051 C 
ENDBRANCH   6   7
ENDBRANCH   5   6
ENDBRANCH   4   5
BRANCH   4  14
ATOM     14  O   UNL d   1      31.096 -15.630  -1.137  0.00  0.00    -0.392 OA
ATOM     15  H   UNL d   1      30.189 -15.775  -1.489  0.00  0.00     0.210 HD
ENDBRANCH   4  14
ENDBRANCH   3   4
ENDBRANCH   1   3
BRANCH   1  16
ATOM     16  C   UNL d   1      29.876 -14.401   3.205  0.00  0.00     0.239 C 
BRANCH  16  17
ATOM     17  C   UNL d   1      28.415 -14.453   3.663  0.00  0.00     0.003 C 
ATOM     18  C   UNL d   1      28.136 -14.805   5.117  0.00  0.00     0.011 C 
ATOM     19  C   UNL d   1      27.654 -13.193   3.309  0.00  0.00     0.011 C 
ENDBRANCH  16  17
ENDBRANCH   1  16
BRANCH   1  20
ATOM     20  C   UNL d   1      30.468 -13.132   1.081  0.00  0.00     0.313 C 
BRANCH  20  21
ATOM     21  C   UNL d   1      29.505 -12.873  -0.083  0.00  0.00     0.134 C 
ATOM     22  N   UNL d   1      29.398 -13.804  -0.961  0.00  0.00    -0.225 NA
ATOM     23  C   UNL d   1      28.461 -13.716  -1.901  0.00  0.00     0.116 A 
ATOM     24  S   UNL d   1      28.112 -15.041  -2.895  0.00  0.00    -0.063 SA
ATOM     25  C   UNL d   1      27.684 -12.622  -2.119  0.00  0.00     0.075 A 
ATOM     26  C   UNL d   1      26.994 -14.123  -3.790  0.00  0.00     0.089 A 
ATOM     27  C   UNL d   1      26.851 -12.837  -3.266  0.00  0.00    -0.020 A 
ATOM     28  C   UNL d   1      25.917 -11.822  -3.804  0.00  0.00     0.051 C 
ATOM     29  C   UNL d   1      27.874 -11.509  -1.195  0.00  0.00     0.260 C 
ATOM     30  N   UNL d   1      28.769 -11.734  -0.158  0.00  0.00    -0.309 N 
ATOM     31  O   UNL d   1      27.299 -10.424  -1.284  0.00  0.00    -0.267 OA
ATOM     32  H   UNL d   1      28.903 -10.956   0.471  0.00  0.00     0.170 HD
BRANCH  26  33
ATOM     33  C   UNL d   1      26.348 -14.790  -4.909  0.00  0.00     0.300 C 
ATOM     34  O   UNL d   1      25.155 -14.992  -5.024  0.00  0.00    -0.259 OA
BRANCH  33  35
ATOM     35  O   UNL d   1      27.296 -15.198  -5.806  0.00  0.00    -0.322 OA
ATOM     36  C   UNL d   1      28.225 -14.171  -6.155  0.00  0.00     0.213 C 
ENDBRANCH  33  35
ENDBRANCH  26  33
ENDBRANCH  20  21
ENDBRANCH   1  20
TORSDOF 12
ENDMDL
MODEL 9
REMARK VINA RESULT:    -6.236      4.853      8.440
REMARK INTER + INTRA:         -15.850
REMARK INTER:                  -9.815
REMARK INTRA:                  -6.034
REMARK CONF_INDEPENDENT:        3.580
REMARK UNBOUND:                -6.034
REMARK  12 active torsions:
REMARK  status: ('A' for Active; 'I' for Inactive)
REMARK    1  A    between atoms: O_2  and  C_3 
REMARK    2  A    between atoms: C_3  and  C_5 
REMARK    3  A    between atoms: C_9  and  C_10 
REMARK    4  A    between atoms: N_11  and  C_10 
REMARK    5  A    between atoms: N_11  and  C_16 
REMARK    6  A    between atoms: N_11  and  C_12 
REMARK    7  A    between atoms: C_12  and  C_13 
REMARK    8  A    between atoms: C_17  and  C_16 
REMARK    9  A    between atoms: C_17  and  C_19 
REMARK   10  A    between atoms: C_17  and  O_18 
REMARK   11  A    between atoms: C_19  and  O_20 
REMARK   12  A    between atoms: O_20  and  C_21 
ROOT
ATOM      1  N   UNL d   1      27.786 -16.705  -0.126  0.00  0.00    -0.062 N 
ATOM      2  H   UNL d   1      27.565 -16.124  -0.945  0.00  0.00     0.280 HD
ENDROOT
BRANCH   1   3
ATOM      3  C   UNL d   1      29.178 -17.204  -0.445  0.00  0.00     0.269 C 
BRANCH   3   4
ATOM      4  C   UNL d   1      29.924 -16.595  -1.601  0.00  0.00     0.168 C 
BRANCH   4   5
ATOM      5  C   UNL d   1      28.991 -16.685  -2.778  0.00  0.00     0.209 C 
BRANCH   5   6
ATOM      6  O   UNL d   1      27.843 -15.912  -2.555  0.00  0.00    -0.348 OA
BRANCH   6   7
ATOM      7  C   UNL d   1      27.619 -15.050  -3.592  0.00  0.00     0.074 C 
ATOM      8  C   UNL d   1      28.526 -15.167  -4.645  0.00  0.00     0.037 C 
ATOM      9  C   UNL d   1      28.323 -14.428  -5.802  0.00  0.00     0.003 C 
ATOM     10  C   UNL d   1      27.403 -13.386  -5.798  0.00  0.00     0.001 C 
ATOM     11  C   UNL d   1      26.577 -13.190  -4.697  0.00  0.00     0.009 C 
ATOM     12  C   UNL d   1      26.601 -14.080  -3.626  0.00  0.00    -0.029 C 
ATOM     13  C   UNL d   1      25.505 -13.945  -2.609  0.00  0.00     0.051 C 
ENDBRANCH   6   7
ENDBRANCH   5   6
ENDBRANCH   4   5
BRANCH   4  14
ATOM     14  O   UNL d   1      30.158 -15.205  -1.552  0.00  0.00    -0.392 OA
ATOM     15  H   UNL d   1      29.653 -14.777  -2.280  0.00  0.00     0.210 HD
ENDBRANCH   4  14
ENDBRANCH   3   4
ENDBRANCH   1   3
BRANCH   1  16
ATOM     16  C   UNL d   1      26.606 -17.660   0.009  0.00  0.00     0.239 C 
BRANCH  16  17
ATOM     17  C   UNL d   1      25.172 -17.264  -0.360  0.00  0.00     0.003 C 
ATOM     18  C   UNL d   1      24.856 -17.022  -1.829  0.00  0.00     0.011 C 
ATOM     19  C   UNL d   1      24.144 -18.217   0.213  0.00  0.00     0.011 C 
ENDBRANCH  16  17
ENDBRANCH   1  16
BRANCH   1  20
ATOM     20  C   UNL d   1      27.807 -15.693   1.085  0.00  0.00     0.313 C 
BRANCH  20  21
ATOM     21  C   UNL d   1      27.628 -14.229   0.665  0.00  0.00     0.134 C 
ATOM     22  N   UNL d   1      27.022 -13.460   1.495  0.00  0.00    -0.225 NA
ATOM     23  C   UNL d   1      26.982 -12.151   1.269  0.00  0.00     0.116 A 
ATOM     24  S   UNL d   1      26.439 -11.086   2.468  0.00  0.00    -0.063 SA
ATOM     25  C   UNL d   1      27.402 -11.549   0.125  0.00  0.00     0.075 A 
ATOM     26  C   UNL d   1      26.592  -9.760   1.414  0.00  0.00     0.089 A 
ATOM     27  C   UNL d   1      27.127 -10.143   0.183  0.00  0.00    -0.020 A 
ATOM     28  C   UNL d   1      27.418  -9.204  -0.924  0.00  0.00     0.051 C 
ATOM     29  C   UNL d   1      27.994 -12.429  -0.879  0.00  0.00     0.260 C 
ATOM     30  N   UNL d   1      28.127 -13.760  -0.508  0.00  0.00    -0.309 N 
ATOM     31  O   UNL d   1      28.370 -12.062  -1.992  0.00  0.00    -0.267 OA
ATOM     32  H   UNL d   1      28.528 -14.365  -1.211  0.00  0.00     0.170 HD
BRANCH  26  33
ATOM     33  C   UNL d   1      26.189  -8.463   1.932  0.00  0.00     0.300 C 
ATOM     34  O   UNL d   1      26.655  -7.913   2.911  0.00  0.00    -0.259 OA
BRANCH  33  35
ATOM     35  O   UNL d   1      25.168  -7.965   1.172  0.00  0.00    -0.322 OA
ATOM     36  C   UNL d   1      25.516  -6.772   0.467  0.00  0.00     0.213 C 
ENDBRANCH  33  35
ENDBRANCH  26  33
ENDBRANCH  20  21
ENDBRANCH   1  20
TORSDOF 12
ENDMDL
