MODEL 1
REMARK VINA RESULT:    -6.581      0.000      0.000
REMARK INTER + INTRA:          -8.243
REMARK INTER:                  -7.177
REMARK INTRA:                  -1.065
REMARK CONF_INDEPENDENT:        0.597
REMARK UNBOUND:                -1.065
REMARK  2 active torsions:
REMARK  status: ('A' for Active; 'I' for Inactive)
REMARK       I    between atoms: C_2  and  N_4 
REMARK    1  A    between atoms: N_4  and  C_5 
REMARK    2  A    between atoms: C_10  and  C_11 
ROOT
ATOM      1  C   UNL d   1      25.782 -14.584  -2.428  0.00  0.00     0.138 C 
ATOM      2  N   UNL d   1      26.491 -13.601  -1.936  0.00  0.00    -0.240 NA
ATOM      3  C   UNL d   1      26.454 -12.369  -2.631  0.00  0.00     0.084 A 
ATOM      4  C   UNL d   1      27.215 -11.307  -2.149  0.00  0.00     0.034 A 
ATOM      5  C   UNL d   1      27.206 -10.074  -2.800  0.00  0.00     0.002 A 
ATOM      6  C   UNL d   1      26.432  -9.900  -3.948  0.00  0.00     0.002 A 
ATOM      7  C   UNL d   1      25.566 -10.911  -4.374  0.00  0.00     0.032 A 
ATOM      8  C   UNL d   1      25.573 -12.137  -3.704  0.00  0.00     0.064 A 
ATOM      9  N   UNL d   1      24.778 -13.206  -4.144  0.00  0.00    -0.320 N 
ATOM     10  C   UNL d   1      25.227 -14.476  -3.850  0.00  0.00     0.275 C 
ATOM     11  O   UNL d   1      25.252 -15.396  -4.630  0.00  0.00    -0.266 OA
ATOM     12  H   UNL d   1      24.071 -13.100  -4.852  0.00  0.00     0.169 HD
ENDROOT
BRANCH   1  13
ATOM     13  C   UNL d   1      25.358 -15.759  -1.592  0.00  0.00     0.025 A 
ATOM     14  C   UNL d   1      24.030 -16.223  -1.646  0.00  0.00     0.016 A 
ATOM     15  C   UNL d   1      23.616 -17.331  -0.901  0.00  0.00     0.001 A 
ATOM     16  C   UNL d   1      24.532 -18.011  -0.107  0.00  0.00     0.002 A 
ATOM     17  C   UNL d   1      25.848 -17.548  -0.013  0.00  0.00     0.030 A 
ATOM     18  C   UNL d   1      26.271 -16.419  -0.738  0.00  0.00     0.047 A 
BRANCH  18  19
ATOM     19  N   UNL d   1      27.619 -16.010  -0.574  0.00  0.00    -0.327 N 
ATOM     20  C   UNL d   1      28.645 -16.906  -0.317  0.00  0.00     0.218 C 
ATOM     21  C   UNL d   1      29.909 -16.289   0.228  0.00  0.00     0.117 C 
ATOM     22  O   UNL d   1      28.565 -18.118  -0.520  0.00  0.00    -0.274 OA
ATOM     23  H   UNL d   1      27.822 -15.024  -0.659  0.00  0.00     0.169 HD
ENDBRANCH  18  19
ENDBRANCH   1  13
TORSDOF 2
ENDMDL
MODEL 2
REMARK VINA RESULT:    -6.479      1.958      2.266
REMARK INTER + INTRA:          -8.255
REMARK INTER:                  -7.076
REMARK INTRA:                  -1.179
REMARK CONF_INDEPENDENT:        0.597
REMARK UNBOUND:                -1.179
REMARK  2 active torsions:
REMARK  status: ('A' for Active; 'I' for Inactive)
REMARK       I    between atoms: C_2  and  N_4 
REMARK    1  A    between atoms: N_4  and  C_5 
REMARK    2  A    between atoms: C_10  and  C_11 
ROOT
ATOM      1  C   UNL d   1      25.529 -15.104  -3.431  0.00  0.00     0.138 C 
ATOM      2  N   UNL d   1      26.602 -15.259  -4.164  0.00  0.00    -0.240 NA
ATOM      3  C   UNL d   1      26.976 -14.177  -4.997  0.00  0.00     0.084 A 
ATOM      4  C   UNL d   1      28.099 -14.316  -5.808  0.00  0.00     0.034 A 
ATOM      5  C   UNL d   1      28.506 -13.275  -6.641  0.00  0.00     0.002 A 
ATOM      6  C   UNL d   1      27.780 -12.083  -6.669  0.00  0.00     0.002 A 
ATOM      7  C   UNL d   1      26.728 -11.877  -5.773  0.00  0.00     0.032 A 
ATOM      8  C   UNL d   1      26.339 -12.923  -4.931  0.00  0.00     0.064 A 
ATOM      9  N   UNL d   1      25.239 -12.789  -4.071  0.00  0.00    -0.320 N 
ATOM     10  C   UNL d   1      24.573 -13.946  -3.729  0.00  0.00     0.275 C 
ATOM     11  O   UNL d   1      23.373 -14.075  -3.724  0.00  0.00    -0.266 OA
ATOM     12  H   UNL d   1      24.781 -11.907  -3.911  0.00  0.00     0.169 HD
ENDROOT
BRANCH   1  13
ATOM     13  C   UNL d   1      25.275 -15.930  -2.203  0.00  0.00     0.025 A 
ATOM     14  C   UNL d   1      23.984 -15.992  -1.645  0.00  0.00     0.016 A 
ATOM     15  C   UNL d   1      23.714 -16.775  -0.520  0.00  0.00     0.001 A 
ATOM     16  C   UNL d   1      24.727 -17.534   0.053  0.00  0.00     0.002 A 
ATOM     17  C   UNL d   1      26.025 -17.463  -0.463  0.00  0.00     0.030 A 
ATOM     18  C   UNL d   1      26.315 -16.658  -1.580  0.00  0.00     0.047 A 
BRANCH  18  19
ATOM     19  N   UNL d   1      27.659 -16.635  -2.031  0.00  0.00    -0.327 N 
ATOM     20  C   UNL d   1      28.738 -16.584  -1.161  0.00  0.00     0.218 C 
ATOM     21  C   UNL d   1      30.042 -16.155  -1.788  0.00  0.00     0.117 C 
ATOM     22  O   UNL d   1      28.670 -16.871   0.034  0.00  0.00    -0.274 OA
ATOM     23  H   UNL d   1      27.819 -16.665  -3.029  0.00  0.00     0.169 HD
ENDBRANCH  18  19
ENDBRANCH   1  13
TORSDOF 2
ENDMDL
MODEL 3
REMARK VINA RESULT:    -6.348      2.602      3.087
REMARK INTER + INTRA:          -7.859
REMARK INTER:                  -6.944
REMARK INTRA:                  -0.915
REMARK CONF_INDEPENDENT:        0.597
REMARK UNBOUND:                -0.915
REMARK  2 active torsions:
REMARK  status: ('A' for Active; 'I' for Inactive)
REMARK       I    between atoms: C_2  and  N_4 
REMARK    1  A    between atoms: N_4  and  C_5 
REMARK    2  A    between atoms: C_10  and  C_11 
ROOT
ATOM      1  C   UNL d   1      25.509 -15.565  -2.103  0.00  0.00     0.138 C 
ATOM      2  N   UNL d   1      25.538 -15.645  -3.408  0.00  0.00    -0.240 NA
ATOM      3  C   UNL d   1      26.650 -15.067  -4.065  0.00  0.00     0.084 A 
ATOM      4  C   UNL d   1      26.702 -15.112  -5.456  0.00  0.00     0.034 A 
ATOM      5  C   UNL d   1      27.780 -14.559  -6.145  0.00  0.00     0.002 A 
ATOM      6  C   UNL d   1      28.817 -13.949  -5.438  0.00  0.00     0.002 A 
ATOM      7  C   UNL d   1      28.846 -14.004  -4.041  0.00  0.00     0.032 A 
ATOM      8  C   UNL d   1      27.767 -14.575  -3.363  0.00  0.00     0.064 A 
ATOM      9  N   UNL d   1      27.716 -14.583  -1.961  0.00  0.00    -0.320 N 
ATOM     10  C   UNL d   1      26.464 -14.608  -1.384  0.00  0.00     0.275 C 
ATOM     11  O   UNL d   1      26.116 -13.913  -0.461  0.00  0.00    -0.266 OA
ATOM     12  H   UNL d   1      28.502 -14.322  -1.389  0.00  0.00     0.169 HD
ENDROOT
BRANCH   1  13
ATOM     13  C   UNL d   1      24.679 -16.494  -1.264  0.00  0.00     0.025 A 
ATOM     14  C   UNL d   1      23.282 -16.328  -1.194  0.00  0.00     0.016 A 
ATOM     15  C   UNL d   1      22.483 -17.195  -0.445  0.00  0.00     0.001 A 
ATOM     16  C   UNL d   1      23.064 -18.262   0.230  0.00  0.00     0.002 A 
ATOM     17  C   UNL d   1      24.453 -18.428   0.202  0.00  0.00     0.030 A 
ATOM     18  C   UNL d   1      25.271 -17.546  -0.528  0.00  0.00     0.047 A 
BRANCH  18  19
ATOM     19  N   UNL d   1      26.670 -17.779  -0.492  0.00  0.00    -0.327 N 
ATOM     20  C   UNL d   1      27.543 -16.969   0.217  0.00  0.00     0.218 C 
ATOM     21  C   UNL d   1      28.995 -17.101  -0.175  0.00  0.00     0.117 C 
ATOM     22  O   UNL d   1      27.193 -16.199   1.112  0.00  0.00    -0.274 OA
ATOM     23  H   UNL d   1      27.024 -18.576  -1.002  0.00  0.00     0.169 HD
ENDBRANCH  18  19
ENDBRANCH   1  13
TORSDOF 2
ENDMDL
MODEL 4
REMARK VINA RESULT:    -6.308      2.399      5.979
REMARK INTER + INTRA:          -8.182
REMARK INTER:                  -6.905
REMARK INTRA:                  -1.277
REMARK CONF_INDEPENDENT:        0.597
REMARK UNBOUND:                -1.277
REMARK  2 active torsions:
REMARK  status: ('A' for Active; 'I' for Inactive)
REMARK       I    between atoms: C_2  and  N_4 
REMARK    1  A    between atoms: N_4  and  C_5 
REMARK    2  A    between atoms: C_10  and  C_11 
ROOT
ATOM      1  C   UNL d   1      26.613 -16.685  -1.064  0.00  0.00     0.138 C 
ATOM      2  N   UNL d   1      26.058 -17.829  -0.758  0.00  0.00    -0.240 NA
ATOM      3  C   UNL d   1      24.647 -17.854  -0.651  0.00  0.00     0.084 A 
ATOM      4  C   UNL d   1      24.025 -19.050  -0.304  0.00  0.00     0.034 A 
ATOM      5  C   UNL d   1      22.637 -19.121  -0.191  0.00  0.00     0.002 A 
ATOM      6  C   UNL d   1      21.861 -17.984  -0.423  0.00  0.00     0.002 A 
ATOM      7  C   UNL d   1      22.455 -16.810  -0.895  0.00  0.00     0.032 A 
ATOM      8  C   UNL d   1      23.846 -16.756  -1.019  0.00  0.00     0.064 A 
ATOM      9  N   UNL d   1      24.492 -15.575  -1.414  0.00  0.00    -0.320 N 
ATOM     10  C   UNL d   1      25.788 -15.399  -0.976  0.00  0.00     0.275 C 
ATOM     11  O   UNL d   1      26.224 -14.375  -0.510  0.00  0.00    -0.266 OA
ATOM     12  H   UNL d   1      23.992 -14.775  -1.764  0.00  0.00     0.169 HD
ENDROOT
BRANCH   1  13
ATOM     13  C   UNL d   1      27.993 -16.598  -1.651  0.00  0.00     0.025 A 
ATOM     14  C   UNL d   1      29.019 -17.438  -1.176  0.00  0.00     0.016 A 
ATOM     15  C   UNL d   1      30.304 -17.398  -1.724  0.00  0.00     0.001 A 
ATOM     16  C   UNL d   1      30.580 -16.533  -2.776  0.00  0.00     0.002 A 
ATOM     17  C   UNL d   1      29.586 -15.666  -3.243  0.00  0.00     0.030 A 
ATOM     18  C   UNL d   1      28.296 -15.679  -2.682  0.00  0.00     0.047 A 
BRANCH  18  19
ATOM     19  N   UNL d   1      27.353 -14.759  -3.206  0.00  0.00    -0.327 N 
ATOM     20  C   UNL d   1      27.054 -14.684  -4.557  0.00  0.00     0.218 C 
ATOM     21  C   UNL d   1      26.364 -13.412  -4.988  0.00  0.00     0.117 C 
ATOM     22  O   UNL d   1      27.308 -15.575  -5.368  0.00  0.00    -0.274 OA
ATOM     23  H   UNL d   1      26.884 -14.146  -2.552  0.00  0.00     0.169 HD
ENDBRANCH  18  19
ENDBRANCH   1  13
TORSDOF 2
ENDMDL
MODEL 5
REMARK VINA RESULT:    -6.250      2.202      6.026
REMARK INTER + INTRA:          -8.095
REMARK INTER:                  -6.847
REMARK INTRA:                  -1.248
REMARK CONF_INDEPENDENT:        0.597
REMARK UNBOUND:                -1.248
REMARK  2 active torsions:
REMARK  status: ('A' for Active; 'I' for Inactive)
REMARK       I    between atoms: C_2  and  N_4 
REMARK    1  A    between atoms: N_4  and  C_5 
REMARK    2  A    between atoms: C_10  and  C_11 
ROOT
ATOM      1  C   UNL d   1      26.378 -14.994  -2.760  0.00  0.00     0.138 C 
ATOM      2  N   UNL d   1      25.267 -15.684  -2.725  0.00  0.00    -0.240 NA
ATOM      3  C   UNL d   1      25.138 -16.649  -1.698  0.00  0.00     0.084 A 
ATOM      4  C   UNL d   1      23.979 -17.418  -1.645  0.00  0.00     0.034 A 
ATOM      5  C   UNL d   1      23.808 -18.377  -0.648  0.00  0.00     0.002 A 
ATOM      6  C   UNL d   1      24.808 -18.575   0.305  0.00  0.00     0.002 A 
ATOM      7  C   UNL d   1      25.920 -17.729   0.345  0.00  0.00     0.032 A 
ATOM      8  C   UNL d   1      26.072 -16.761  -0.650  0.00  0.00     0.064 A 
ATOM      9  N   UNL d   1      27.210 -15.942  -0.696  0.00  0.00    -0.320 N 
ATOM     10  C   UNL d   1      27.579 -15.458  -1.933  0.00  0.00     0.275 C 
ATOM     11  O   UNL d   1      28.707 -15.453  -2.363  0.00  0.00    -0.266 OA
ATOM     12  H   UNL d   1      27.883 -15.908   0.052  0.00  0.00     0.169 HD
ENDROOT
BRANCH   1  13
ATOM     13  C   UNL d   1      26.474 -13.670  -3.463  0.00  0.00     0.025 A 
ATOM     14  C   UNL d   1      25.452 -12.713  -3.314  0.00  0.00     0.016 A 
ATOM     15  C   UNL d   1      25.530 -11.463  -3.934  0.00  0.00     0.001 A 
ATOM     16  C   UNL d   1      26.646 -11.138  -4.695  0.00  0.00     0.002 A 
ATOM     17  C   UNL d   1      27.659 -12.084  -4.884  0.00  0.00     0.030 A 
ATOM     18  C   UNL d   1      27.579 -13.355  -4.286  0.00  0.00     0.047 A 
BRANCH  18  19
ATOM     19  N   UNL d   1      28.643 -14.259  -4.541  0.00  0.00    -0.327 N 
ATOM     20  C   UNL d   1      28.579 -15.227  -5.530  0.00  0.00     0.218 C 
ATOM     21  C   UNL d   1      29.589 -16.341  -5.399  0.00  0.00     0.117 C 
ATOM     22  O   UNL d   1      27.779 -15.201  -6.466  0.00  0.00    -0.274 OA
ATOM     23  H   UNL d   1      29.475 -14.173  -3.973  0.00  0.00     0.169 HD
ENDBRANCH  18  19
ENDBRANCH   1  13
TORSDOF 2
ENDMDL
MODEL 6
REMARK VINA RESULT:    -6.051      2.967      5.553
REMARK INTER + INTRA:          -7.981
REMARK INTER:                  -6.647
REMARK INTRA:                  -1.334
REMARK CONF_INDEPENDENT:        0.597
REMARK UNBOUND:                -1.334
REMARK  2 active torsions:
REMARK  status: ('A' for Active; 'I' for Inactive)
REMARK       I    between atoms: C_2  and  N_4 
REMARK    1  A    between atoms: N_4  and  C_5 
REMARK    2  A    between atoms: C_10  and  C_11 
ROOT
ATOM      1  C   UNL d   1      26.824 -14.642   0.027  0.00  0.00     0.138 C 
ATOM      2  N   UNL d   1      26.550 -13.673   0.862  0.00  0.00    -0.240 NA
ATOM      3  C   UNL d   1      27.310 -13.615   2.054  0.00  0.00     0.084 A 
ATOM      4  C   UNL d   1      27.030 -12.610   2.977  0.00  0.00     0.034 A 
ATOM      5  C   UNL d   1      27.757 -12.512   4.162  0.00  0.00     0.002 A 
ATOM      6  C   UNL d   1      28.772 -13.431   4.434  0.00  0.00     0.002 A 
ATOM      7  C   UNL d   1      29.152 -14.366   3.467  0.00  0.00     0.032 A 
ATOM      8  C   UNL d   1      28.427 -14.444   2.276  0.00  0.00     0.064 A 
ATOM      9  N   UNL d   1      28.722 -15.418   1.310  0.00  0.00    -0.320 N 
ATOM     10  C   UNL d   1      27.687 -15.818   0.493  0.00  0.00     0.275 C 
ATOM     11  O   UNL d   1      27.429 -16.964   0.217  0.00  0.00    -0.266 OA
ATOM     12  H   UNL d   1      29.545 -15.995   1.358  0.00  0.00     0.169 HD
ENDROOT
BRANCH   1  13
ATOM     13  C   UNL d   1      26.452 -14.573  -1.426  0.00  0.00     0.025 A 
ATOM     14  C   UNL d   1      26.733 -13.415  -2.175  0.00  0.00     0.016 A 
ATOM     15  C   UNL d   1      26.423 -13.334  -3.536  0.00  0.00     0.001 A 
ATOM     16  C   UNL d   1      25.848 -14.424  -4.179  0.00  0.00     0.002 A 
ATOM     17  C   UNL d   1      25.529 -15.573  -3.448  0.00  0.00     0.030 A 
ATOM     18  C   UNL d   1      25.813 -15.656  -2.073  0.00  0.00     0.047 A 
BRANCH  18  19
ATOM     19  N   UNL d   1      25.444 -16.853  -1.406  0.00  0.00    -0.327 N 
ATOM     20  C   UNL d   1      24.189 -17.041  -0.850  0.00  0.00     0.218 C 
ATOM     21  C   UNL d   1      24.099 -18.165   0.154  0.00  0.00     0.117 C 
ATOM     22  O   UNL d   1      23.201 -16.368  -1.141  0.00  0.00    -0.274 OA
ATOM     23  H   UNL d   1      26.135 -17.589  -1.351  0.00  0.00     0.169 HD
ENDBRANCH  18  19
ENDBRANCH   1  13
TORSDOF 2
ENDMDL
MODEL 7
REMARK VINA RESULT:    -5.967      1.655      1.984
REMARK INTER + INTRA:          -7.887
REMARK INTER:                  -6.564
REMARK INTRA:                  -1.323
REMARK CONF_INDEPENDENT:        0.597
REMARK UNBOUND:                -1.323
REMARK  2 active torsions:
REMARK  status: ('A' for Active; 'I' for Inactive)
REMARK       I    between atoms: C_2  and  N_4 
REMARK    1  A    between atoms: N_4  and  C_5 
REMARK    2  A    between atoms: C_10  and  C_11 
ROOT
ATOM      1  C   UNL d   1      26.083 -15.165  -2.316  0.00  0.00     0.138 C 
ATOM      2  N   UNL d   1      25.602 -13.955  -2.443  0.00  0.00    -0.240 NA
ATOM      3  C   UNL d   1      26.008 -13.215  -3.578  0.00  0.00     0.084 A 
ATOM      4  C   UNL d   1      25.534 -11.915  -3.733  0.00  0.00     0.034 A 
ATOM      5  C   UNL d   1      25.905 -11.151  -4.838  0.00  0.00     0.002 A 
ATOM      6  C   UNL d   1      26.764 -11.688  -5.798  0.00  0.00     0.002 A 
ATOM      7  C   UNL d   1      27.149 -13.030  -5.727  0.00  0.00     0.032 A 
ATOM      8  C   UNL d   1      26.757 -13.790  -4.623  0.00  0.00     0.064 A 
ATOM      9  N   UNL d   1      27.184 -15.118  -4.470  0.00  0.00    -0.320 N 
ATOM     10  C   UNL d   1      27.269 -15.599  -3.181  0.00  0.00     0.275 C 
ATOM     11  O   UNL d   1      28.197 -16.235  -2.742  0.00  0.00    -0.266 OA
ATOM     12  H   UNL d   1      27.656 -15.623  -5.202  0.00  0.00     0.169 HD
ENDROOT
BRANCH   1  13
ATOM     13  C   UNL d   1      25.416 -16.205  -1.461  0.00  0.00     0.025 A 
ATOM     14  C   UNL d   1      24.029 -16.422  -1.562  0.00  0.00     0.016 A 
ATOM     15  C   UNL d   1      23.388 -17.401  -0.799  0.00  0.00     0.001 A 
ATOM     16  C   UNL d   1      24.130 -18.201   0.063  0.00  0.00     0.002 A 
ATOM     17  C   UNL d   1      25.504 -17.981   0.205  0.00  0.00     0.030 A 
ATOM     18  C   UNL d   1      26.156 -16.981  -0.539  0.00  0.00     0.047 A 
BRANCH  18  19
ATOM     19  N   UNL d   1      27.548 -16.818  -0.325  0.00  0.00    -0.327 N 
ATOM     20  C   UNL d   1      28.061 -15.915   0.593  0.00  0.00     0.218 C 
ATOM     21  C   UNL d   1      29.520 -15.575   0.407  0.00  0.00     0.117 C 
ATOM     22  O   UNL d   1      27.405 -15.421   1.510  0.00  0.00    -0.274 OA
ATOM     23  H   UNL d   1      28.176 -17.396  -0.867  0.00  0.00     0.169 HD
ENDBRANCH  18  19
ENDBRANCH   1  13
TORSDOF 2
ENDMDL
MODEL 8
REMARK VINA RESULT:    -5.946      1.784      5.681
REMARK INTER + INTRA:          -7.939
REMARK INTER:                  -6.543
REMARK INTRA:                  -1.396
REMARK CONF_INDEPENDENT:        0.597
REMARK UNBOUND:                -1.396
REMARK  2 active torsions:
REMARK  status: ('A' for Active; 'I' for Inactive)
REMARK       I    between atoms: C_2  and  N_4 
REMARK    1  A    between atoms: N_4  and  C_5 
REMARK    2  A    between atoms: C_10  and  C_11 
ROOT
ATOM      1  C   UNL d   1      27.592 -16.425  -0.827  0.00  0.00     0.138 C 
ATOM      2  N   UNL d   1      28.496 -17.119  -1.470  0.00  0.00    -0.240 NA
ATOM      3  C   UNL d   1      29.834 -17.009  -1.021  0.00  0.00     0.084 A 
ATOM      4  C   UNL d   1      30.826 -17.714  -1.697  0.00  0.00     0.034 A 
ATOM      5  C   UNL d   1      32.156 -17.639  -1.286  0.00  0.00     0.002 A 
ATOM      6  C   UNL d   1      32.501 -16.845  -0.192  0.00  0.00     0.002 A 
ATOM      7  C   UNL d   1      31.507 -16.231   0.576  0.00  0.00     0.032 A 
ATOM      8  C   UNL d   1      30.176 -16.328   0.163  0.00  0.00     0.064 A 
ATOM      9  N   UNL d   1      29.153 -15.664   0.857  0.00  0.00    -0.320 N 
ATOM     10  C   UNL d   1      28.033 -15.317   0.132  0.00  0.00     0.275 C 
ATOM     11  O   UNL d   1      27.486 -14.242   0.180  0.00  0.00    -0.266 OA
ATOM     12  H   UNL d   1      29.302 -15.221   1.749  0.00  0.00     0.169 HD
ENDROOT
BRANCH   1  13
ATOM     13  C   UNL d   1      26.133 -16.778  -0.874  0.00  0.00     0.025 A 
ATOM     14  C   UNL d   1      25.700 -18.057  -0.478  0.00  0.00     0.016 A 
ATOM     15  C   UNL d   1      24.346 -18.402  -0.485  0.00  0.00     0.001 A 
ATOM     16  C   UNL d   1      23.395 -17.462  -0.865  0.00  0.00     0.002 A 
ATOM     17  C   UNL d   1      23.804 -16.195  -1.294  0.00  0.00     0.030 A 
ATOM     18  C   UNL d   1      25.166 -15.845  -1.316  0.00  0.00     0.047 A 
BRANCH  18  19
ATOM     19  N   UNL d   1      25.494 -14.544  -1.777  0.00  0.00    -0.327 N 
ATOM     20  C   UNL d   1      25.419 -14.185  -3.113  0.00  0.00     0.218 C 
ATOM     21  C   UNL d   1      26.177 -12.933  -3.481  0.00  0.00     0.117 C 
ATOM     22  O   UNL d   1      24.780 -14.812  -3.958  0.00  0.00    -0.274 OA
ATOM     23  H   UNL d   1      25.785 -13.863  -1.089  0.00  0.00     0.169 HD
ENDBRANCH  18  19
ENDBRANCH   1  13
TORSDOF 2
ENDMDL
MODEL 9
REMARK VINA RESULT:    -5.852      2.714      6.236
REMARK INTER + INTRA:          -7.826
REMARK INTER:                  -6.449
REMARK INTRA:                  -1.377
REMARK CONF_INDEPENDENT:        0.597
REMARK UNBOUND:                -1.377
REMARK  2 active torsions:
REMARK  status: ('A' for Active; 'I' for Inactive)
REMARK       I    between atoms: C_2  and  N_4 
REMARK    1  A    between atoms: N_4  and  C_5 
REMARK    2  A    between atoms: C_10  and  C_11 
ROOT
ATOM      1  C   UNL d   1      27.049 -15.208  -3.394  0.00  0.00     0.138 C 
ATOM      2  N   UNL d   1      27.696 -15.510  -2.298  0.00  0.00    -0.240 NA
ATOM      3  C   UNL d   1      27.013 -16.304  -1.345  0.00  0.00     0.084 A 
ATOM      4  C   UNL d   1      27.662 -16.626  -0.156  0.00  0.00     0.034 A 
ATOM      5  C   UNL d   1      27.030 -17.409   0.808  0.00  0.00     0.002 A 
ATOM      6  C   UNL d   1      25.733 -17.873   0.587  0.00  0.00     0.002 A 
ATOM      7  C   UNL d   1      25.113 -17.668  -0.650  0.00  0.00     0.032 A 
ATOM      8  C   UNL d   1      25.764 -16.895  -1.614  0.00  0.00     0.064 A 
ATOM      9  N   UNL d   1      25.148 -16.597  -2.839  0.00  0.00    -0.320 N 
ATOM     10  C   UNL d   1      25.537 -15.431  -3.464  0.00  0.00     0.275 C 
ATOM     11  O   UNL d   1      24.782 -14.628  -3.956  0.00  0.00    -0.266 OA
ATOM     12  H   UNL d   1      24.294 -17.038  -3.138  0.00  0.00     0.169 HD
ENDROOT
BRANCH   1  13
ATOM     13  C   UNL d   1      27.759 -14.791  -4.650  0.00  0.00     0.025 A 
ATOM     14  C   UNL d   1      28.803 -15.580  -5.169  0.00  0.00     0.016 A 
ATOM     15  C   UNL d   1      29.462 -15.231  -6.351  0.00  0.00     0.001 A 
ATOM     16  C   UNL d   1      29.069 -14.096  -7.051  0.00  0.00     0.002 A 
ATOM     17  C   UNL d   1      28.056 -13.278  -6.538  0.00  0.00     0.030 A 
ATOM     18  C   UNL d   1      27.404 -13.606  -5.336  0.00  0.00     0.047 A 
BRANCH  18  19
ATOM     19  N   UNL d   1      26.398 -12.716  -4.880  0.00  0.00    -0.327 N 
ATOM     20  C   UNL d   1      26.690 -11.545  -4.199  0.00  0.00     0.218 C 
ATOM     21  C   UNL d   1      25.532 -10.941  -3.442  0.00  0.00     0.117 C 
ATOM     22  O   UNL d   1      27.798 -11.007  -4.202  0.00  0.00    -0.274 OA
ATOM     23  H   UNL d   1      25.436 -12.957  -5.076  0.00  0.00     0.169 HD
ENDBRANCH  18  19
ENDBRANCH   1  13
TORSDOF 2
ENDMDL
