MODEL 1
REMARK VINA RESULT:   -29.410      0.000      0.000
REMARK INTER + INTRA:         -35.513
REMARK INTER:                 -32.989
REMARK INTRA:                  -2.524
REMARK CONF_INDEPENDENT:        3.580
REMARK UNBOUND:                -2.524
REMARK  12 active torsions:
REMARK  status: ('A' for Active; 'I' for Inactive)
REMARK    1  A    between atoms: C_2  and  N_3 
REMARK    2  A    between atoms: N_3  and  C_4 
REMARK    3  A    between atoms: N_3  and  C_6 
REMARK    4  A    between atoms: C_6  and  C_7 
REMARK    5  A    between atoms: C_8  and  C_9 
REMARK       I    between atoms: C_9  and  N_11 
REMARK    6  A    between atoms: N_11  and  N_12 
REMARK    7  A    between atoms: C_13  and  C_14 
REMARK    8  A    between atoms: C_17  and  O_18 
REMARK    9  A    between atoms: O_18  and  C_19 
REMARK   10  A    between atoms: C_19  and  C_20 
REMARK   11  A    between atoms: N_31  and  C_32 
REMARK   12  A    between atoms: C_36  and  N_37 
ROOT
ATOM      1  C   UNL d   1      27.102 -17.045  -0.128  0.00  0.00     0.293 C 
ATOM      2  O   UNL d   1      27.702 -16.758   0.890  0.00  0.00    -0.264 OA
ATOM      3  N   UNL d   1      27.784 -17.140  -1.388  0.00  0.00    -0.242 N 
ATOM      4  H   UNL d   1      27.283 -17.243  -2.252  0.00  0.00     0.192 HD
ENDROOT
BRANCH   1   5
ATOM      5  C   UNL d   1      25.615 -17.456  -0.060  0.00  0.00     0.170 C 
ATOM      6  C   UNL d   1      24.444 -17.046  -0.736  0.00  0.00     0.096 C 
ATOM      7  N   UNL d   1      23.390 -17.837  -0.192  0.00  0.00    -0.215 N 
ATOM      8  N   UNL d   1      23.952 -18.761   0.616  0.00  0.00     0.012 NA
ATOM      9  N   UNL d   1      25.267 -18.588   0.650  0.00  0.00    -0.152 NA
BRANCH   6  10
ATOM     10  C   UNL d   1      24.195 -15.988  -1.749  0.00  0.00     0.296 C 
BRANCH  10  11
ATOM     11  N   UNL d   1      25.475 -15.248  -2.249  0.00  0.00    -0.066 N 
ATOM     12  H   UNL d   1      26.178 -15.964  -2.458  0.00  0.00     0.280 HD
BRANCH  11  13
ATOM     13  C   UNL d   1      25.181 -14.527  -3.552  0.00  0.00     0.231 C 
ATOM     14  C   UNL d   1      25.897 -15.181  -4.716  0.00  0.00     0.034 C 
ENDBRANCH  11  13
BRANCH  11  15
ATOM     15  C   UNL d   1      26.012 -14.343  -1.196  0.00  0.00     0.231 C 
ATOM     16  C   UNL d   1      26.783 -13.102  -1.518  0.00  0.00     0.034 C 
ENDBRANCH  11  15
ENDBRANCH  10  11
ENDBRANCH   6  10
BRANCH   7  17
ATOM     17  C   UNL d   1      21.994 -17.866  -0.536  0.00  0.00     0.219 A 
ATOM     18  N   UNL d   1      21.363 -16.787  -1.007  0.00  0.00    -0.082 NA
ATOM     19  O   UNL d   1      20.055 -17.237  -1.263  0.00  0.00    -0.103 OA
ATOM     20  N   UNL d   1      19.905 -18.578  -0.896  0.00  0.00    -0.089 NA
ATOM     21  C   UNL d   1      21.099 -18.946  -0.442  0.00  0.00     0.180 A 
BRANCH  21  22
ATOM     22  N   UNL d   1      21.394 -20.161   0.095  0.00  0.00    -0.282 NA
ATOM     23  H   UNL d   1      20.864 -20.347   0.953  0.00  0.00     0.126 HD
ATOM     24  H   UNL d   1      22.382 -20.295   0.286  0.00  0.00     0.126 HD
ENDBRANCH  21  22
ENDBRANCH   7  17
ENDBRANCH   1   5
BRANCH   3  25
ATOM     25  N   UNL d   1      29.204 -17.128  -1.474  0.00  0.00    -0.183 NA
ATOM     26  C   UNL d   1      29.898 -17.130  -0.363  0.00  0.00     0.150 C 
BRANCH  26  27
ATOM     27  C   UNL d   1      31.394 -17.265  -0.275  0.00  0.00    -0.017 A 
ATOM     28  C   UNL d   1      32.100 -16.686   0.796  0.00  0.00     0.015 A 
ATOM     29  C   UNL d   1      33.509 -16.737   0.834  0.00  0.00     0.037 A 
ATOM     30  C   UNL d   1      34.221 -17.421  -0.158  0.00  0.00     0.069 A 
ATOM     31  C   UNL d   1      33.520 -17.974  -1.225  0.00  0.00     0.037 A 
ATOM     32  C   UNL d   1      32.118 -17.906  -1.280  0.00  0.00     0.015 A 
BRANCH  30  33
ATOM     33  O   UNL d   1      35.567 -17.529   0.033  0.00  0.00    -0.347 OA
BRANCH  33  34
ATOM     34  C   UNL d   1      36.068 -18.635   0.806  0.00  0.00     0.214 C 
BRANCH  34  35
ATOM     35  C   UNL d   1      34.935 -19.611   1.059  0.00  0.00    -0.028 C 
ATOM     36  C   UNL d   1      34.636 -20.597   0.103  0.00  0.00     0.010 C 
ATOM     37  C   UNL d   1      33.483 -21.374   0.223  0.00  0.00     0.001 C 
ATOM     38  C   UNL d   1      32.671 -21.246   1.344  0.00  0.00     0.001 C 
ATOM     39  C   UNL d   1      33.006 -20.337   2.345  0.00  0.00     0.007 C 
ATOM     40  C   UNL d   1      34.143 -19.525   2.224  0.00  0.00    -0.054 C 
ATOM     41  C   UNL d   1      34.504 -18.593   3.346  0.00  0.00     0.049 C 
ENDBRANCH  34  35
ENDBRANCH  33  34
ENDBRANCH  30  33
ENDBRANCH  26  27
ENDBRANCH   3  25
TORSDOF 12
ENDMDL
MODEL 2
REMARK VINA RESULT:   -29.096      2.382      3.128
REMARK INTER + INTRA:         -36.297
REMARK INTER:                 -32.676
REMARK INTRA:                  -3.621
REMARK CONF_INDEPENDENT:        3.580
REMARK UNBOUND:                -3.621
REMARK  12 active torsions:
REMARK  status: ('A' for Active; 'I' for Inactive)
REMARK    1  A    between atoms: C_2  and  N_3 
REMARK    2  A    between atoms: N_3  and  C_4 
REMARK    3  A    between atoms: N_3  and  C_6 
REMARK    4  A    between atoms: C_6  and  C_7 
REMARK    5  A    between atoms: C_8  and  C_9 
REMARK       I    between atoms: C_9  and  N_11 
REMARK    6  A    between atoms: N_11  and  N_12 
REMARK    7  A    between atoms: C_13  and  C_14 
REMARK    8  A    between atoms: C_17  and  O_18 
REMARK    9  A    between atoms: O_18  and  C_19 
REMARK   10  A    between atoms: C_19  and  C_20 
REMARK   11  A    between atoms: N_31  and  C_32 
REMARK   12  A    between atoms: C_36  and  N_37 
ROOT
ATOM      1  C   UNL d   1      27.021 -16.610  -0.570  0.00  0.00     0.293 C 
ATOM      2  O   UNL d   1      27.234 -15.522  -1.072  0.00  0.00    -0.264 OA
ATOM      3  N   UNL d   1      28.086 -17.379   0.010  0.00  0.00    -0.242 N 
ATOM      4  H   UNL d   1      27.951 -18.329   0.305  0.00  0.00     0.192 HD
ENDROOT
BRANCH   1   5
ATOM      5  C   UNL d   1      25.573 -17.122  -0.419  0.00  0.00     0.170 C 
ATOM      6  C   UNL d   1      24.334 -16.770  -1.001  0.00  0.00     0.096 C 
ATOM      7  N   UNL d   1      23.374 -17.648  -0.420  0.00  0.00    -0.215 N 
ATOM      8  N   UNL d   1      24.049 -18.560   0.313  0.00  0.00     0.012 NA
ATOM      9  N   UNL d   1      25.349 -18.300   0.267  0.00  0.00    -0.152 NA
BRANCH   6  10
ATOM     10  C   UNL d   1      23.949 -15.697  -1.953  0.00  0.00     0.296 C 
BRANCH  10  11
ATOM     11  N   UNL d   1      25.146 -14.984  -2.654  0.00  0.00    -0.066 N 
ATOM     12  H   UNL d   1      25.842 -14.775  -1.931  0.00  0.00     0.280 HD
BRANCH  11  13
ATOM     13  C   UNL d   1      25.807 -15.929  -3.641  0.00  0.00     0.231 C 
ATOM     14  C   UNL d   1      25.951 -15.286  -5.006  0.00  0.00     0.034 C 
ENDBRANCH  11  13
BRANCH  11  15
ATOM     15  C   UNL d   1      24.712 -13.705  -3.283  0.00  0.00     0.231 C 
ATOM     16  C   UNL d   1      25.515 -12.447  -3.188  0.00  0.00     0.034 C 
ENDBRANCH  11  15
ENDBRANCH  10  11
ENDBRANCH   6  10
BRANCH   7  17
ATOM     17  C   UNL d   1      21.962 -17.760  -0.672  0.00  0.00     0.219 A 
ATOM     18  N   UNL d   1      21.241 -16.721  -1.101  0.00  0.00    -0.082 NA
ATOM     19  O   UNL d   1      19.947 -17.247  -1.271  0.00  0.00    -0.103 OA
ATOM     20  N   UNL d   1      19.899 -18.593  -0.895  0.00  0.00    -0.089 NA
ATOM     21  C   UNL d   1      21.139 -18.889  -0.519  0.00  0.00     0.180 A 
BRANCH  21  22
ATOM     22  N   UNL d   1      21.539 -20.083  -0.002  0.00  0.00    -0.282 NA
ATOM     23  H   UNL d   1      21.066 -20.303   0.880  0.00  0.00     0.126 HD
ATOM     24  H   UNL d   1      22.542 -20.153   0.138  0.00  0.00     0.126 HD
ENDBRANCH  21  22
ENDBRANCH   7  17
ENDBRANCH   1   5
BRANCH   3  25
ATOM     25  N   UNL d   1      29.377 -16.824   0.230  0.00  0.00    -0.183 NA
ATOM     26  C   UNL d   1      29.477 -15.534   0.439  0.00  0.00     0.150 C 
BRANCH  26  27
ATOM     27  C   UNL d   1      30.739 -14.814   0.830  0.00  0.00    -0.017 A 
ATOM     28  C   UNL d   1      30.962 -14.446   2.171  0.00  0.00     0.015 A 
ATOM     29  C   UNL d   1      32.102 -13.695   2.526  0.00  0.00     0.037 A 
ATOM     30  C   UNL d   1      33.061 -13.363   1.562  0.00  0.00     0.069 A 
ATOM     31  C   UNL d   1      32.826 -13.711   0.235  0.00  0.00     0.037 A 
ATOM     32  C   UNL d   1      31.680 -14.439  -0.128  0.00  0.00     0.015 A 
BRANCH  30  33
ATOM     33  O   UNL d   1      34.190 -12.752   2.020  0.00  0.00    -0.347 OA
BRANCH  33  34
ATOM     34  C   UNL d   1      35.469 -13.297   1.649  0.00  0.00     0.214 C 
BRANCH  34  35
ATOM     35  C   UNL d   1      35.598 -14.690   2.233  0.00  0.00    -0.028 C 
ATOM     36  C   UNL d   1      35.238 -15.808   1.459  0.00  0.00     0.010 C 
ATOM     37  C   UNL d   1      35.162 -17.075   2.037  0.00  0.00     0.001 C 
ATOM     38  C   UNL d   1      35.540 -17.260   3.363  0.00  0.00     0.001 C 
ATOM     39  C   UNL d   1      35.989 -16.176   4.115  0.00  0.00     0.007 C 
ATOM     40  C   UNL d   1      36.039 -14.890   3.558  0.00  0.00    -0.054 C 
ATOM     41  C   UNL d   1      36.577 -13.754   4.381  0.00  0.00     0.049 C 
ENDBRANCH  34  35
ENDBRANCH  33  34
ENDBRANCH  30  33
ENDBRANCH  26  27
ENDBRANCH   3  25
TORSDOF 12
ENDMDL
MODEL 3
REMARK VINA RESULT:   -28.990      3.521      4.593
REMARK INTER + INTRA:         -35.525
REMARK INTER:                 -32.570
REMARK INTRA:                  -2.955
REMARK CONF_INDEPENDENT:        3.580
REMARK UNBOUND:                -2.955
REMARK  12 active torsions:
REMARK  status: ('A' for Active; 'I' for Inactive)
REMARK    1  A    between atoms: C_2  and  N_3 
REMARK    2  A    between atoms: N_3  and  C_4 
REMARK    3  A    between atoms: N_3  and  C_6 
REMARK    4  A    between atoms: C_6  and  C_7 
REMARK    5  A    between atoms: C_8  and  C_9 
REMARK       I    between atoms: C_9  and  N_11 
REMARK    6  A    between atoms: N_11  and  N_12 
REMARK    7  A    between atoms: C_13  and  C_14 
REMARK    8  A    between atoms: C_17  and  O_18 
REMARK    9  A    between atoms: O_18  and  C_19 
REMARK   10  A    between atoms: C_19  and  C_20 
REMARK   11  A    between atoms: N_31  and  C_32 
REMARK   12  A    between atoms: C_36  and  N_37 
ROOT
ATOM      1  C   UNL d   1      26.970 -16.687  -0.115  0.00  0.00     0.293 C 
ATOM      2  O   UNL d   1      27.879 -17.471  -0.315  0.00  0.00    -0.264 OA
ATOM      3  N   UNL d   1      27.208 -15.271  -0.077  0.00  0.00    -0.242 N 
ATOM      4  H   UNL d   1      26.499 -14.625   0.218  0.00  0.00     0.192 HD
ENDROOT
BRANCH   1   5
ATOM      5  C   UNL d   1      25.513 -17.194  -0.042  0.00  0.00     0.170 C 
ATOM      6  C   UNL d   1      24.324 -16.890  -0.742  0.00  0.00     0.096 C 
ATOM      7  N   UNL d   1      23.321 -17.728  -0.176  0.00  0.00    -0.215 N 
ATOM      8  N   UNL d   1      23.936 -18.582   0.670  0.00  0.00     0.012 NA
ATOM      9  N   UNL d   1      25.236 -18.320   0.708  0.00  0.00    -0.152 NA
BRANCH   6  10
ATOM     10  C   UNL d   1      24.015 -15.889  -1.797  0.00  0.00     0.296 C 
BRANCH  10  11
ATOM     11  N   UNL d   1      25.233 -15.033  -2.262  0.00  0.00    -0.066 N 
ATOM     12  H   UNL d   1      25.703 -14.689  -1.419  0.00  0.00     0.280 HD
BRANCH  11  13
ATOM     13  C   UNL d   1      26.233 -15.908  -2.997  0.00  0.00     0.231 C 
ATOM     14  C   UNL d   1      26.511 -15.376  -4.387  0.00  0.00     0.034 C 
ENDBRANCH  11  13
BRANCH  11  15
ATOM     15  C   UNL d   1      24.785 -13.865  -3.071  0.00  0.00     0.231 C 
ATOM     16  C   UNL d   1      25.536 -12.572  -3.104  0.00  0.00     0.034 C 
ENDBRANCH  11  15
ENDBRANCH  10  11
ENDBRANCH   6  10
BRANCH   7  17
ATOM     17  C   UNL d   1      21.933 -17.865  -0.530  0.00  0.00     0.219 A 
ATOM     18  N   UNL d   1      21.229 -16.842  -1.019  0.00  0.00    -0.082 NA
ATOM     19  O   UNL d   1      19.959 -17.390  -1.278  0.00  0.00    -0.103 OA
ATOM     20  N   UNL d   1      19.905 -18.733  -0.894  0.00  0.00    -0.089 NA
ATOM     21  C   UNL d   1      21.119 -19.007  -0.426  0.00  0.00     0.180 A 
BRANCH  21  22
ATOM     22  N   UNL d   1      21.499 -20.189   0.128  0.00  0.00    -0.282 NA
ATOM     23  H   UNL d   1      21.033 -20.366   1.024  0.00  0.00     0.126 HD
ATOM     24  H   UNL d   1      22.502 -20.277   0.258  0.00  0.00     0.126 HD
ENDBRANCH  21  22
ENDBRANCH   7  17
ENDBRANCH   1   5
BRANCH   3  25
ATOM     25  N   UNL d   1      28.448 -14.709  -0.488  0.00  0.00    -0.183 NA
ATOM     26  C   UNL d   1      29.136 -15.323  -1.418  0.00  0.00     0.150 C 
BRANCH  26  27
ATOM     27  C   UNL d   1      30.385 -14.790  -2.067  0.00  0.00    -0.017 A 
ATOM     28  C   UNL d   1      30.304 -13.789  -3.054  0.00  0.00     0.015 A 
ATOM     29  C   UNL d   1      31.464 -13.351  -3.725  0.00  0.00     0.037 A 
ATOM     30  C   UNL d   1      32.720 -13.857  -3.373  0.00  0.00     0.069 A 
ATOM     31  C   UNL d   1      32.794 -14.861  -2.412  0.00  0.00     0.037 A 
ATOM     32  C   UNL d   1      31.638 -15.318  -1.757  0.00  0.00     0.015 A 
BRANCH  30  33
ATOM     33  O   UNL d   1      33.795 -13.279  -3.983  0.00  0.00    -0.347 OA
BRANCH  33  34
ATOM     34  C   UNL d   1      34.077 -13.620  -5.352  0.00  0.00     0.214 C 
BRANCH  34  35
ATOM     35  C   UNL d   1      33.269 -14.847  -5.729  0.00  0.00    -0.028 C 
ATOM     36  C   UNL d   1      32.088 -14.701  -6.477  0.00  0.00     0.010 C 
ATOM     37  C   UNL d   1      31.230 -15.786  -6.667  0.00  0.00     0.001 C 
ATOM     38  C   UNL d   1      31.588 -17.046  -6.200  0.00  0.00     0.001 C 
ATOM     39  C   UNL d   1      32.801 -17.223  -5.538  0.00  0.00     0.007 C 
ATOM     40  C   UNL d   1      33.658 -16.137  -5.310  0.00  0.00    -0.054 C 
ATOM     41  C   UNL d   1      34.982 -16.373  -4.639  0.00  0.00     0.049 C 
ENDBRANCH  34  35
ENDBRANCH  33  34
ENDBRANCH  30  33
ENDBRANCH  26  27
ENDBRANCH   3  25
TORSDOF 12
ENDMDL
MODEL 4
REMARK VINA RESULT:   -28.816      4.002      4.717
REMARK INTER + INTRA:         -35.573
REMARK INTER:                 -32.396
REMARK INTRA:                  -3.178
REMARK CONF_INDEPENDENT:        3.580
REMARK UNBOUND:                -3.178
REMARK  12 active torsions:
REMARK  status: ('A' for Active; 'I' for Inactive)
REMARK    1  A    between atoms: C_2  and  N_3 
REMARK    2  A    between atoms: N_3  and  C_4 
REMARK    3  A    between atoms: N_3  and  C_6 
REMARK    4  A    between atoms: C_6  and  C_7 
REMARK    5  A    between atoms: C_8  and  C_9 
REMARK       I    between atoms: C_9  and  N_11 
REMARK    6  A    between atoms: N_11  and  N_12 
REMARK    7  A    between atoms: C_13  and  C_14 
REMARK    8  A    between atoms: C_17  and  O_18 
REMARK    9  A    between atoms: O_18  and  C_19 
REMARK   10  A    between atoms: C_19  and  C_20 
REMARK   11  A    between atoms: N_31  and  C_32 
REMARK   12  A    between atoms: C_36  and  N_37 
ROOT
ATOM      1  C   UNL d   1      27.035 -16.670  -0.481  0.00  0.00     0.293 C 
ATOM      2  O   UNL d   1      27.516 -16.496  -1.585  0.00  0.00    -0.264 OA
ATOM      3  N   UNL d   1      27.751 -16.297   0.706  0.00  0.00    -0.242 N 
ATOM      4  H   UNL d   1      27.427 -16.556   1.620  0.00  0.00     0.192 HD
ENDROOT
BRANCH   1   5
ATOM      5  C   UNL d   1      25.579 -17.164  -0.341  0.00  0.00     0.170 C 
ATOM      6  C   UNL d   1      24.354 -16.818  -0.955  0.00  0.00     0.096 C 
ATOM      7  N   UNL d   1      23.375 -17.669  -0.365  0.00  0.00    -0.215 N 
ATOM      8  N   UNL d   1      24.028 -18.565   0.406  0.00  0.00     0.012 NA
ATOM      9  N   UNL d   1      25.331 -18.318   0.376  0.00  0.00    -0.152 NA
BRANCH   6  10
ATOM     10  C   UNL d   1      23.996 -15.770  -1.946  0.00  0.00     0.296 C 
BRANCH  10  11
ATOM     11  N   UNL d   1      25.213 -15.064  -2.619  0.00  0.00    -0.066 N 
ATOM     12  H   UNL d   1      25.963 -15.022  -1.923  0.00  0.00     0.280 HD
BRANCH  11  13
ATOM     13  C   UNL d   1      25.728 -15.905  -3.773  0.00  0.00     0.231 C 
ATOM     14  C   UNL d   1      26.939 -15.266  -4.421  0.00  0.00     0.034 C 
ENDBRANCH  11  13
BRANCH  11  15
ATOM     15  C   UNL d   1      24.863 -13.676  -3.029  0.00  0.00     0.231 C 
ATOM     16  C   UNL d   1      25.891 -12.603  -3.201  0.00  0.00     0.034 C 
ENDBRANCH  11  15
ENDBRANCH  10  11
ENDBRANCH   6  10
BRANCH   7  17
ATOM     17  C   UNL d   1      21.967 -17.776  -0.640  0.00  0.00     0.219 A 
ATOM     18  N   UNL d   1      21.256 -16.735  -1.080  0.00  0.00    -0.082 NA
ATOM     19  O   UNL d   1      19.963 -17.256  -1.270  0.00  0.00    -0.103 OA
ATOM     20  N   UNL d   1      19.905 -18.601  -0.895  0.00  0.00    -0.089 NA
ATOM     21  C   UNL d   1      21.138 -18.903  -0.500  0.00  0.00     0.180 A 
BRANCH  21  22
ATOM     22  N   UNL d   1      21.525 -20.098   0.022  0.00  0.00    -0.282 NA
ATOM     23  H   UNL d   1      21.092 -20.283   0.933  0.00  0.00     0.126 HD
ATOM     24  H   UNL d   1      22.531 -20.198   0.113  0.00  0.00     0.126 HD
ENDBRANCH  21  22
ENDBRANCH   7  17
ENDBRANCH   1   5
BRANCH   3  25
ATOM     25  N   UNL d   1      28.937 -15.514   0.650  0.00  0.00    -0.183 NA
ATOM     26  C   UNL d   1      29.149 -14.632   1.596  0.00  0.00     0.150 C 
BRANCH  26  27
ATOM     27  C   UNL d   1      30.412 -13.831   1.767  0.00  0.00    -0.017 A 
ATOM     28  C   UNL d   1      30.837 -12.947   0.757  0.00  0.00     0.015 A 
ATOM     29  C   UNL d   1      32.064 -12.261   0.877  0.00  0.00     0.037 A 
ATOM     30  C   UNL d   1      32.843 -12.400   2.031  0.00  0.00     0.069 A 
ATOM     31  C   UNL d   1      32.429 -13.291   3.017  0.00  0.00     0.037 A 
ATOM     32  C   UNL d   1      31.220 -13.994   2.892  0.00  0.00     0.015 A 
BRANCH  30  33
ATOM     33  O   UNL d   1      33.944 -11.600   2.114  0.00  0.00    -0.347 OA
BRANCH  33  34
ATOM     34  C   UNL d   1      34.285 -11.024   3.388  0.00  0.00     0.214 C 
BRANCH  34  35
ATOM     35  C   UNL d   1      35.125 -12.018   4.167  0.00  0.00    -0.028 C 
ATOM     36  C   UNL d   1      36.024 -12.857   3.485  0.00  0.00     0.010 C 
ATOM     37  C   UNL d   1      36.659 -13.906   4.152  0.00  0.00     0.001 C 
ATOM     38  C   UNL d   1      36.483 -14.069   5.521  0.00  0.00     0.001 C 
ATOM     39  C   UNL d   1      35.667 -13.186   6.227  0.00  0.00     0.007 C 
ATOM     40  C   UNL d   1      34.996 -12.147   5.566  0.00  0.00    -0.054 C 
ATOM     41  C   UNL d   1      34.166 -11.183   6.366  0.00  0.00     0.049 C 
ENDBRANCH  34  35
ENDBRANCH  33  34
ENDBRANCH  30  33
ENDBRANCH  26  27
ENDBRANCH   3  25
TORSDOF 12
ENDMDL
MODEL 5
REMARK VINA RESULT:   -28.748      3.950      5.272
REMARK INTER + INTRA:         -35.937
REMARK INTER:                 -32.327
REMARK INTRA:                  -3.610
REMARK CONF_INDEPENDENT:        3.580
REMARK UNBOUND:                -3.610
REMARK  12 active torsions:
REMARK  status: ('A' for Active; 'I' for Inactive)
REMARK    1  A    between atoms: C_2  and  N_3 
REMARK    2  A    between atoms: N_3  and  C_4 
REMARK    3  A    between atoms: N_3  and  C_6 
REMARK    4  A    between atoms: C_6  and  C_7 
REMARK    5  A    between atoms: C_8  and  C_9 
REMARK       I    between atoms: C_9  and  N_11 
REMARK    6  A    between atoms: N_11  and  N_12 
REMARK    7  A    between atoms: C_13  and  C_14 
REMARK    8  A    between atoms: C_17  and  O_18 
REMARK    9  A    between atoms: O_18  and  C_19 
REMARK   10  A    between atoms: C_19  and  C_20 
REMARK   11  A    between atoms: N_31  and  C_32 
REMARK   12  A    between atoms: C_36  and  N_37 
ROOT
ATOM      1  C   UNL d   1      27.113 -17.040  -0.291  0.00  0.00     0.293 C 
ATOM      2  O   UNL d   1      27.649 -16.982  -1.382  0.00  0.00    -0.264 OA
ATOM      3  N   UNL d   1      27.801 -16.613   0.895  0.00  0.00    -0.242 N 
ATOM      4  H   UNL d   1      27.425 -16.779   1.811  0.00  0.00     0.192 HD
ENDROOT
BRANCH   1   5
ATOM      5  C   UNL d   1      25.627 -17.441  -0.180  0.00  0.00     0.170 C 
ATOM      6  C   UNL d   1      24.445 -17.055  -0.852  0.00  0.00     0.096 C 
ATOM      7  N   UNL d   1      23.399 -17.818  -0.258  0.00  0.00    -0.215 N 
ATOM      8  N   UNL d   1      23.972 -18.711   0.578  0.00  0.00     0.012 NA
ATOM      9  N   UNL d   1      25.288 -18.542   0.582  0.00  0.00    -0.152 NA
BRANCH   6  10
ATOM     10  C   UNL d   1      24.182 -16.038  -1.903  0.00  0.00     0.296 C 
BRANCH  10  11
ATOM     11  N   UNL d   1      25.450 -15.290  -2.420  0.00  0.00    -0.066 N 
ATOM     12  H   UNL d   1      26.183 -15.992  -2.560  0.00  0.00     0.280 HD
BRANCH  11  13
ATOM     13  C   UNL d   1      25.169 -14.670  -3.777  0.00  0.00     0.231 C 
ATOM     14  C   UNL d   1      26.279 -14.980  -4.762  0.00  0.00     0.034 C 
ENDBRANCH  11  13
BRANCH  11  15
ATOM     15  C   UNL d   1      25.926 -14.295  -1.419  0.00  0.00     0.231 C 
ATOM     16  C   UNL d   1      26.917 -13.226  -1.754  0.00  0.00     0.034 C 
ENDBRANCH  11  15
ENDBRANCH  10  11
ENDBRANCH   6  10
BRANCH   7  17
ATOM     17  C   UNL d   1      21.996 -17.856  -0.576  0.00  0.00     0.219 A 
ATOM     18  N   UNL d   1      21.352 -16.782  -1.039  0.00  0.00    -0.082 NA
ATOM     19  O   UNL d   1      20.041 -17.240  -1.270  0.00  0.00    -0.103 OA
ATOM     20  N   UNL d   1      19.905 -18.580  -0.895  0.00  0.00    -0.089 NA
ATOM     21  C   UNL d   1      21.109 -18.940  -0.461  0.00  0.00     0.180 A 
BRANCH  21  22
ATOM     22  N   UNL d   1      21.420 -20.152   0.075  0.00  0.00    -0.282 NA
ATOM     23  H   UNL d   1      20.902 -20.340   0.939  0.00  0.00     0.126 HD
ATOM     24  H   UNL d   1      22.412 -20.277   0.254  0.00  0.00     0.126 HD
ENDBRANCH  21  22
ENDBRANCH   7  17
ENDBRANCH   1   5
BRANCH   3  25
ATOM     25  N   UNL d   1      29.032 -15.902   0.832  0.00  0.00    -0.183 NA
ATOM     26  C   UNL d   1      29.130 -14.765   1.474  0.00  0.00     0.150 C 
BRANCH  26  27
ATOM     27  C   UNL d   1      30.396 -13.965   1.633  0.00  0.00    -0.017 A 
ATOM     28  C   UNL d   1      30.418 -12.595   1.308  0.00  0.00     0.015 A 
ATOM     29  C   UNL d   1      31.623 -11.865   1.372  0.00  0.00     0.037 A 
ATOM     30  C   UNL d   1      32.798 -12.475   1.823  0.00  0.00     0.069 A 
ATOM     31  C   UNL d   1      32.776 -13.834   2.123  0.00  0.00     0.037 A 
ATOM     32  C   UNL d   1      31.584 -14.572   2.039  0.00  0.00     0.015 A 
BRANCH  30  33
ATOM     33  O   UNL d   1      33.880 -11.659   1.977  0.00  0.00    -0.347 OA
BRANCH  33  34
ATOM     34  C   UNL d   1      33.703 -10.397   2.645  0.00  0.00     0.214 C 
BRANCH  34  35
ATOM     35  C   UNL d   1      32.881 -10.617   3.900  0.00  0.00    -0.028 C 
ATOM     36  C   UNL d   1      31.618 -10.012   4.022  0.00  0.00     0.010 C 
ATOM     37  C   UNL d   1      30.933 -10.039   5.237  0.00  0.00     0.001 C 
ATOM     38  C   UNL d   1      31.451 -10.752   6.313  0.00  0.00     0.001 C 
ATOM     39  C   UNL d   1      32.659 -11.434   6.177  0.00  0.00     0.007 C 
ATOM     40  C   UNL d   1      33.376 -11.389   4.973  0.00  0.00    -0.054 C 
ATOM     41  C   UNL d   1      34.648 -12.179   4.844  0.00  0.00     0.049 C 
ENDBRANCH  34  35
ENDBRANCH  33  34
ENDBRANCH  30  33
ENDBRANCH  26  27
ENDBRANCH   3  25
TORSDOF 12
ENDMDL
MODEL 6
REMARK VINA RESULT:   -28.707      3.402      4.955
REMARK INTER + INTRA:         -36.011
REMARK INTER:                 -32.287
REMARK INTRA:                  -3.724
REMARK CONF_INDEPENDENT:        3.580
REMARK UNBOUND:                -3.724
REMARK  12 active torsions:
REMARK  status: ('A' for Active; 'I' for Inactive)
REMARK    1  A    between atoms: C_2  and  N_3 
REMARK    2  A    between atoms: N_3  and  C_4 
REMARK    3  A    between atoms: N_3  and  C_6 
REMARK    4  A    between atoms: C_6  and  C_7 
REMARK    5  A    between atoms: C_8  and  C_9 
REMARK       I    between atoms: C_9  and  N_11 
REMARK    6  A    between atoms: N_11  and  N_12 
REMARK    7  A    between atoms: C_13  and  C_14 
REMARK    8  A    between atoms: C_17  and  O_18 
REMARK    9  A    between atoms: O_18  and  C_19 
REMARK   10  A    between atoms: C_19  and  C_20 
REMARK   11  A    between atoms: N_31  and  C_32 
REMARK   12  A    between atoms: C_36  and  N_37 
ROOT
ATOM      1  C   UNL d   1      27.020 -16.593  -0.555  0.00  0.00     0.293 C 
ATOM      2  O   UNL d   1      27.236 -15.503  -1.050  0.00  0.00    -0.264 OA
ATOM      3  N   UNL d   1      28.085 -17.372   0.013  0.00  0.00    -0.242 N 
ATOM      4  H   UNL d   1      27.946 -18.323   0.301  0.00  0.00     0.192 HD
ENDROOT
BRANCH   1   5
ATOM      5  C   UNL d   1      25.570 -17.098  -0.398  0.00  0.00     0.170 C 
ATOM      6  C   UNL d   1      24.337 -16.768  -1.004  0.00  0.00     0.096 C 
ATOM      7  N   UNL d   1      23.370 -17.622  -0.398  0.00  0.00    -0.215 N 
ATOM      8  N   UNL d   1      24.037 -18.505   0.376  0.00  0.00     0.012 NA
ATOM      9  N   UNL d   1      25.338 -18.247   0.332  0.00  0.00    -0.152 NA
BRANCH   6  10
ATOM     10  C   UNL d   1      23.961 -15.732  -2.002  0.00  0.00     0.296 C 
BRANCH  10  11
ATOM     11  N   UNL d   1      25.166 -14.998  -2.667  0.00  0.00    -0.066 N 
ATOM     12  H   UNL d   1      25.825 -14.756  -1.920  0.00  0.00     0.280 HD
BRANCH  11  13
ATOM     13  C   UNL d   1      25.894 -15.942  -3.607  0.00  0.00     0.231 C 
ATOM     14  C   UNL d   1      26.076 -15.321  -4.977  0.00  0.00     0.034 C 
ENDBRANCH  11  13
BRANCH  11  15
ATOM     15  C   UNL d   1      24.722 -13.745  -3.338  0.00  0.00     0.231 C 
ATOM     16  C   UNL d   1      25.432 -12.441  -3.160  0.00  0.00     0.034 C 
ENDBRANCH  11  15
ENDBRANCH  10  11
ENDBRANCH   6  10
BRANCH   7  17
ATOM     17  C   UNL d   1      21.960 -17.743  -0.659  0.00  0.00     0.219 A 
ATOM     18  N   UNL d   1      21.235 -16.709  -1.092  0.00  0.00    -0.082 NA
ATOM     19  O   UNL d   1      19.946 -17.243  -1.270  0.00  0.00    -0.103 OA
ATOM     20  N   UNL d   1      19.905 -18.589  -0.895  0.00  0.00    -0.089 NA
ATOM     21  C   UNL d   1      21.144 -18.878  -0.512  0.00  0.00     0.180 A 
BRANCH  21  22
ATOM     22  N   UNL d   1      21.549 -20.069   0.007  0.00  0.00    -0.282 NA
ATOM     23  H   UNL d   1      21.090 -20.281   0.899  0.00  0.00     0.126 HD
ATOM     24  H   UNL d   1      22.554 -20.141   0.130  0.00  0.00     0.126 HD
ENDBRANCH  21  22
ENDBRANCH   7  17
ENDBRANCH   1   5
BRANCH   3  25
ATOM     25  N   UNL d   1      29.380 -16.826   0.227  0.00  0.00    -0.183 NA
ATOM     26  C   UNL d   1      29.481 -15.556   0.534  0.00  0.00     0.150 C 
BRANCH  26  27
ATOM     27  C   UNL d   1      30.754 -14.859   0.934  0.00  0.00    -0.017 A 
ATOM     28  C   UNL d   1      31.555 -14.227  -0.036  0.00  0.00     0.015 A 
ATOM     29  C   UNL d   1      32.790 -13.649   0.324  0.00  0.00     0.037 A 
ATOM     30  C   UNL d   1      33.205 -13.638   1.660  0.00  0.00     0.069 A 
ATOM     31  C   UNL d   1      32.421 -14.283   2.611  0.00  0.00     0.037 A 
ATOM     32  C   UNL d   1      31.200 -14.880   2.255  0.00  0.00     0.015 A 
BRANCH  30  33
ATOM     33  O   UNL d   1      34.347 -12.943   1.930  0.00  0.00    -0.347 OA
BRANCH  33  34
ATOM     34  C   UNL d   1      34.263 -11.517   2.105  0.00  0.00     0.214 C 
BRANCH  34  35
ATOM     35  C   UNL d   1      33.042 -11.197   2.945  0.00  0.00    -0.028 C 
ATOM     36  C   UNL d   1      32.988 -11.619   4.286  0.00  0.00     0.010 C 
ATOM     37  C   UNL d   1      31.804 -11.509   5.016  0.00  0.00     0.001 C 
ATOM     38  C   UNL d   1      30.694 -10.889   4.453  0.00  0.00     0.001 C 
ATOM     39  C   UNL d   1      30.763 -10.383   3.157  0.00  0.00     0.007 C 
ATOM     40  C   UNL d   1      31.935 -10.515   2.398  0.00  0.00    -0.054 C 
ATOM     41  C   UNL d   1      31.992  -9.912   1.023  0.00  0.00     0.049 C 
ENDBRANCH  34  35
ENDBRANCH  33  34
ENDBRANCH  30  33
ENDBRANCH  26  27
ENDBRANCH   3  25
TORSDOF 12
ENDMDL
MODEL 7
REMARK VINA RESULT:   -28.427      2.912      3.867
REMARK INTER + INTRA:         -35.570
REMARK INTER:                 -32.006
REMARK INTRA:                  -3.564
REMARK CONF_INDEPENDENT:        3.580
REMARK UNBOUND:                -3.564
REMARK  12 active torsions:
REMARK  status: ('A' for Active; 'I' for Inactive)
REMARK    1  A    between atoms: C_2  and  N_3 
REMARK    2  A    between atoms: N_3  and  C_4 
REMARK    3  A    between atoms: N_3  and  C_6 
REMARK    4  A    between atoms: C_6  and  C_7 
REMARK    5  A    between atoms: C_8  and  C_9 
REMARK       I    between atoms: C_9  and  N_11 
REMARK    6  A    between atoms: N_11  and  N_12 
REMARK    7  A    between atoms: C_13  and  C_14 
REMARK    8  A    between atoms: C_17  and  O_18 
REMARK    9  A    between atoms: O_18  and  C_19 
REMARK   10  A    between atoms: C_19  and  C_20 
REMARK   11  A    between atoms: N_31  and  C_32 
REMARK   12  A    between atoms: C_36  and  N_37 
ROOT
ATOM      1  C   UNL d   1      27.165 -17.202  -0.466  0.00  0.00     0.293 C 
ATOM      2  O   UNL d   1      27.741 -17.263  -1.536  0.00  0.00    -0.264 OA
ATOM      3  N   UNL d   1      27.801 -16.625   0.685  0.00  0.00    -0.242 N 
ATOM      4  H   UNL d   1      27.392 -16.689   1.599  0.00  0.00     0.192 HD
ENDROOT
BRANCH   1   5
ATOM      5  C   UNL d   1      25.681 -17.613  -0.363  0.00  0.00     0.170 C 
ATOM      6  C   UNL d   1      24.475 -17.110  -0.901  0.00  0.00     0.096 C 
ATOM      7  N   UNL d   1      23.448 -17.965  -0.408  0.00  0.00    -0.215 N 
ATOM      8  N   UNL d   1      24.048 -18.995   0.227  0.00  0.00     0.012 NA
ATOM      9  N   UNL d   1      25.364 -18.833   0.203  0.00  0.00    -0.152 NA
BRANCH   6  10
ATOM     10  C   UNL d   1      24.177 -15.920  -1.740  0.00  0.00     0.296 C 
BRANCH  10  11
ATOM     11  N   UNL d   1      25.434 -15.180  -2.295  0.00  0.00    -0.066 N 
ATOM     12  H   UNL d   1      26.089 -15.897  -2.622  0.00  0.00     0.280 HD
BRANCH  11  13
ATOM     13  C   UNL d   1      25.053 -14.346  -3.505  0.00  0.00     0.231 C 
ATOM     14  C   UNL d   1      25.652 -14.916  -4.775  0.00  0.00     0.034 C 
ENDBRANCH  11  13
BRANCH  11  15
ATOM     15  C   UNL d   1      26.095 -14.379  -1.227  0.00  0.00     0.231 C 
ATOM     16  C   UNL d   1      26.433 -12.932  -1.398  0.00  0.00     0.034 C 
ENDBRANCH  11  15
ENDBRANCH  10  11
ENDBRANCH   6  10
BRANCH   7  17
ATOM     17  C   UNL d   1      22.032 -17.943  -0.666  0.00  0.00     0.219 A 
ATOM     18  N   UNL d   1      21.415 -16.841  -1.099  0.00  0.00    -0.082 NA
ATOM     19  O   UNL d   1      20.077 -17.241  -1.273  0.00  0.00    -0.103 OA
ATOM     20  N   UNL d   1      19.900 -18.575  -0.895  0.00  0.00    -0.089 NA
ATOM     21  C   UNL d   1      21.105 -18.988  -0.514  0.00  0.00     0.180 A 
BRANCH  21  22
ATOM     22  N   UNL d   1      21.388 -20.213   0.006  0.00  0.00    -0.282 NA
ATOM     23  H   UNL d   1      20.967 -20.350   0.931  0.00  0.00     0.126 HD
ATOM     24  H   UNL d   1      22.381 -20.414   0.066  0.00  0.00     0.126 HD
ENDBRANCH  21  22
ENDBRANCH   7  17
ENDBRANCH   1   5
BRANCH   3  25
ATOM     25  N   UNL d   1      29.023 -15.905   0.584  0.00  0.00    -0.183 NA
ATOM     26  C   UNL d   1      29.012 -14.732   0.001  0.00  0.00     0.150 C 
BRANCH  26  27
ATOM     27  C   UNL d   1      30.178 -13.782  -0.058  0.00  0.00    -0.017 A 
ATOM     28  C   UNL d   1      30.281 -12.722   0.863  0.00  0.00     0.015 A 
ATOM     29  C   UNL d   1      31.325 -11.780   0.755  0.00  0.00     0.037 A 
ATOM     30  C   UNL d   1      32.311 -11.924  -0.227  0.00  0.00     0.069 A 
ATOM     31  C   UNL d   1      32.193 -12.961  -1.148  0.00  0.00     0.037 A 
ATOM     32  C   UNL d   1      31.142 -13.889  -1.060  0.00  0.00     0.015 A 
BRANCH  30  33
ATOM     33  O   UNL d   1      33.350 -11.043  -0.171  0.00  0.00    -0.347 OA
BRANCH  33  34
ATOM     34  C   UNL d   1      34.411 -11.285   0.770  0.00  0.00     0.214 C 
BRANCH  34  35
ATOM     35  C   UNL d   1      34.440 -12.764   1.106  0.00  0.00    -0.028 C 
ATOM     36  C   UNL d   1      34.954 -13.682   0.173  0.00  0.00     0.010 C 
ATOM     37  C   UNL d   1      34.812 -15.055   0.378  0.00  0.00     0.001 C 
ATOM     38  C   UNL d   1      34.249 -15.529   1.557  0.00  0.00     0.001 C 
ATOM     39  C   UNL d   1      33.821 -14.630   2.533  0.00  0.00     0.007 C 
ATOM     40  C   UNL d   1      33.925 -13.247   2.328  0.00  0.00    -0.054 C 
ATOM     41  C   UNL d   1      33.502 -12.308   3.422  0.00  0.00     0.049 C 
ENDBRANCH  34  35
ENDBRANCH  33  34
ENDBRANCH  30  33
ENDBRANCH  26  27
ENDBRANCH   3  25
TORSDOF 12
ENDMDL
MODEL 8
REMARK VINA RESULT:   -28.345      2.473      3.854
REMARK INTER + INTRA:         -35.702
REMARK INTER:                 -31.924
REMARK INTRA:                  -3.778
REMARK CONF_INDEPENDENT:        3.580
REMARK UNBOUND:                -3.778
REMARK  12 active torsions:
REMARK  status: ('A' for Active; 'I' for Inactive)
REMARK    1  A    between atoms: C_2  and  N_3 
REMARK    2  A    between atoms: N_3  and  C_4 
REMARK    3  A    between atoms: N_3  and  C_6 
REMARK    4  A    between atoms: C_6  and  C_7 
REMARK    5  A    between atoms: C_8  and  C_9 
REMARK       I    between atoms: C_9  and  N_11 
REMARK    6  A    between atoms: N_11  and  N_12 
REMARK    7  A    between atoms: C_13  and  C_14 
REMARK    8  A    between atoms: C_17  and  O_18 
REMARK    9  A    between atoms: O_18  and  C_19 
REMARK   10  A    between atoms: C_19  and  C_20 
REMARK   11  A    between atoms: N_31  and  C_32 
REMARK   12  A    between atoms: C_36  and  N_37 
ROOT
ATOM      1  C   UNL d   1      27.056 -16.740  -0.562  0.00  0.00     0.293 C 
ATOM      2  O   UNL d   1      27.291 -15.646  -1.039  0.00  0.00    -0.264 OA
ATOM      3  N   UNL d   1      28.108 -17.548  -0.012  0.00  0.00    -0.242 N 
ATOM      4  H   UNL d   1      27.951 -18.502   0.261  0.00  0.00     0.192 HD
ENDROOT
BRANCH   1   5
ATOM      5  C   UNL d   1      25.597 -17.219  -0.408  0.00  0.00     0.170 C 
ATOM      6  C   UNL d   1      24.368 -16.854  -1.002  0.00  0.00     0.096 C 
ATOM      7  N   UNL d   1      23.388 -17.700  -0.408  0.00  0.00    -0.215 N 
ATOM      8  N   UNL d   1      24.041 -18.610   0.347  0.00  0.00     0.012 NA
ATOM      9  N   UNL d   1      25.346 -18.377   0.303  0.00  0.00    -0.152 NA
BRANCH   6  10
ATOM     10  C   UNL d   1      24.009 -15.794  -1.980  0.00  0.00     0.296 C 
BRANCH  10  11
ATOM     11  N   UNL d   1      25.222 -15.013  -2.572  0.00  0.00    -0.066 N 
ATOM     12  H   UNL d   1      25.900 -14.884  -1.814  0.00  0.00     0.280 HD
BRANCH  11  13
ATOM     13  C   UNL d   1      25.908 -15.849  -3.638  0.00  0.00     0.231 C 
ATOM     14  C   UNL d   1      25.863 -15.161  -4.987  0.00  0.00     0.034 C 
ENDBRANCH  11  13
BRANCH  11  15
ATOM     15  C   UNL d   1      24.801 -13.674  -3.071  0.00  0.00     0.231 C 
ATOM     16  C   UNL d   1      25.603 -12.435  -2.827  0.00  0.00     0.034 C 
ENDBRANCH  11  15
ENDBRANCH  10  11
ENDBRANCH   6  10
BRANCH   7  17
ATOM     17  C   UNL d   1      21.975 -17.790  -0.665  0.00  0.00     0.219 A 
ATOM     18  N   UNL d   1      21.272 -16.739  -1.096  0.00  0.00    -0.082 NA
ATOM     19  O   UNL d   1      19.970 -17.244  -1.270  0.00  0.00    -0.103 OA
ATOM     20  N   UNL d   1      19.900 -18.589  -0.895  0.00  0.00    -0.089 NA
ATOM     21  C   UNL d   1      21.134 -18.906  -0.516  0.00  0.00     0.180 A 
BRANCH  21  22
ATOM     22  N   UNL d   1      21.513 -20.106   0.001  0.00  0.00    -0.282 NA
ATOM     23  H   UNL d   1      21.032 -20.320   0.881  0.00  0.00     0.126 HD
ATOM     24  H   UNL d   1      22.514 -20.192   0.146  0.00  0.00     0.126 HD
ENDBRANCH  21  22
ENDBRANCH   7  17
ENDBRANCH   1   5
BRANCH   3  25
ATOM     25  N   UNL d   1      29.414 -17.031   0.207  0.00  0.00    -0.183 NA
ATOM     26  C   UNL d   1      30.257 -17.016  -0.796  0.00  0.00     0.150 C 
BRANCH  26  27
ATOM     27  C   UNL d   1      31.618 -16.374  -0.775  0.00  0.00    -0.017 A 
ATOM     28  C   UNL d   1      31.788 -15.050  -1.222  0.00  0.00     0.015 A 
ATOM     29  C   UNL d   1      33.075 -14.476  -1.285  0.00  0.00     0.037 A 
ATOM     30  C   UNL d   1      34.192 -15.192  -0.842  0.00  0.00     0.069 A 
ATOM     31  C   UNL d   1      34.023 -16.507  -0.421  0.00  0.00     0.037 A 
ATOM     32  C   UNL d   1      32.746 -17.092  -0.378  0.00  0.00     0.015 A 
BRANCH  30  33
ATOM     33  O   UNL d   1      35.373 -14.510  -0.818  0.00  0.00    -0.347 OA
BRANCH  33  34
ATOM     34  C   UNL d   1      35.985 -14.234   0.455  0.00  0.00     0.214 C 
BRANCH  34  35
ATOM     35  C   UNL d   1      35.071 -13.323   1.252  0.00  0.00    -0.028 C 
ATOM     36  C   UNL d   1      34.492 -13.786   2.446  0.00  0.00     0.010 C 
ATOM     37  C   UNL d   1      33.501 -13.043   3.089  0.00  0.00     0.001 C 
ATOM     38  C   UNL d   1      33.149 -11.788   2.605  0.00  0.00     0.001 C 
ATOM     39  C   UNL d   1      33.782 -11.276   1.474  0.00  0.00     0.007 C 
ATOM     40  C   UNL d   1      34.756 -12.025   0.798  0.00  0.00    -0.054 C 
ATOM     41  C   UNL d   1      35.456 -11.421  -0.387  0.00  0.00     0.049 C 
ENDBRANCH  34  35
ENDBRANCH  33  34
ENDBRANCH  30  33
ENDBRANCH  26  27
ENDBRANCH   3  25
TORSDOF 12
ENDMDL
MODEL 9
REMARK VINA RESULT:   -28.117      2.892      4.440
REMARK INTER + INTRA:         -35.480
REMARK INTER:                 -31.697
REMARK INTRA:                  -3.783
REMARK CONF_INDEPENDENT:        3.580
REMARK UNBOUND:                -3.783
REMARK  12 active torsions:
REMARK  status: ('A' for Active; 'I' for Inactive)
REMARK    1  A    between atoms: C_2  and  N_3 
REMARK    2  A    between atoms: N_3  and  C_4 
REMARK    3  A    between atoms: N_3  and  C_6 
REMARK    4  A    between atoms: C_6  and  C_7 
REMARK    5  A    between atoms: C_8  and  C_9 
REMARK       I    between atoms: C_9  and  N_11 
REMARK    6  A    between atoms: N_11  and  N_12 
REMARK    7  A    between atoms: C_13  and  C_14 
REMARK    8  A    between atoms: C_17  and  O_18 
REMARK    9  A    between atoms: O_18  and  C_19 
REMARK   10  A    between atoms: C_19  and  C_20 
REMARK   11  A    between atoms: N_31  and  C_32 
REMARK   12  A    between atoms: C_36  and  N_37 
ROOT
ATOM      1  C   UNL d   1      27.068 -16.753  -0.558  0.00  0.00     0.293 C 
ATOM      2  O   UNL d   1      27.306 -15.619  -0.929  0.00  0.00    -0.264 OA
ATOM      3  N   UNL d   1      28.122 -17.629  -0.131  0.00  0.00    -0.242 N 
ATOM      4  H   UNL d   1      27.958 -18.603   0.048  0.00  0.00     0.192 HD
ENDROOT
BRANCH   1   5
ATOM      5  C   UNL d   1      25.606 -17.225  -0.404  0.00  0.00     0.170 C 
ATOM      6  C   UNL d   1      24.381 -16.861  -1.006  0.00  0.00     0.096 C 
ATOM      7  N   UNL d   1      23.395 -17.696  -0.405  0.00  0.00    -0.215 N 
ATOM      8  N   UNL d   1      24.042 -18.600   0.361  0.00  0.00     0.012 NA
ATOM      9  N   UNL d   1      25.348 -18.374   0.318  0.00  0.00    -0.152 NA
BRANCH   6  10
ATOM     10  C   UNL d   1      24.029 -15.810  -1.996  0.00  0.00     0.296 C 
BRANCH  10  11
ATOM     11  N   UNL d   1      25.249 -15.059  -2.613  0.00  0.00    -0.066 N 
ATOM     12  H   UNL d   1      25.922 -14.899  -1.857  0.00  0.00     0.280 HD
BRANCH  11  13
ATOM     13  C   UNL d   1      25.939 -15.943  -3.637  0.00  0.00     0.231 C 
ATOM     14  C   UNL d   1      25.860 -15.340  -5.024  0.00  0.00     0.034 C 
ENDBRANCH  11  13
BRANCH  11  15
ATOM     15  C   UNL d   1      24.836 -13.742  -3.173  0.00  0.00     0.231 C 
ATOM     16  C   UNL d   1      25.610 -12.485  -2.931  0.00  0.00     0.034 C 
ENDBRANCH  11  15
ENDBRANCH  10  11
ENDBRANCH   6  10
BRANCH   7  17
ATOM     17  C   UNL d   1      21.982 -17.782  -0.666  0.00  0.00     0.219 A 
ATOM     18  N   UNL d   1      21.285 -16.733  -1.109  0.00  0.00    -0.082 NA
ATOM     19  O   UNL d   1      19.982 -17.234  -1.282  0.00  0.00    -0.103 OA
ATOM     20  N   UNL d   1      19.905 -18.575  -0.895  0.00  0.00    -0.089 NA
ATOM     21  C   UNL d   1      21.136 -18.893  -0.508  0.00  0.00     0.180 A 
BRANCH  21  22
ATOM     22  N   UNL d   1      21.509 -20.090   0.022  0.00  0.00    -0.282 NA
ATOM     23  H   UNL d   1      21.026 -20.292   0.904  0.00  0.00     0.126 HD
ATOM     24  H   UNL d   1      22.509 -20.179   0.168  0.00  0.00     0.126 HD
ENDBRANCH  21  22
ENDBRANCH   7  17
ENDBRANCH   1   5
BRANCH   3  25
ATOM     25  N   UNL d   1      29.445 -17.156   0.094  0.00  0.00    -0.183 NA
ATOM     26  C   UNL d   1      30.239 -17.007  -0.937  0.00  0.00     0.150 C 
BRANCH  26  27
ATOM     27  C   UNL d   1      31.608 -16.383  -0.893  0.00  0.00    -0.017 A 
ATOM     28  C   UNL d   1      32.450 -16.432  -2.020  0.00  0.00     0.015 A 
ATOM     29  C   UNL d   1      33.765 -15.925  -1.954  0.00  0.00     0.037 A 
ATOM     30  C   UNL d   1      34.228 -15.307  -0.787  0.00  0.00     0.069 A 
ATOM     31  C   UNL d   1      33.400 -15.280   0.331  0.00  0.00     0.037 A 
ATOM     32  C   UNL d   1      32.097 -15.803   0.278  0.00  0.00     0.015 A 
BRANCH  30  33
ATOM     33  O   UNL d   1      35.462 -14.732  -0.859  0.00  0.00    -0.347 OA
BRANCH  33  34
ATOM     34  C   UNL d   1      35.567 -13.303  -0.718  0.00  0.00     0.214 C 
BRANCH  34  35
ATOM     35  C   UNL d   1      34.816 -12.641  -1.857  0.00  0.00    -0.028 C 
ATOM     36  C   UNL d   1      33.688 -11.848  -1.581  0.00  0.00     0.010 C 
ATOM     37  C   UNL d   1      32.872 -11.393  -2.617  0.00  0.00     0.001 C 
ATOM     38  C   UNL d   1      33.224 -11.636  -3.940  0.00  0.00     0.001 C 
ATOM     39  C   UNL d   1      34.390 -12.342  -4.230  0.00  0.00     0.007 C 
ATOM     40  C   UNL d   1      35.204 -12.835  -3.199  0.00  0.00    -0.054 C 
ATOM     41  C   UNL d   1      36.481 -13.545  -3.548  0.00  0.00     0.049 C 
ENDBRANCH  34  35
ENDBRANCH  33  34
ENDBRANCH  30  33
ENDBRANCH  26  27
ENDBRANCH   3  25
TORSDOF 12
ENDMDL
