MODEL 1
REMARK VINA RESULT:    -7.151      0.000      0.000
REMARK INTER + INTRA:          -9.701
REMARK INTER:                  -8.941
REMARK INTRA:                  -0.760
REMARK CONF_INDEPENDENT:        1.790
REMARK UNBOUND:                -0.760
REMARK  6 active torsions:
REMARK  status: ('A' for Active; 'I' for Inactive)
REMARK    1  A    between atoms: C_9  and  C_10 
REMARK    2  A    between atoms: C_10  and  C_11 
REMARK    3  A    between atoms: C_11  and  C_12 
REMARK       I    between atoms: C_12  and  N_14 
REMARK    4  A    between atoms: N_14  and  C_15 
REMARK    5  A    between atoms: C_15  and  C_16 
REMARK    6  A    between atoms: C_19  and  O_20 
ROOT
ATOM      1  C   UNL d   1      27.970 -16.079  -2.600  0.00  0.00     0.107 C 
ENDROOT
BRANCH   1   2
ATOM      2  C   UNL d   1      27.569 -15.370  -3.881  0.00  0.00     0.055 C 
BRANCH   2   3
ATOM      3  C   UNL d   1      27.127 -13.921  -3.699  0.00  0.00     0.033 A 
ATOM      4  C   UNL d   1      25.698 -13.660  -4.099  0.00  0.00     0.257 A 
ATOM      5  N   UNL d   1      25.240 -12.382  -3.954  0.00  0.00    -0.275 N 
ATOM      6  O   UNL d   1      24.972 -14.548  -4.536  0.00  0.00    -0.267 OA
ATOM      7  C   UNL d   1      25.969 -11.340  -3.481  0.00  0.00     0.327 A 
ATOM      8  H   UNL d   1      24.285 -12.192  -4.217  0.00  0.00     0.173 HD
ATOM      9  N   UNL d   1      27.252 -11.628  -3.139  0.00  0.00    -0.312 N 
ATOM     10  O   UNL d   1      25.514 -10.206  -3.364  0.00  0.00    -0.247 OA
ATOM     11  C   UNL d   1      27.835 -12.865  -3.235  0.00  0.00     0.021 A 
ATOM     12  H   UNL d   1      27.785 -10.840  -2.789  0.00  0.00     0.170 HD
ATOM     13  C   UNL d   1      29.271 -12.879  -2.783  0.00  0.00     0.069 C 
ENDBRANCH   2   3
ENDBRANCH   1   2
BRANCH   1  14
ATOM     14  C   UNL d   1      26.983 -16.076  -1.477  0.00  0.00     0.218 C 
ATOM     15  O   UNL d   1      26.373 -15.089  -1.095  0.00  0.00    -0.274 OA
ATOM     16  N   UNL d   1      26.860 -17.339  -0.934  0.00  0.00    -0.357 N 
ATOM     17  H   UNL d   1      27.403 -18.096  -1.321  0.00  0.00     0.162 HD
BRANCH  16  18
ATOM     18  C   UNL d   1      25.962 -17.571   0.165  0.00  0.00     0.161 C 
BRANCH  18  19
ATOM     19  C   UNL d   1      24.501 -17.704  -0.196  0.00  0.00    -0.040 A 
ATOM     20  C   UNL d   1      23.802 -16.534  -0.548  0.00  0.00     0.011 A 
ATOM     21  C   UNL d   1      22.446 -16.577  -0.893  0.00  0.00     0.037 A 
ATOM     22  C   UNL d   1      21.781 -17.796  -0.891  0.00  0.00     0.065 A 
ATOM     23  C   UNL d   1      22.445 -18.963  -0.547  0.00  0.00     0.037 A 
ATOM     24  C   UNL d   1      23.796 -18.917  -0.200  0.00  0.00     0.011 A 
BRANCH  22  25
ATOM     25  O   UNL d   1      20.463 -17.898  -1.222  0.00  0.00    -0.361 OA
ATOM     26  H   UNL d   1      20.245 -17.193  -1.852  0.00  0.00     0.217 HD
ENDBRANCH  22  25
ENDBRANCH  18  19
ENDBRANCH  16  18
ENDBRANCH   1  14
TORSDOF 6
ENDMDL
MODEL 2
REMARK VINA RESULT:    -7.134      2.462      3.760
REMARK INTER + INTRA:          -9.520
REMARK INTER:                  -8.924
REMARK INTRA:                  -0.596
REMARK CONF_INDEPENDENT:        1.790
REMARK UNBOUND:                -0.596
REMARK  6 active torsions:
REMARK  status: ('A' for Active; 'I' for Inactive)
REMARK    1  A    between atoms: C_9  and  C_10 
REMARK    2  A    between atoms: C_10  and  C_11 
REMARK    3  A    between atoms: C_11  and  C_12 
REMARK       I    between atoms: C_12  and  N_14 
REMARK    4  A    between atoms: N_14  and  C_15 
REMARK    5  A    between atoms: C_15  and  C_16 
REMARK    6  A    between atoms: C_19  and  O_20 
ROOT
ATOM      1  C   UNL d   1      25.168 -16.875  -0.190  0.00  0.00     0.107 C 
ENDROOT
BRANCH   1   2
ATOM      2  C   UNL d   1      25.874 -15.582  -0.554  0.00  0.00     0.055 C 
BRANCH   2   3
ATOM      3  C   UNL d   1      26.406 -15.522  -1.983  0.00  0.00     0.033 A 
ATOM      4  C   UNL d   1      25.385 -15.083  -3.000  0.00  0.00     0.257 A 
ATOM      5  N   UNL d   1      25.802 -15.003  -4.299  0.00  0.00    -0.275 N 
ATOM      6  O   UNL d   1      24.231 -14.807  -2.687  0.00  0.00    -0.267 OA
ATOM      7  C   UNL d   1      27.055 -15.288  -4.735  0.00  0.00     0.327 A 
ATOM      8  H   UNL d   1      25.130 -14.710  -4.991  0.00  0.00     0.173 HD
ATOM      9  N   UNL d   1      27.934 -15.684  -3.779  0.00  0.00    -0.312 N 
ATOM     10  O   UNL d   1      27.387 -15.200  -5.914  0.00  0.00    -0.247 OA
ATOM     11  C   UNL d   1      27.646 -15.805  -2.444  0.00  0.00     0.021 A 
ATOM     12  H   UNL d   1      28.865 -15.895  -4.120  0.00  0.00     0.170 HD
ATOM     13  C   UNL d   1      28.822 -16.265  -1.624  0.00  0.00     0.069 C 
ENDBRANCH   2   3
ENDBRANCH   1   2
BRANCH   1  14
ATOM     14  C   UNL d   1      23.768 -17.053  -0.682  0.00  0.00     0.218 C 
ATOM     15  O   UNL d   1      22.919 -16.174  -0.689  0.00  0.00    -0.274 OA
ATOM     16  N   UNL d   1      23.567 -18.345  -1.124  0.00  0.00    -0.357 N 
ATOM     17  H   UNL d   1      24.331 -19.002  -1.085  0.00  0.00     0.162 HD
BRANCH  16  18
ATOM     18  C   UNL d   1      22.287 -18.744  -1.642  0.00  0.00     0.161 C 
BRANCH  18  19
ATOM     19  C   UNL d   1      21.249 -19.126  -0.612  0.00  0.00    -0.040 A 
ATOM     20  C   UNL d   1      20.046 -19.695  -1.072  0.00  0.00     0.011 A 
ATOM     21  C   UNL d   1      19.037 -20.074  -0.179  0.00  0.00     0.037 A 
ATOM     22  C   UNL d   1      19.228 -19.888   1.184  0.00  0.00     0.065 A 
ATOM     23  C   UNL d   1      20.403 -19.329   1.663  0.00  0.00     0.037 A 
ATOM     24  C   UNL d   1      21.405 -18.949   0.770  0.00  0.00     0.011 A 
BRANCH  22  25
ATOM     25  O   UNL d   1      18.282 -20.241   2.099  0.00  0.00    -0.361 OA
ATOM     26  H   UNL d   1      18.192 -21.208   2.096  0.00  0.00     0.217 HD
ENDBRANCH  22  25
ENDBRANCH  18  19
ENDBRANCH  16  18
ENDBRANCH   1  14
TORSDOF 6
ENDMDL
MODEL 3
REMARK VINA RESULT:    -6.940      2.897      4.288
REMARK INTER + INTRA:          -9.436
REMARK INTER:                  -8.730
REMARK INTRA:                  -0.706
REMARK CONF_INDEPENDENT:        1.790
REMARK UNBOUND:                -0.706
REMARK  6 active torsions:
REMARK  status: ('A' for Active; 'I' for Inactive)
REMARK    1  A    between atoms: C_9  and  C_10 
REMARK    2  A    between atoms: C_10  and  C_11 
REMARK    3  A    between atoms: C_11  and  C_12 
REMARK       I    between atoms: C_12  and  N_14 
REMARK    4  A    between atoms: N_14  and  C_15 
REMARK    5  A    between atoms: C_15  and  C_16 
REMARK    6  A    between atoms: C_19  and  O_20 
ROOT
ATOM      1  C   UNL d   1      24.815 -18.177   0.601  0.00  0.00     0.107 C 
ENDROOT
BRANCH   1   2
ATOM      2  C   UNL d   1      26.067 -17.854  -0.194  0.00  0.00     0.055 C 
BRANCH   2   3
ATOM      3  C   UNL d   1      26.089 -16.462  -0.817  0.00  0.00     0.033 A 
ATOM      4  C   UNL d   1      25.344 -16.362  -2.122  0.00  0.00     0.257 A 
ATOM      5  N   UNL d   1      25.321 -15.138  -2.728  0.00  0.00    -0.275 N 
ATOM      6  O   UNL d   1      24.780 -17.329  -2.626  0.00  0.00    -0.267 OA
ATOM      7  C   UNL d   1      25.915 -14.017  -2.246  0.00  0.00     0.327 A 
ATOM      8  H   UNL d   1      24.826 -15.055  -3.603  0.00  0.00     0.173 HD
ATOM      9  N   UNL d   1      26.577 -14.162  -1.069  0.00  0.00    -0.312 N 
ATOM     10  O   UNL d   1      25.866 -12.935  -2.824  0.00  0.00    -0.247 OA
ATOM     11  C   UNL d   1      26.676 -15.332  -0.360  0.00  0.00     0.021 A 
ATOM     12  H   UNL d   1      27.017 -13.318  -0.723  0.00  0.00     0.170 HD
ATOM     13  C   UNL d   1      27.474 -15.188   0.909  0.00  0.00     0.069 C 
ENDBRANCH   2   3
ENDBRANCH   1   2
BRANCH   1  14
ATOM     14  C   UNL d   1      23.633 -18.686  -0.160  0.00  0.00     0.218 C 
ATOM     15  O   UNL d   1      23.562 -19.794  -0.670  0.00  0.00    -0.274 OA
ATOM     16  N   UNL d   1      22.637 -17.731  -0.208  0.00  0.00    -0.357 N 
ATOM     17  H   UNL d   1      22.784 -16.844   0.249  0.00  0.00     0.162 HD
BRANCH  16  18
ATOM     18  C   UNL d   1      21.403 -18.004  -0.893  0.00  0.00     0.161 C 
BRANCH  18  19
ATOM     19  C   UNL d   1      20.481 -18.995  -0.221  0.00  0.00    -0.040 A 
ATOM     20  C   UNL d   1      19.423 -19.528  -0.982  0.00  0.00     0.011 A 
ATOM     21  C   UNL d   1      18.527 -20.450  -0.428  0.00  0.00     0.037 A 
ATOM     22  C   UNL d   1      18.688 -20.849   0.893  0.00  0.00     0.065 A 
ATOM     23  C   UNL d   1      19.721 -20.338   1.663  0.00  0.00     0.037 A 
ATOM     24  C   UNL d   1      20.611 -19.416   1.111  0.00  0.00     0.011 A 
BRANCH  22  25
ATOM     25  O   UNL d   1      17.850 -21.746   1.482  0.00  0.00    -0.361 OA
ATOM     26  H   UNL d   1      17.153 -21.983   0.849  0.00  0.00     0.217 HD
ENDBRANCH  22  25
ENDBRANCH  18  19
ENDBRANCH  16  18
ENDBRANCH   1  14
TORSDOF 6
ENDMDL
MODEL 4
REMARK VINA RESULT:    -6.855      1.726      2.206
REMARK INTER + INTRA:          -9.732
REMARK INTER:                  -8.645
REMARK INTRA:                  -1.087
REMARK CONF_INDEPENDENT:        1.790
REMARK UNBOUND:                -1.087
REMARK  6 active torsions:
REMARK  status: ('A' for Active; 'I' for Inactive)
REMARK    1  A    between atoms: C_9  and  C_10 
REMARK    2  A    between atoms: C_10  and  C_11 
REMARK    3  A    between atoms: C_11  and  C_12 
REMARK       I    between atoms: C_12  and  N_14 
REMARK    4  A    between atoms: N_14  and  C_15 
REMARK    5  A    between atoms: C_15  and  C_16 
REMARK    6  A    between atoms: C_19  and  O_20 
ROOT
ATOM      1  C   UNL d   1      29.001 -16.393  -2.221  0.00  0.00     0.107 C 
ENDROOT
BRANCH   1   2
ATOM      2  C   UNL d   1      28.818 -15.063  -2.928  0.00  0.00     0.055 C 
BRANCH   2   3
ATOM      3  C   UNL d   1      27.366 -14.662  -3.174  0.00  0.00     0.033 A 
ATOM      4  C   UNL d   1      26.855 -15.013  -4.546  0.00  0.00     0.257 A 
ATOM      5  N   UNL d   1      25.559 -14.686  -4.826  0.00  0.00    -0.275 N 
ATOM      6  O   UNL d   1      27.563 -15.568  -5.382  0.00  0.00    -0.267 OA
ATOM      7  C   UNL d   1      24.706 -14.074  -3.966  0.00  0.00     0.327 A 
ATOM      8  H   UNL d   1      25.203 -14.915  -5.740  0.00  0.00     0.173 HD
ATOM      9  N   UNL d   1      25.217 -13.775  -2.743  0.00  0.00    -0.312 N 
ATOM     10  O   UNL d   1      23.546 -13.800  -4.259  0.00  0.00    -0.247 OA
ATOM     11  C   UNL d   1      26.498 -14.048  -2.336  0.00  0.00     0.021 A 
ATOM     12  H   UNL d   1      24.570 -13.316  -2.113  0.00  0.00     0.170 HD
ATOM     13  C   UNL d   1      26.779 -13.599  -0.927  0.00  0.00     0.069 C 
ENDBRANCH   2   3
ENDBRANCH   1   2
BRANCH   1  14
ATOM     14  C   UNL d   1      28.284 -16.583  -0.923  0.00  0.00     0.218 C 
ATOM     15  O   UNL d   1      28.704 -16.210   0.161  0.00  0.00    -0.274 OA
ATOM     16  N   UNL d   1      27.085 -17.239  -1.121  0.00  0.00    -0.357 N 
ATOM     17  H   UNL d   1      26.818 -17.503  -2.057  0.00  0.00     0.162 HD
BRANCH  16  18
ATOM     18  C   UNL d   1      26.225 -17.531  -0.007  0.00  0.00     0.161 C 
BRANCH  18  19
ATOM     19  C   UNL d   1      24.744 -17.563  -0.307  0.00  0.00    -0.040 A 
ATOM     20  C   UNL d   1      24.091 -18.809  -0.257  0.00  0.00     0.011 A 
ATOM     21  C   UNL d   1      22.721 -18.919  -0.523  0.00  0.00     0.037 A 
ATOM     22  C   UNL d   1      21.995 -17.778  -0.839  0.00  0.00     0.065 A 
ATOM     23  C   UNL d   1      22.614 -16.539  -0.895  0.00  0.00     0.037 A 
ATOM     24  C   UNL d   1      23.980 -16.433  -0.633  0.00  0.00     0.011 A 
BRANCH  22  25
ATOM     25  O   UNL d   1      20.659 -17.825  -1.103  0.00  0.00    -0.361 OA
ATOM     26  H   UNL d   1      20.496 -17.399  -1.960  0.00  0.00     0.217 HD
ENDBRANCH  22  25
ENDBRANCH  18  19
ENDBRANCH  16  18
ENDBRANCH   1  14
TORSDOF 6
ENDMDL
MODEL 5
REMARK VINA RESULT:    -6.839      1.533      1.946
REMARK INTER + INTRA:          -9.413
REMARK INTER:                  -8.629
REMARK INTRA:                  -0.784
REMARK CONF_INDEPENDENT:        1.790
REMARK UNBOUND:                -0.784
REMARK  6 active torsions:
REMARK  status: ('A' for Active; 'I' for Inactive)
REMARK    1  A    between atoms: C_9  and  C_10 
REMARK    2  A    between atoms: C_10  and  C_11 
REMARK    3  A    between atoms: C_11  and  C_12 
REMARK       I    between atoms: C_12  and  N_14 
REMARK    4  A    between atoms: N_14  and  C_15 
REMARK    5  A    between atoms: C_15  and  C_16 
REMARK    6  A    between atoms: C_19  and  O_20 
ROOT
ATOM      1  C   UNL d   1      28.017 -15.553  -2.614  0.00  0.00     0.107 C 
ENDROOT
BRANCH   1   2
ATOM      2  C   UNL d   1      27.360 -15.574  -3.982  0.00  0.00     0.055 C 
BRANCH   2   3
ATOM      3  C   UNL d   1      26.891 -14.213  -4.488  0.00  0.00     0.033 A 
ATOM      4  C   UNL d   1      27.880 -13.519  -5.387  0.00  0.00     0.257 A 
ATOM      5  N   UNL d   1      27.517 -12.297  -5.879  0.00  0.00    -0.275 N 
ATOM      6  O   UNL d   1      28.965 -14.018  -5.670  0.00  0.00    -0.267 OA
ATOM      7  C   UNL d   1      26.342 -11.670  -5.619  0.00  0.00     0.327 A 
ATOM      8  H   UNL d   1      28.168 -11.821  -6.482  0.00  0.00     0.173 HD
ATOM      9  N   UNL d   1      25.488 -12.337  -4.800  0.00  0.00    -0.312 N 
ATOM     10  O   UNL d   1      26.055 -10.572  -6.086  0.00  0.00    -0.247 OA
ATOM     11  C   UNL d   1      25.729 -13.565  -4.241  0.00  0.00     0.021 A 
ATOM     12  H   UNL d   1      24.616 -11.855  -4.614  0.00  0.00     0.170 HD
ATOM     13  C   UNL d   1      24.598 -14.054  -3.376  0.00  0.00     0.069 C 
ENDBRANCH   2   3
ENDBRANCH   1   2
BRANCH   1  14
ATOM     14  C   UNL d   1      27.129 -15.725  -1.424  0.00  0.00     0.218 C 
ATOM     15  O   UNL d   1      26.640 -14.805  -0.787  0.00  0.00    -0.274 OA
ATOM     16  N   UNL d   1      26.942 -17.064  -1.146  0.00  0.00    -0.357 N 
ATOM     17  H   UNL d   1      27.382 -17.755  -1.734  0.00  0.00     0.162 HD
BRANCH  16  18
ATOM     18  C   UNL d   1      26.119 -17.466  -0.037  0.00  0.00     0.161 C 
BRANCH  18  19
ATOM     19  C   UNL d   1      24.645 -17.619  -0.332  0.00  0.00    -0.040 A 
ATOM     20  C   UNL d   1      23.899 -16.450  -0.575  0.00  0.00     0.011 A 
ATOM     21  C   UNL d   1      22.529 -16.511  -0.854  0.00  0.00     0.037 A 
ATOM     22  C   UNL d   1      21.896 -17.747  -0.895  0.00  0.00     0.065 A 
ATOM     23  C   UNL d   1      22.607 -18.913  -0.658  0.00  0.00     0.037 A 
ATOM     24  C   UNL d   1      23.972 -18.849  -0.376  0.00  0.00     0.011 A 
BRANCH  22  25
ATOM     25  O   UNL d   1      20.566 -17.866  -1.165  0.00  0.00    -0.361 OA
ATOM     26  H   UNL d   1      20.273 -17.075  -1.644  0.00  0.00     0.217 HD
ENDBRANCH  22  25
ENDBRANCH  18  19
ENDBRANCH  16  18
ENDBRANCH   1  14
TORSDOF 6
ENDMDL
MODEL 6
REMARK VINA RESULT:    -6.833      1.450      1.596
REMARK INTER + INTRA:          -9.398
REMARK INTER:                  -8.623
REMARK INTRA:                  -0.775
REMARK CONF_INDEPENDENT:        1.790
REMARK UNBOUND:                -0.775
REMARK  6 active torsions:
REMARK  status: ('A' for Active; 'I' for Inactive)
REMARK    1  A    between atoms: C_9  and  C_10 
REMARK    2  A    between atoms: C_10  and  C_11 
REMARK    3  A    between atoms: C_11  and  C_12 
REMARK       I    between atoms: C_12  and  N_14 
REMARK    4  A    between atoms: N_14  and  C_15 
REMARK    5  A    between atoms: C_15  and  C_16 
REMARK    6  A    between atoms: C_19  and  O_20 
ROOT
ATOM      1  C   UNL d   1      27.425 -14.438  -1.283  0.00  0.00     0.107 C 
ENDROOT
BRANCH   1   2
ATOM      2  C   UNL d   1      26.406 -13.315  -1.367  0.00  0.00     0.055 C 
BRANCH   2   3
ATOM      3  C   UNL d   1      26.281 -12.665  -2.742  0.00  0.00     0.033 A 
ATOM      4  C   UNL d   1      25.361 -13.395  -3.685  0.00  0.00     0.257 A 
ATOM      5  N   UNL d   1      25.202 -12.859  -4.931  0.00  0.00    -0.275 N 
ATOM      6  O   UNL d   1      24.776 -14.424  -3.358  0.00  0.00    -0.267 OA
ATOM      7  C   UNL d   1      25.806 -11.729  -5.377  0.00  0.00     0.327 A 
ATOM      8  H   UNL d   1      24.588 -13.336  -5.573  0.00  0.00     0.173 HD
ATOM      9  N   UNL d   1      26.629 -11.112  -4.490  0.00  0.00    -0.312 N 
ATOM     10  O   UNL d   1      25.631 -11.281  -6.507  0.00  0.00    -0.247 OA
ATOM     11  C   UNL d   1      26.876 -11.544  -3.212  0.00  0.00     0.021 A 
ATOM     12  H   UNL d   1      27.074 -10.271  -4.838  0.00  0.00     0.170 HD
ATOM     13  C   UNL d   1      27.833 -10.656  -2.462  0.00  0.00     0.069 C 
ENDBRANCH   2   3
ENDBRANCH   1   2
BRANCH   1  14
ATOM     14  C   UNL d   1      26.910 -15.838  -1.372  0.00  0.00     0.218 C 
ATOM     15  O   UNL d   1      26.913 -16.514  -2.389  0.00  0.00    -0.274 OA
ATOM     16  N   UNL d   1      26.431 -16.259  -0.147  0.00  0.00    -0.357 N 
ATOM     17  H   UNL d   1      26.477 -15.631   0.641  0.00  0.00     0.162 HD
BRANCH  16  18
ATOM     18  C   UNL d   1      25.884 -17.580   0.003  0.00  0.00     0.161 C 
BRANCH  18  19
ATOM     19  C   UNL d   1      24.411 -17.723  -0.304  0.00  0.00    -0.040 A 
ATOM     20  C   UNL d   1      23.686 -16.553  -0.599  0.00  0.00     0.011 A 
ATOM     21  C   UNL d   1      22.318 -16.605  -0.892  0.00  0.00     0.037 A 
ATOM     22  C   UNL d   1      21.667 -17.832  -0.895  0.00  0.00     0.065 A 
ATOM     23  C   UNL d   1      22.359 -18.999  -0.606  0.00  0.00     0.037 A 
ATOM     24  C   UNL d   1      23.721 -18.944  -0.311  0.00  0.00     0.011 A 
BRANCH  22  25
ATOM     25  O   UNL d   1      20.339 -17.943  -1.177  0.00  0.00    -0.361 OA
ATOM     26  H   UNL d   1      20.015 -17.085  -1.494  0.00  0.00     0.217 HD
ENDBRANCH  22  25
ENDBRANCH  18  19
ENDBRANCH  16  18
ENDBRANCH   1  14
TORSDOF 6
ENDMDL
MODEL 7
REMARK VINA RESULT:    -6.695      3.085      4.092
REMARK INTER + INTRA:          -9.717
REMARK INTER:                  -8.484
REMARK INTRA:                  -1.232
REMARK CONF_INDEPENDENT:        1.790
REMARK UNBOUND:                -1.232
REMARK  6 active torsions:
REMARK  status: ('A' for Active; 'I' for Inactive)
REMARK    1  A    between atoms: C_9  and  C_10 
REMARK    2  A    between atoms: C_10  and  C_11 
REMARK    3  A    between atoms: C_11  and  C_12 
REMARK       I    between atoms: C_12  and  N_14 
REMARK    4  A    between atoms: N_14  and  C_15 
REMARK    5  A    between atoms: C_15  and  C_16 
REMARK    6  A    between atoms: C_19  and  O_20 
ROOT
ATOM      1  C   UNL d   1      25.982 -14.787  -4.573  0.00  0.00     0.107 C 
ENDROOT
BRANCH   1   2
ATOM      2  C   UNL d   1      27.275 -13.994  -4.622  0.00  0.00     0.055 C 
BRANCH   2   3
ATOM      3  C   UNL d   1      28.379 -14.620  -5.468  0.00  0.00     0.033 A 
ATOM      4  C   UNL d   1      28.974 -15.870  -4.875  0.00  0.00     0.257 A 
ATOM      5  N   UNL d   1      29.964 -16.483  -5.589  0.00  0.00    -0.275 N 
ATOM      6  O   UNL d   1      28.593 -16.326  -3.800  0.00  0.00    -0.267 OA
ATOM      7  C   UNL d   1      30.446 -16.052  -6.781  0.00  0.00     0.327 A 
ATOM      8  H   UNL d   1      30.372 -17.321  -5.204  0.00  0.00     0.173 HD
ATOM      9  N   UNL d   1      29.880 -14.918  -7.270  0.00  0.00    -0.312 N 
ATOM     10  O   UNL d   1      31.338 -16.636  -7.391  0.00  0.00    -0.247 OA
ATOM     11  C   UNL d   1      28.880 -14.208  -6.656  0.00  0.00     0.021 A 
ATOM     12  H   UNL d   1      30.252 -14.608  -8.160  0.00  0.00     0.170 HD
ATOM     13  C   UNL d   1      28.452 -12.993  -7.436  0.00  0.00     0.069 C 
ENDBRANCH   2   3
ENDBRANCH   1   2
BRANCH   1  14
ATOM     14  C   UNL d   1      25.253 -14.830  -3.269  0.00  0.00     0.218 C 
ATOM     15  O   UNL d   1      24.118 -14.414  -3.096  0.00  0.00    -0.274 OA
ATOM     16  N   UNL d   1      26.041 -15.402  -2.290  0.00  0.00    -0.357 N 
ATOM     17  H   UNL d   1      26.966 -15.724  -2.529  0.00  0.00     0.162 HD
BRANCH  16  18
ATOM     18  C   UNL d   1      25.542 -15.547  -0.949  0.00  0.00     0.161 C 
BRANCH  18  19
ATOM     19  C   UNL d   1      24.495 -16.618  -0.747  0.00  0.00    -0.040 A 
ATOM     20  C   UNL d   1      24.935 -17.906  -0.388  0.00  0.00     0.011 A 
ATOM     21  C   UNL d   1      24.026 -18.950  -0.183  0.00  0.00     0.037 A 
ATOM     22  C   UNL d   1      22.666 -18.709  -0.334  0.00  0.00     0.065 A 
ATOM     23  C   UNL d   1      22.207 -17.450  -0.689  0.00  0.00     0.037 A 
ATOM     24  C   UNL d   1      23.116 -16.412  -0.895  0.00  0.00     0.011 A 
BRANCH  22  25
ATOM     25  O   UNL d   1      21.736 -19.686  -0.144  0.00  0.00    -0.361 OA
ATOM     26  H   UNL d   1      22.136 -20.401   0.377  0.00  0.00     0.217 HD
ENDBRANCH  22  25
ENDBRANCH  18  19
ENDBRANCH  16  18
ENDBRANCH   1  14
TORSDOF 6
ENDMDL
MODEL 8
REMARK VINA RESULT:    -6.538      1.949      2.574
REMARK INTER + INTRA:          -9.700
REMARK INTER:                  -8.328
REMARK INTRA:                  -1.373
REMARK CONF_INDEPENDENT:        1.790
REMARK UNBOUND:                -1.373
REMARK  6 active torsions:
REMARK  status: ('A' for Active; 'I' for Inactive)
REMARK    1  A    between atoms: C_9  and  C_10 
REMARK    2  A    between atoms: C_10  and  C_11 
REMARK    3  A    between atoms: C_11  and  C_12 
REMARK       I    between atoms: C_12  and  N_14 
REMARK    4  A    between atoms: N_14  and  C_15 
REMARK    5  A    between atoms: C_15  and  C_16 
REMARK    6  A    between atoms: C_19  and  O_20 
ROOT
ATOM      1  C   UNL d   1      27.661 -14.842  -0.107  0.00  0.00     0.107 C 
ENDROOT
BRANCH   1   2
ATOM      2  C   UNL d   1      26.841 -14.055  -1.112  0.00  0.00     0.055 C 
BRANCH   2   3
ATOM      3  C   UNL d   1      27.179 -14.335  -2.574  0.00  0.00     0.033 A 
ATOM      4  C   UNL d   1      26.020 -14.855  -3.383  0.00  0.00     0.257 A 
ATOM      5  N   UNL d   1      26.257 -15.119  -4.702  0.00  0.00    -0.275 N 
ATOM      6  O   UNL d   1      24.911 -15.036  -2.889  0.00  0.00    -0.267 OA
ATOM      7  C   UNL d   1      27.447 -14.950  -5.330  0.00  0.00     0.327 A 
ATOM      8  H   UNL d   1      25.490 -15.468  -5.256  0.00  0.00     0.173 HD
ATOM      9  N   UNL d   1      28.460 -14.483  -4.555  0.00  0.00    -0.312 N 
ATOM     10  O   UNL d   1      27.615 -15.198  -6.521  0.00  0.00    -0.247 OA
ATOM     11  C   UNL d   1      28.357 -14.179  -3.221  0.00  0.00     0.021 A 
ATOM     12  H   UNL d   1      29.343 -14.363  -5.037  0.00  0.00     0.170 HD
ATOM     13  C   UNL d   1      29.647 -13.682  -2.626  0.00  0.00     0.069 C 
ENDBRANCH   2   3
ENDBRANCH   1   2
BRANCH   1  14
ATOM     14  C   UNL d   1      27.125 -16.168   0.327  0.00  0.00     0.218 C 
ATOM     15  O   UNL d   1      27.411 -16.722   1.377  0.00  0.00    -0.274 OA
ATOM     16  N   UNL d   1      26.264 -16.679  -0.624  0.00  0.00    -0.357 N 
ATOM     17  H   UNL d   1      26.082 -16.145  -1.460  0.00  0.00     0.162 HD
BRANCH  16  18
ATOM     18  C   UNL d   1      25.627 -17.952  -0.417  0.00  0.00     0.161 C 
BRANCH  18  19
ATOM     19  C   UNL d   1      24.125 -17.971  -0.578  0.00  0.00    -0.040 A 
ATOM     20  C   UNL d   1      23.477 -19.221  -0.549  0.00  0.00     0.011 A 
ATOM     21  C   UNL d   1      22.089 -19.320  -0.692  0.00  0.00     0.037 A 
ATOM     22  C   UNL d   1      21.337 -18.165  -0.861  0.00  0.00     0.065 A 
ATOM     23  C   UNL d   1      21.950 -16.922  -0.895  0.00  0.00     0.037 A 
ATOM     24  C   UNL d   1      23.335 -16.826  -0.756  0.00  0.00     0.011 A 
BRANCH  22  25
ATOM     25  O   UNL d   1      19.982 -18.200  -1.001  0.00  0.00    -0.361 OA
ATOM     26  H   UNL d   1      19.717 -17.517  -1.637  0.00  0.00     0.217 HD
ENDBRANCH  22  25
ENDBRANCH  18  19
ENDBRANCH  16  18
ENDBRANCH   1  14
TORSDOF 6
ENDMDL
MODEL 9
REMARK VINA RESULT:    -6.537      1.529      1.897
REMARK INTER + INTRA:          -9.568
REMARK INTER:                  -8.327
REMARK INTRA:                  -1.241
REMARK CONF_INDEPENDENT:        1.790
REMARK UNBOUND:                -1.241
REMARK  6 active torsions:
REMARK  status: ('A' for Active; 'I' for Inactive)
REMARK    1  A    between atoms: C_9  and  C_10 
REMARK    2  A    between atoms: C_10  and  C_11 
REMARK    3  A    between atoms: C_11  and  C_12 
REMARK       I    between atoms: C_12  and  N_14 
REMARK    4  A    between atoms: N_14  and  C_15 
REMARK    5  A    between atoms: C_15  and  C_16 
REMARK    6  A    between atoms: C_19  and  O_20 
ROOT
ATOM      1  C   UNL d   1      28.285 -15.710  -3.405  0.00  0.00     0.107 C 
ENDROOT
BRANCH   1   2
ATOM      2  C   UNL d   1      27.195 -15.573  -4.452  0.00  0.00     0.055 C 
BRANCH   2   3
ATOM      3  C   UNL d   1      26.895 -14.139  -4.880  0.00  0.00     0.033 A 
ATOM      4  C   UNL d   1      25.595 -13.598  -4.346  0.00  0.00     0.257 A 
ATOM      5  N   UNL d   1      25.273 -12.316  -4.689  0.00  0.00    -0.275 N 
ATOM      6  O   UNL d   1      24.853 -14.269  -3.634  0.00  0.00    -0.267 OA
ATOM      7  C   UNL d   1      26.029 -11.503  -5.468  0.00  0.00     0.327 A 
ATOM      8  H   UNL d   1      24.405 -11.939  -4.339  0.00  0.00     0.173 HD
ATOM      9  N   UNL d   1      27.189 -12.041  -5.927  0.00  0.00    -0.312 N 
ATOM     10  O   UNL d   1      25.701 -10.353  -5.749  0.00  0.00    -0.247 OA
ATOM     11  C   UNL d   1      27.629 -13.311  -5.659  0.00  0.00     0.021 A 
ATOM     12  H   UNL d   1      27.742 -11.422  -6.510  0.00  0.00     0.170 HD
ATOM     13  C   UNL d   1      28.951 -13.628  -6.306  0.00  0.00     0.069 C 
ENDBRANCH   2   3
ENDBRANCH   1   2
BRANCH   1  14
ATOM     14  C   UNL d   1      27.921 -16.384  -2.121  0.00  0.00     0.218 C 
ATOM     15  O   UNL d   1      28.715 -16.948  -1.385  0.00  0.00    -0.274 OA
ATOM     16  N   UNL d   1      26.564 -16.280  -1.885  0.00  0.00    -0.357 N 
ATOM     17  H   UNL d   1      25.986 -15.787  -2.548  0.00  0.00     0.162 HD
BRANCH  16  18
ATOM     18  C   UNL d   1      25.988 -16.859  -0.702  0.00  0.00     0.161 C 
BRANCH  18  19
ATOM     19  C   UNL d   1      24.507 -17.154  -0.766  0.00  0.00    -0.040 A 
ATOM     20  C   UNL d   1      24.110 -18.499  -0.889  0.00  0.00     0.011 A 
ATOM     21  C   UNL d   1      22.757 -18.851  -0.956  0.00  0.00     0.037 A 
ATOM     22  C   UNL d   1      21.790 -17.856  -0.895  0.00  0.00     0.065 A 
ATOM     23  C   UNL d   1      22.155 -16.523  -0.775  0.00  0.00     0.037 A 
ATOM     24  C   UNL d   1      23.504 -16.175  -0.713  0.00  0.00     0.011 A 
BRANCH  22  25
ATOM     25  O   UNL d   1      20.459 -18.140  -0.951  0.00  0.00    -0.361 OA
ATOM     26  H   UNL d   1      20.092 -17.754  -1.763  0.00  0.00     0.217 HD
ENDBRANCH  22  25
ENDBRANCH  18  19
ENDBRANCH  16  18
ENDBRANCH   1  14
TORSDOF 6
ENDMDL
