MODEL 1
REMARK VINA RESULT:    -8.649      0.000      0.000
REMARK INTER + INTRA:         -11.973
REMARK INTER:                 -10.140
REMARK INTRA:                  -1.832
REMARK CONF_INDEPENDENT:        1.492
REMARK UNBOUND:                -1.832
REMARK  5 active torsions:
REMARK  status: ('A' for Active; 'I' for Inactive)
REMARK       I    between atoms: C_2  and  N_3 
REMARK    1  A    between atoms: C_2  and  C_14 
REMARK    2  A    between atoms: N_3  and  N_4 
REMARK       I    between atoms: N_4  and  C_5 
REMARK    3  A    between atoms: C_5  and  C_7 
REMARK    4  A    between atoms: C_12  and  O_13 
REMARK    5  A    between atoms: C_18  and  C_19 
ROOT
ATOM      1  O   UNL d   1      25.083 -18.574   0.657  0.00  0.00    -0.266 OA
ATOM      2  C   UNL d   1      24.665 -17.832  -0.233  0.00  0.00     0.270 C 
ATOM      3  N   UNL d   1      23.334 -17.783  -0.625  0.00  0.00    -0.263 N 
ATOM      4  H   UNL d   1      23.003 -17.267  -1.440  0.00  0.00     0.190 HD
ENDROOT
BRANCH   3   5
ATOM      5  N   UNL d   1      22.395 -18.655  -0.022  0.00  0.00    -0.263 N 
ATOM      6  C   UNL d   1      21.052 -18.575  -0.367  0.00  0.00     0.272 C 
ATOM      7  O   UNL d   1      20.634 -17.849  -1.270  0.00  0.00    -0.266 OA
ATOM      8  H   UNL d   1      22.723 -19.220   0.761  0.00  0.00     0.190 HD
BRANCH   6   9
ATOM      9  C   UNL d   1      20.097 -19.445   0.393  0.00  0.00     0.066 A 
ATOM     10  C   UNL d   1      20.281 -19.618   1.777  0.00  0.00     0.020 A 
ATOM     11  C   UNL d   1      19.425 -20.451   2.514  0.00  0.00     0.001 A 
ATOM     12  C   UNL d   1      18.401 -21.143   1.871  0.00  0.00     0.003 A 
ATOM     13  C   UNL d   1      18.223 -20.998   0.493  0.00  0.00     0.037 A 
ATOM     14  C   UNL d   1      19.060 -20.142  -0.238  0.00  0.00     0.081 A 
BRANCH  14  15
ATOM     15  O   UNL d   1      18.876 -20.000  -1.585  0.00  0.00    -0.360 OA
ATOM     16  H   UNL d   1      18.885 -19.059  -1.823  0.00  0.00     0.217 HD
ENDBRANCH  14  15
ENDBRANCH   6   9
ENDBRANCH   3   5
BRANCH   2  17
ATOM     17  C   UNL d   1      25.624 -16.968  -0.991  0.00  0.00     0.034 A 
ATOM     18  C   UNL d   1      26.986 -16.922  -0.675  0.00  0.00     0.017 A 
ATOM     19  C   UNL d   1      27.833 -16.019  -1.331  0.00  0.00     0.002 A 
ATOM     20  C   UNL d   1      27.343 -15.209  -2.355  0.00  0.00     0.016 A 
ATOM     21  C   UNL d   1      25.988 -15.267  -2.715  0.00  0.00     0.048 A 
ATOM     22  C   UNL d   1      25.139 -16.163  -2.035  0.00  0.00     0.033 A 
BRANCH  21  23
ATOM     23  C   UNL d   1      25.458 -14.327  -3.772  0.00  0.00     0.417 C 
ATOM     24  F   UNL d   1      25.607 -14.836  -5.028  0.00  0.00    -0.166 F 
ATOM     25  F   UNL d   1      24.128 -14.068  -3.632  0.00  0.00    -0.166 F 
ATOM     26  F   UNL d   1      26.080 -13.117  -3.787  0.00  0.00    -0.166 F 
ENDBRANCH  21  23
ENDBRANCH   2  17
TORSDOF 5
ENDMDL
MODEL 2
REMARK VINA RESULT:    -7.644      2.201      2.981
REMARK INTER + INTRA:         -10.889
REMARK INTER:                  -9.135
REMARK INTRA:                  -1.754
REMARK CONF_INDEPENDENT:        1.492
REMARK UNBOUND:                -1.754
REMARK  5 active torsions:
REMARK  status: ('A' for Active; 'I' for Inactive)
REMARK       I    between atoms: C_2  and  N_3 
REMARK    1  A    between atoms: C_2  and  C_14 
REMARK    2  A    between atoms: N_3  and  N_4 
REMARK       I    between atoms: N_4  and  C_5 
REMARK    3  A    between atoms: C_5  and  C_7 
REMARK    4  A    between atoms: C_12  and  O_13 
REMARK    5  A    between atoms: C_18  and  C_19 
ROOT
ATOM      1  O   UNL d   1      24.899 -18.537   0.701  0.00  0.00    -0.266 OA
ATOM      2  C   UNL d   1      24.452 -17.753  -0.137  0.00  0.00     0.270 C 
ATOM      3  N   UNL d   1      23.112 -17.695  -0.492  0.00  0.00    -0.263 N 
ATOM      4  H   UNL d   1      22.755 -17.140  -1.269  0.00  0.00     0.190 HD
ENDROOT
BRANCH   3   5
ATOM      5  N   UNL d   1      22.194 -18.605   0.090  0.00  0.00    -0.263 N 
ATOM      6  C   UNL d   1      20.871 -18.622  -0.332  0.00  0.00     0.272 C 
ATOM      7  O   UNL d   1      20.463 -17.955  -1.283  0.00  0.00    -0.266 OA
ATOM      8  H   UNL d   1      22.511 -19.122   0.910  0.00  0.00     0.190 HD
BRANCH   6   9
ATOM      9  C   UNL d   1      19.930 -19.526   0.404  0.00  0.00     0.066 A 
ATOM     10  C   UNL d   1      18.953 -20.234  -0.320  0.00  0.00     0.020 A 
ATOM     11  C   UNL d   1      18.035 -21.065   0.340  0.00  0.00     0.001 A 
ATOM     12  C   UNL d   1      18.061 -21.168   1.729  0.00  0.00     0.003 A 
ATOM     13  C   UNL d   1      19.011 -20.451   2.462  0.00  0.00     0.037 A 
ATOM     14  C   UNL d   1      19.947 -19.645   1.799  0.00  0.00     0.081 A 
BRANCH  14  15
ATOM     15  O   UNL d   1      20.877 -18.950   2.521  0.00  0.00    -0.360 OA
ATOM     16  H   UNL d   1      20.547 -18.057   2.714  0.00  0.00     0.217 HD
ENDBRANCH  14  15
ENDBRANCH   6   9
ENDBRANCH   3   5
BRANCH   2  17
ATOM     17  C   UNL d   1      25.385 -16.844  -0.874  0.00  0.00     0.034 A 
ATOM     18  C   UNL d   1      25.073 -16.331  -2.139  0.00  0.00     0.017 A 
ATOM     19  C   UNL d   1      26.017 -15.575  -2.846  0.00  0.00     0.002 A 
ATOM     20  C   UNL d   1      27.249 -15.264  -2.269  0.00  0.00     0.016 A 
ATOM     21  C   UNL d   1      27.566 -15.735  -0.986  0.00  0.00     0.048 A 
ATOM     22  C   UNL d   1      26.619 -16.513  -0.290  0.00  0.00     0.033 A 
BRANCH  21  23
ATOM     23  C   UNL d   1      28.933 -15.455  -0.407  0.00  0.00     0.417 C 
ATOM     24  F   UNL d   1      29.889 -16.265  -0.944  0.00  0.00    -0.166 F 
ATOM     25  F   UNL d   1      29.356 -14.181  -0.636  0.00  0.00    -0.166 F 
ATOM     26  F   UNL d   1      29.004 -15.641   0.939  0.00  0.00    -0.166 F 
ENDBRANCH  21  23
ENDBRANCH   2  17
TORSDOF 5
ENDMDL
MODEL 3
REMARK VINA RESULT:    -6.911      2.145      2.662
REMARK INTER + INTRA:         -10.010
REMARK INTER:                  -8.403
REMARK INTRA:                  -1.608
REMARK CONF_INDEPENDENT:        1.492
REMARK UNBOUND:                -1.608
REMARK  5 active torsions:
REMARK  status: ('A' for Active; 'I' for Inactive)
REMARK       I    between atoms: C_2  and  N_3 
REMARK    1  A    between atoms: C_2  and  C_14 
REMARK    2  A    between atoms: N_3  and  N_4 
REMARK       I    between atoms: N_4  and  C_5 
REMARK    3  A    between atoms: C_5  and  C_7 
REMARK    4  A    between atoms: C_12  and  O_13 
REMARK    5  A    between atoms: C_18  and  C_19 
ROOT
ATOM      1  O   UNL d   1      24.834 -17.118   0.566  0.00  0.00    -0.266 OA
ATOM      2  C   UNL d   1      24.494 -16.960  -0.607  0.00  0.00     0.270 C 
ATOM      3  N   UNL d   1      23.249 -17.328  -1.098  0.00  0.00    -0.263 N 
ATOM      4  H   UNL d   1      23.005 -17.317  -2.088  0.00  0.00     0.190 HD
ENDROOT
BRANCH   3   5
ATOM      5  N   UNL d   1      22.317 -17.963  -0.239  0.00  0.00    -0.263 N 
ATOM      6  C   UNL d   1      21.430 -18.902  -0.750  0.00  0.00     0.272 C 
ATOM      7  O   UNL d   1      21.479 -19.308  -1.911  0.00  0.00    -0.266 OA
ATOM      8  H   UNL d   1      22.237 -17.596   0.708  0.00  0.00     0.190 HD
BRANCH   6   9
ATOM      9  C   UNL d   1      20.397 -19.448   0.188  0.00  0.00     0.066 A 
ATOM     10  C   UNL d   1      20.651 -19.431   1.572  0.00  0.00     0.020 A 
ATOM     11  C   UNL d   1      19.720 -19.962   2.478  0.00  0.00     0.001 A 
ATOM     12  C   UNL d   1      18.546 -20.546   2.007  0.00  0.00     0.003 A 
ATOM     13  C   UNL d   1      18.293 -20.591   0.634  0.00  0.00     0.037 A 
ATOM     14  C   UNL d   1      19.210 -20.032  -0.268  0.00  0.00     0.081 A 
BRANCH  14  15
ATOM     15  O   UNL d   1      18.954 -20.075  -1.610  0.00  0.00    -0.360 OA
ATOM     16  H   UNL d   1      19.540 -19.457  -2.078  0.00  0.00     0.217 HD
ENDBRANCH  14  15
ENDBRANCH   6   9
ENDBRANCH   3   5
BRANCH   2  17
ATOM     17  C   UNL d   1      25.470 -16.401  -1.594  0.00  0.00     0.034 A 
ATOM     18  C   UNL d   1      25.064 -15.579  -2.651  0.00  0.00     0.017 A 
ATOM     19  C   UNL d   1      25.989 -15.166  -3.619  0.00  0.00     0.002 A 
ATOM     20  C   UNL d   1      27.336 -15.511  -3.502  0.00  0.00     0.016 A 
ATOM     21  C   UNL d   1      27.771 -16.302  -2.428  0.00  0.00     0.048 A 
ATOM     22  C   UNL d   1      26.830 -16.731  -1.470  0.00  0.00     0.033 A 
BRANCH  21  23
ATOM     23  C   UNL d   1      29.218 -16.731  -2.358  0.00  0.00     0.417 C 
ATOM     24  F   UNL d   1      29.548 -17.212  -1.126  0.00  0.00    -0.166 F 
ATOM     25  F   UNL d   1      29.520 -17.726  -3.237  0.00  0.00    -0.166 F 
ATOM     26  F   UNL d   1      30.098 -15.724  -2.610  0.00  0.00    -0.166 F 
ENDBRANCH  21  23
ENDBRANCH   2  17
TORSDOF 5
ENDMDL
MODEL 4
REMARK VINA RESULT:    -6.695      5.288      9.370
REMARK INTER + INTRA:          -9.981
REMARK INTER:                  -8.186
REMARK INTRA:                  -1.795
REMARK CONF_INDEPENDENT:        1.492
REMARK UNBOUND:                -1.795
REMARK  5 active torsions:
REMARK  status: ('A' for Active; 'I' for Inactive)
REMARK       I    between atoms: C_2  and  N_3 
REMARK    1  A    between atoms: C_2  and  C_14 
REMARK    2  A    between atoms: N_3  and  N_4 
REMARK       I    between atoms: N_4  and  C_5 
REMARK    3  A    between atoms: C_5  and  C_7 
REMARK    4  A    between atoms: C_12  and  O_13 
REMARK    5  A    between atoms: C_18  and  C_19 
ROOT
ATOM      1  O   UNL d   1      24.546 -14.450  -4.232  0.00  0.00    -0.266 OA
ATOM      2  C   UNL d   1      25.091 -14.217  -3.152  0.00  0.00     0.270 C 
ATOM      3  N   UNL d   1      25.529 -12.956  -2.773  0.00  0.00    -0.263 N 
ATOM      4  H   UNL d   1      26.090 -12.778  -1.941  0.00  0.00     0.190 HD
ENDROOT
BRANCH   3   5
ATOM      5  N   UNL d   1      25.399 -11.870  -3.674  0.00  0.00    -0.263 N 
ATOM      6  C   UNL d   1      25.938 -10.631  -3.351  0.00  0.00     0.272 C 
ATOM      7  O   UNL d   1      26.637 -10.444  -2.355  0.00  0.00    -0.266 OA
ATOM      8  H   UNL d   1      24.780 -12.003  -4.473  0.00  0.00     0.190 HD
BRANCH   6   9
ATOM      9  C   UNL d   1      25.664  -9.499  -4.294  0.00  0.00     0.066 A 
ATOM     10  C   UNL d   1      25.530  -8.196  -3.778  0.00  0.00     0.020 A 
ATOM     11  C   UNL d   1      25.242  -7.117  -4.627  0.00  0.00     0.001 A 
ATOM     12  C   UNL d   1      25.052  -7.334  -5.991  0.00  0.00     0.003 A 
ATOM     13  C   UNL d   1      25.159  -8.626  -6.511  0.00  0.00     0.037 A 
ATOM     14  C   UNL d   1      25.476  -9.700  -5.666  0.00  0.00     0.081 A 
BRANCH  14  15
ATOM     15  O   UNL d   1      25.584 -10.961  -6.182  0.00  0.00    -0.360 OA
ATOM     16  H   UNL d   1      24.768 -11.459  -6.012  0.00  0.00     0.217 HD
ENDBRANCH  14  15
ENDBRANCH   6   9
ENDBRANCH   3   5
BRANCH   2  17
ATOM     17  C   UNL d   1      25.364 -15.341  -2.201  0.00  0.00     0.034 A 
ATOM     18  C   UNL d   1      26.661 -15.655  -1.782  0.00  0.00     0.017 A 
ATOM     19  C   UNL d   1      26.890 -16.781  -0.981  0.00  0.00     0.002 A 
ATOM     20  C   UNL d   1      25.821 -17.560  -0.535  0.00  0.00     0.016 A 
ATOM     21  C   UNL d   1      24.509 -17.239  -0.912  0.00  0.00     0.048 A 
ATOM     22  C   UNL d   1      24.290 -16.116  -1.735  0.00  0.00     0.033 A 
BRANCH  21  23
ATOM     23  C   UNL d   1      23.372 -18.136  -0.485  0.00  0.00     0.417 C 
ATOM     24  F   UNL d   1      23.522 -18.574   0.797  0.00  0.00    -0.166 F 
ATOM     25  F   UNL d   1      22.161 -17.514  -0.525  0.00  0.00    -0.166 F 
ATOM     26  F   UNL d   1      23.246 -19.257  -1.246  0.00  0.00    -0.166 F 
ENDBRANCH  21  23
ENDBRANCH   2  17
TORSDOF 5
ENDMDL
MODEL 5
REMARK VINA RESULT:    -6.474      4.788      9.332
REMARK INTER + INTRA:          -9.250
REMARK INTER:                  -7.965
REMARK INTRA:                  -1.284
REMARK CONF_INDEPENDENT:        1.492
REMARK UNBOUND:                -1.284
REMARK  5 active torsions:
REMARK  status: ('A' for Active; 'I' for Inactive)
REMARK       I    between atoms: C_2  and  N_3 
REMARK    1  A    between atoms: C_2  and  C_14 
REMARK    2  A    between atoms: N_3  and  N_4 
REMARK       I    between atoms: N_4  and  C_5 
REMARK    3  A    between atoms: C_5  and  C_7 
REMARK    4  A    between atoms: C_12  and  O_13 
REMARK    5  A    between atoms: C_18  and  C_19 
ROOT
ATOM      1  O   UNL d   1      24.780 -14.825  -3.604  0.00  0.00    -0.266 OA
ATOM      2  C   UNL d   1      25.676 -15.159  -2.828  0.00  0.00     0.270 C 
ATOM      3  N   UNL d   1      26.976 -14.678  -2.909  0.00  0.00    -0.263 N 
ATOM      4  H   UNL d   1      27.749 -15.042  -2.352  0.00  0.00     0.190 HD
ENDROOT
BRANCH   3   5
ATOM      5  N   UNL d   1      27.331 -13.794  -3.958  0.00  0.00    -0.263 N 
ATOM      6  C   UNL d   1      27.411 -14.263  -5.263  0.00  0.00     0.272 C 
ATOM      7  O   UNL d   1      27.075 -15.402  -5.587  0.00  0.00    -0.266 OA
ATOM      8  H   UNL d   1      27.660 -12.867  -3.691  0.00  0.00     0.190 HD
BRANCH   6   9
ATOM      9  C   UNL d   1      27.905 -13.306  -6.305  0.00  0.00     0.066 A 
ATOM     10  C   UNL d   1      27.360 -12.009  -6.356  0.00  0.00     0.020 A 
ATOM     11  C   UNL d   1      27.775 -11.097  -7.338  0.00  0.00     0.001 A 
ATOM     12  C   UNL d   1      28.711 -11.481  -8.296  0.00  0.00     0.003 A 
ATOM     13  C   UNL d   1      29.242 -12.774  -8.270  0.00  0.00     0.037 A 
ATOM     14  C   UNL d   1      28.848 -13.675  -7.270  0.00  0.00     0.081 A 
BRANCH  14  15
ATOM     15  O   UNL d   1      29.375 -14.936  -7.247  0.00  0.00    -0.360 OA
ATOM     16  H   UNL d   1      28.686 -15.578  -7.010  0.00  0.00     0.217 HD
ENDBRANCH  14  15
ENDBRANCH   6   9
ENDBRANCH   3   5
BRANCH   2  17
ATOM     17  C   UNL d   1      25.398 -16.178  -1.767  0.00  0.00     0.034 A 
ATOM     18  C   UNL d   1      26.417 -16.715  -0.973  0.00  0.00     0.017 A 
ATOM     19  C   UNL d   1      26.136 -17.747  -0.068  0.00  0.00     0.002 A 
ATOM     20  C   UNL d   1      24.827 -18.200   0.102  0.00  0.00     0.016 A 
ATOM     21  C   UNL d   1      23.784 -17.647  -0.656  0.00  0.00     0.048 A 
ATOM     22  C   UNL d   1      24.079 -16.624  -1.579  0.00  0.00     0.033 A 
BRANCH  21  23
ATOM     23  C   UNL d   1      22.387 -18.203  -0.516  0.00  0.00     0.417 C 
ATOM     24  F   UNL d   1      22.203 -19.318  -1.277  0.00  0.00    -0.166 F 
ATOM     25  F   UNL d   1      22.088 -18.572   0.761  0.00  0.00    -0.166 F 
ATOM     26  F   UNL d   1      21.413 -17.331  -0.895  0.00  0.00    -0.166 F 
ENDBRANCH  21  23
ENDBRANCH   2  17
TORSDOF 5
ENDMDL
MODEL 6
REMARK VINA RESULT:    -6.366      4.514      9.065
REMARK INTER + INTRA:          -9.685
REMARK INTER:                  -7.857
REMARK INTRA:                  -1.828
REMARK CONF_INDEPENDENT:        1.492
REMARK UNBOUND:                -1.828
REMARK  5 active torsions:
REMARK  status: ('A' for Active; 'I' for Inactive)
REMARK       I    between atoms: C_2  and  N_3 
REMARK    1  A    between atoms: C_2  and  C_14 
REMARK    2  A    between atoms: N_3  and  N_4 
REMARK       I    between atoms: N_4  and  C_5 
REMARK    3  A    between atoms: C_5  and  C_7 
REMARK    4  A    between atoms: C_12  and  O_13 
REMARK    5  A    between atoms: C_18  and  C_19 
ROOT
ATOM      1  O   UNL d   1      25.953 -13.950  -1.271  0.00  0.00    -0.266 OA
ATOM      2  C   UNL d   1      25.888 -15.045  -1.832  0.00  0.00     0.270 C 
ATOM      3  N   UNL d   1      26.165 -15.232  -3.180  0.00  0.00    -0.263 N 
ATOM      4  H   UNL d   1      25.993 -16.105  -3.677  0.00  0.00     0.190 HD
ENDROOT
BRANCH   3   5
ATOM      5  N   UNL d   1      26.496 -14.115  -3.987  0.00  0.00    -0.263 N 
ATOM      6  C   UNL d   1      26.977 -14.308  -5.276  0.00  0.00     0.272 C 
ATOM      7  O   UNL d   1      27.029 -15.415  -5.812  0.00  0.00    -0.266 OA
ATOM      8  H   UNL d   1      26.505 -13.202  -3.533  0.00  0.00     0.190 HD
BRANCH   6   9
ATOM      9  C   UNL d   1      27.417 -13.091  -6.031  0.00  0.00     0.066 A 
ATOM     10  C   UNL d   1      28.478 -13.201  -6.949  0.00  0.00     0.020 A 
ATOM     11  C   UNL d   1      28.937 -12.077  -7.651  0.00  0.00     0.001 A 
ATOM     12  C   UNL d   1      28.365 -10.828  -7.417  0.00  0.00     0.003 A 
ATOM     13  C   UNL d   1      27.326 -10.701  -6.491  0.00  0.00     0.037 A 
ATOM     14  C   UNL d   1      26.849 -11.831  -5.812  0.00  0.00     0.081 A 
BRANCH  14  15
ATOM     15  O   UNL d   1      25.829 -11.701  -4.911  0.00  0.00    -0.360 OA
ATOM     16  H   UNL d   1      25.006 -11.475  -5.375  0.00  0.00     0.217 HD
ENDBRANCH  14  15
ENDBRANCH   6   9
ENDBRANCH   3   5
BRANCH   2  17
ATOM     17  C   UNL d   1      25.432 -16.246  -1.064  0.00  0.00     0.034 A 
ATOM     18  C   UNL d   1      26.324 -17.039  -0.334  0.00  0.00     0.017 A 
ATOM     19  C   UNL d   1      25.881 -18.218   0.280  0.00  0.00     0.002 A 
ATOM     20  C   UNL d   1      24.533 -18.576   0.230  0.00  0.00     0.016 A 
ATOM     21  C   UNL d   1      23.615 -17.774  -0.464  0.00  0.00     0.048 A 
ATOM     22  C   UNL d   1      24.073 -16.601  -1.096  0.00  0.00     0.033 A 
BRANCH  21  23
ATOM     23  C   UNL d   1      22.175 -18.217  -0.574  0.00  0.00     0.417 C 
ATOM     24  F   UNL d   1      22.026 -19.252  -1.448  0.00  0.00    -0.166 F 
ATOM     25  F   UNL d   1      21.662 -18.654   0.610  0.00  0.00    -0.166 F 
ATOM     26  F   UNL d   1      21.336 -17.239  -1.012  0.00  0.00    -0.166 F 
ENDBRANCH  21  23
ENDBRANCH   2  17
TORSDOF 5
ENDMDL
