MODEL 1
REMARK VINA RESULT:   -28.579      0.000      0.000
REMARK INTER + INTRA:         -33.062
REMARK INTER:                 -30.667
REMARK INTRA:                  -2.395
REMARK CONF_INDEPENDENT:        2.088
REMARK UNBOUND:                -2.395
REMARK  7 active torsions:
REMARK  status: ('A' for Active; 'I' for Inactive)
REMARK    1  A    between atoms: C_3  and  C_4 
REMARK       I    between atoms: C_4  and  N_6 
REMARK    2  A    between atoms: N_6  and  N_7 
REMARK    3  A    between atoms: N_13  and  C_14 
REMARK    4  A    between atoms: C_14  and  C_15 
REMARK    5  A    between atoms: N_20  and  C_21 
REMARK    6  A    between atoms: C_21  and  C_22 
REMARK       I    between atoms: C_22  and  N_24 
REMARK    7  A    between atoms: N_24  and  C_25 
ROOT
ATOM      1  C   UNL d   1      24.233 -19.384  -0.134  0.00  0.00     0.051 C 
ATOM      2  C   UNL d   1      24.237 -17.967  -0.690  0.00  0.00    -0.021 A 
ATOM      3  C   UNL d   1      23.082 -17.241  -1.104  0.00  0.00     0.083 A 
ATOM      4  S   UNL d   1      23.516 -15.675  -1.636  0.00  0.00    -0.065 SA
ATOM      5  C   UNL d   1      25.135 -15.894  -1.350  0.00  0.00     0.098 A 
ATOM      6  C   UNL d   1      25.483 -17.132  -0.869  0.00  0.00     0.074 A 
ATOM      7  C   UNL d   1      26.949 -17.347  -0.637  0.00  0.00     0.265 C 
ATOM      8  O   UNL d   1      27.397 -18.402  -0.200  0.00  0.00    -0.267 OA
ATOM      9  N   UNL d   1      27.771 -16.248  -1.017  0.00  0.00    -0.265 N 
ATOM     10  C   UNL d   1      27.279 -15.311  -1.918  0.00  0.00     0.333 C 
ATOM     11  O   UNL d   1      27.924 -14.898  -2.887  0.00  0.00    -0.246 OA
ATOM     12  N   UNL d   1      25.990 -14.861  -1.708  0.00  0.00    -0.283 N 
ENDROOT
BRANCH  12  13
ATOM     13  C   UNL d   1      25.540 -13.596  -2.364  0.00  0.00     0.237 C 
BRANCH  13  14
ATOM     14  C   UNL d   1      25.880 -13.398  -3.861  0.00  0.00     0.240 C 
ATOM     15  O   UNL d   1      25.200 -13.894  -4.757  0.00  0.00    -0.271 OA
ATOM     16  N   UNL d   1      27.055 -12.728  -4.189  0.00  0.00    -0.326 N 
ATOM     17  H   UNL d   1      27.861 -12.889  -3.598  0.00  0.00     0.169 HD
BRANCH  16  18
ATOM     18  C   UNL d   1      27.288 -12.502  -5.579  0.00  0.00     0.034 A 
ATOM     19  C   UNL d   1      26.693 -11.432  -6.245  0.00  0.00     0.031 A 
ATOM     20  C   UNL d   1      27.004 -11.191  -7.593  0.00  0.00     0.021 A 
ATOM     21  C   UNL d   1      27.888 -12.032  -8.275  0.00  0.00     0.011 A 
ATOM     22 BR   UNL d   1      28.256 -11.731 -10.105  0.00  0.00    -0.051 Br
ATOM     23  C   UNL d   1      28.495 -13.093  -7.617  0.00  0.00     0.021 A 
ATOM     24  C   UNL d   1      28.200 -13.320  -6.272  0.00  0.00     0.031 A 
ENDBRANCH  16  18
ENDBRANCH  13  14
ENDBRANCH  12  13
BRANCH   9  25
ATOM     25  C   UNL d   1      29.261 -16.304  -0.864  0.00  0.00     0.141 C 
BRANCH  25  26
ATOM     26  C   UNL d   1      29.921 -15.201   0.043  0.00  0.00    -0.004 C 
ATOM     27  C   UNL d   1      30.349 -13.976  -0.770  0.00  0.00     0.011 C 
ATOM     28  C   UNL d   1      29.043 -14.725   1.199  0.00  0.00     0.011 C 
ENDBRANCH  25  26
ENDBRANCH   9  25
BRANCH   3  29
ATOM     29  C   UNL d   1      21.614 -17.505  -1.168  0.00  0.00     0.273 C 
ATOM     30  O   UNL d   1      20.750 -16.634  -1.272  0.00  0.00    -0.266 OA
ATOM     31  N   UNL d   1      21.235 -18.880  -1.096  0.00  0.00    -0.289 N 
ATOM     32  H   UNL d   1      21.966 -19.592  -1.094  0.00  0.00     0.183 HD
BRANCH  31  33
ATOM     33  N   UNL d   1      19.900 -19.324  -1.267  0.00  0.00    -0.247 NA
ATOM     34  H   UNL d   1      19.753 -19.490  -2.269  0.00  0.00     0.143 HD
ATOM     35  H   UNL d   1      19.258 -18.563  -1.023  0.00  0.00     0.143 HD
ENDBRANCH  31  33
ENDBRANCH   3  29
TORSDOF 7
ENDMDL
MODEL 2
REMARK VINA RESULT:   -28.066      1.947      2.147
REMARK INTER + INTRA:         -32.139
REMARK INTER:                 -30.154
REMARK INTRA:                  -1.984
REMARK CONF_INDEPENDENT:        2.088
REMARK UNBOUND:                -1.984
REMARK  7 active torsions:
REMARK  status: ('A' for Active; 'I' for Inactive)
REMARK    1  A    between atoms: C_3  and  C_4 
REMARK       I    between atoms: C_4  and  N_6 
REMARK    2  A    between atoms: N_6  and  N_7 
REMARK    3  A    between atoms: N_13  and  C_14 
REMARK    4  A    between atoms: C_14  and  C_15 
REMARK    5  A    between atoms: N_20  and  C_21 
REMARK    6  A    between atoms: C_21  and  C_22 
REMARK       I    between atoms: C_22  and  N_24 
REMARK    7  A    between atoms: N_24  and  C_25 
ROOT
ATOM      1  C   UNL d   1      24.098 -18.574   1.018  0.00  0.00     0.051 C 
ATOM      2  C   UNL d   1      24.349 -17.570  -0.099  0.00  0.00    -0.021 A 
ATOM      3  C   UNL d   1      23.340 -16.964  -0.903  0.00  0.00     0.083 A 
ATOM      4  S   UNL d   1      24.038 -15.873  -2.020  0.00  0.00    -0.065 SA
ATOM      5  C   UNL d   1      25.590 -16.147  -1.504  0.00  0.00     0.098 A 
ATOM      6  C   UNL d   1      25.718 -17.072  -0.497  0.00  0.00     0.074 A 
ATOM      7  C   UNL d   1      27.122 -17.347  -0.046  0.00  0.00     0.265 C 
ATOM      8  O   UNL d   1      27.379 -18.143   0.852  0.00  0.00    -0.267 OA
ATOM      9  N   UNL d   1      28.122 -16.651  -0.783  0.00  0.00    -0.265 N 
ATOM     10  C   UNL d   1      27.818 -16.162  -2.048  0.00  0.00     0.333 C 
ATOM     11  O   UNL d   1      28.553 -16.315  -3.029  0.00  0.00    -0.246 OA
ATOM     12  N   UNL d   1      26.611 -15.504  -2.189  0.00  0.00    -0.283 N 
ENDROOT
BRANCH  12  13
ATOM     13  C   UNL d   1      26.393 -14.621  -3.374  0.00  0.00     0.237 C 
BRANCH  13  14
ATOM     14  C   UNL d   1      27.446 -14.660  -4.508  0.00  0.00     0.240 C 
ATOM     15  O   UNL d   1      27.249 -15.257  -5.564  0.00  0.00    -0.271 OA
ATOM     16  N   UNL d   1      28.695 -14.092  -4.270  0.00  0.00    -0.326 N 
ATOM     17  H   UNL d   1      29.081 -14.194  -3.339  0.00  0.00     0.169 HD
BRANCH  16  18
ATOM     18  C   UNL d   1      29.606 -14.083  -5.368  0.00  0.00     0.034 A 
ATOM     19  C   UNL d   1      30.201 -12.900  -5.803  0.00  0.00     0.031 A 
ATOM     20  C   UNL d   1      31.152 -12.937  -6.835  0.00  0.00     0.021 A 
ATOM     21  C   UNL d   1      31.487 -14.149  -7.443  0.00  0.00     0.011 A 
ATOM     22 BR   UNL d   1      32.728 -14.180  -8.870  0.00  0.00    -0.051 Br
ATOM     23  C   UNL d   1      30.909 -15.336  -7.009  0.00  0.00     0.021 A 
ATOM     24  C   UNL d   1      29.978 -15.299  -5.970  0.00  0.00     0.031 A 
ENDBRANCH  16  18
ENDBRANCH  13  14
ENDBRANCH  12  13
BRANCH   9  25
ATOM     25  C   UNL d   1      29.577 -16.824  -0.470  0.00  0.00     0.141 C 
BRANCH  25  26
ATOM     26  C   UNL d   1      30.333 -15.567   0.099  0.00  0.00    -0.004 C 
ATOM     27  C   UNL d   1      31.559 -15.209  -0.744  0.00  0.00     0.011 C 
ATOM     28  C   UNL d   1      29.465 -14.317   0.236  0.00  0.00     0.011 C 
ENDBRANCH  25  26
ENDBRANCH   9  25
BRANCH   3  29
ATOM     29  C   UNL d   1      21.852 -17.037  -0.995  0.00  0.00     0.273 C 
ATOM     30  O   UNL d   1      21.120 -16.087  -1.270  0.00  0.00    -0.266 OA
ATOM     31  N   UNL d   1      21.284 -18.321  -0.731  0.00  0.00    -0.289 N 
ATOM     32  H   UNL d   1      21.909 -19.115  -0.587  0.00  0.00     0.183 HD
BRANCH  31  33
ATOM     33  N   UNL d   1      19.905 -18.605  -0.895  0.00  0.00    -0.247 NA
ATOM     34  H   UNL d   1      19.427 -17.721  -1.100  0.00  0.00     0.143 HD
ATOM     35  H   UNL d   1      19.518 -18.919   0.001  0.00  0.00     0.143 HD
ENDBRANCH  31  33
ENDBRANCH   3  29
TORSDOF 7
ENDMDL
MODEL 3
REMARK VINA RESULT:   -27.930      2.045      2.320
REMARK INTER + INTRA:         -32.072
REMARK INTER:                 -30.018
REMARK INTRA:                  -2.054
REMARK CONF_INDEPENDENT:        2.088
REMARK UNBOUND:                -2.054
REMARK  7 active torsions:
REMARK  status: ('A' for Active; 'I' for Inactive)
REMARK    1  A    between atoms: C_3  and  C_4 
REMARK       I    between atoms: C_4  and  N_6 
REMARK    2  A    between atoms: N_6  and  N_7 
REMARK    3  A    between atoms: N_13  and  C_14 
REMARK    4  A    between atoms: C_14  and  C_15 
REMARK    5  A    between atoms: N_20  and  C_21 
REMARK    6  A    between atoms: C_21  and  C_22 
REMARK       I    between atoms: C_22  and  N_24 
REMARK    7  A    between atoms: N_24  and  C_25 
ROOT
ATOM      1  C   UNL d   1      25.374 -18.573   1.028  0.00  0.00     0.051 C 
ATOM      2  C   UNL d   1      24.856 -17.562   0.016  0.00  0.00    -0.021 A 
ATOM      3  C   UNL d   1      23.493 -17.413  -0.376  0.00  0.00     0.083 A 
ATOM      4  S   UNL d   1      23.331 -16.145  -1.512  0.00  0.00    -0.065 SA
ATOM      5  C   UNL d   1      24.948 -15.776  -1.514  0.00  0.00     0.098 A 
ATOM      6  C   UNL d   1      25.730 -16.565  -0.708  0.00  0.00     0.074 A 
ATOM      7  C   UNL d   1      27.198 -16.257  -0.729  0.00  0.00     0.265 C 
ATOM      8  O   UNL d   1      28.009 -16.878  -0.049  0.00  0.00    -0.267 OA
ATOM      9  N   UNL d   1      27.569 -15.228  -1.641  0.00  0.00    -0.265 N 
ATOM     10  C   UNL d   1      26.716 -14.911  -2.691  0.00  0.00     0.333 C 
ATOM     11  O   UNL d   1      27.100 -14.768  -3.856  0.00  0.00    -0.246 OA
ATOM     12  N   UNL d   1      25.374 -14.787  -2.389  0.00  0.00    -0.283 N 
ENDROOT
BRANCH  12  13
ATOM     13  C   UNL d   1      24.472 -14.073  -3.343  0.00  0.00     0.237 C 
BRANCH  13  14
ATOM     14  C   UNL d   1      25.072 -12.911  -4.172  0.00  0.00     0.240 C 
ATOM     15  O   UNL d   1      25.422 -13.055  -5.341  0.00  0.00    -0.271 OA
ATOM     16  N   UNL d   1      25.320 -11.700  -3.531  0.00  0.00    -0.326 N 
ATOM     17  H   UNL d   1      25.648 -11.741  -2.574  0.00  0.00     0.169 HD
BRANCH  16  18
ATOM     18  C   UNL d   1      25.800 -10.636  -4.352  0.00  0.00     0.034 A 
ATOM     19  C   UNL d   1      25.143  -9.408  -4.399  0.00  0.00     0.031 A 
ATOM     20  C   UNL d   1      25.685  -8.357  -5.156  0.00  0.00     0.021 A 
ATOM     21  C   UNL d   1      26.867  -8.543  -5.879  0.00  0.00     0.011 A 
ATOM     22 BR   UNL d   1      27.557  -7.138  -6.938  0.00  0.00    -0.051 Br
ATOM     23  C   UNL d   1      27.536  -9.759  -5.827  0.00  0.00     0.021 A 
ATOM     24  C   UNL d   1      27.006 -10.797  -5.060  0.00  0.00     0.031 A 
ENDBRANCH  16  18
ENDBRANCH  13  14
ENDBRANCH  12  13
BRANCH   9  25
ATOM     25  C   UNL d   1      28.999 -14.807  -1.795  0.00  0.00     0.141 C 
BRANCH  25  26
ATOM     26  C   UNL d   1      29.363 -13.353  -1.318  0.00  0.00    -0.004 C 
ATOM     27  C   UNL d   1      29.384 -12.359  -2.483  0.00  0.00     0.011 C 
ATOM     28  C   UNL d   1      28.446 -12.796  -0.231  0.00  0.00     0.011 C 
ENDBRANCH  25  26
ENDBRANCH   9  25
BRANCH   3  29
ATOM     29  C   UNL d   1      22.199 -18.071  -0.031  0.00  0.00     0.273 C 
ATOM     30  O   UNL d   1      21.936 -18.569   1.064  0.00  0.00    -0.266 OA
ATOM     31  N   UNL d   1      21.230 -18.105  -1.081  0.00  0.00    -0.289 N 
ATOM     32  H   UNL d   1      21.432 -17.615  -1.953  0.00  0.00     0.183 HD
BRANCH  31  33
ATOM     33  N   UNL d   1      19.906 -18.575  -0.895  0.00  0.00    -0.247 NA
ATOM     34  H   UNL d   1      19.267 -17.870  -1.278  0.00  0.00     0.143 HD
ATOM     35  H   UNL d   1      19.698 -18.610   0.109  0.00  0.00     0.143 HD
ENDBRANCH  31  33
ENDBRANCH   3  29
TORSDOF 7
ENDMDL
MODEL 4
REMARK VINA RESULT:   -25.818      2.884      3.334
REMARK INTER + INTRA:         -30.784
REMARK INTER:                 -27.906
REMARK INTRA:                  -2.878
REMARK CONF_INDEPENDENT:        2.088
REMARK UNBOUND:                -2.878
REMARK  7 active torsions:
REMARK  status: ('A' for Active; 'I' for Inactive)
REMARK    1  A    between atoms: C_3  and  C_4 
REMARK       I    between atoms: C_4  and  N_6 
REMARK    2  A    between atoms: N_6  and  N_7 
REMARK    3  A    between atoms: N_13  and  C_14 
REMARK    4  A    between atoms: C_14  and  C_15 
REMARK    5  A    between atoms: N_20  and  C_21 
REMARK    6  A    between atoms: C_21  and  C_22 
REMARK       I    between atoms: C_22  and  N_24 
REMARK    7  A    between atoms: N_24  and  C_25 
ROOT
ATOM      1  C   UNL d   1      24.121 -18.811   0.605  0.00  0.00     0.051 C 
ATOM      2  C   UNL d   1      24.163 -17.565  -0.268  0.00  0.00    -0.021 A 
ATOM      3  C   UNL d   1      23.040 -16.981  -0.924  0.00  0.00     0.083 A 
ATOM      4  S   UNL d   1      23.508 -15.577  -1.780  0.00  0.00    -0.065 SA
ATOM      5  C   UNL d   1      25.102 -15.688  -1.333  0.00  0.00     0.098 A 
ATOM      6  C   UNL d   1      25.416 -16.771  -0.550  0.00  0.00     0.074 A 
ATOM      7  C   UNL d   1      26.861 -16.895  -0.168  0.00  0.00     0.265 C 
ATOM      8  O   UNL d   1      27.278 -17.808   0.538  0.00  0.00    -0.267 OA
ATOM      9  N   UNL d   1      27.707 -15.900  -0.737  0.00  0.00    -0.265 N 
ATOM     10  C   UNL d   1      27.281 -15.212  -1.867  0.00  0.00     0.333 C 
ATOM     11  O   UNL d   1      27.995 -15.027  -2.857  0.00  0.00    -0.246 OA
ATOM     12  N   UNL d   1      25.978 -14.752  -1.864  0.00  0.00    -0.283 N 
ENDROOT
BRANCH  12  13
ATOM     13  C   UNL d   1      25.575 -13.687  -2.831  0.00  0.00     0.237 C 
BRANCH  13  14
ATOM     14  C   UNL d   1      26.279 -12.312  -2.725  0.00  0.00     0.240 C 
ATOM     15  O   UNL d   1      25.751 -11.275  -3.120  0.00  0.00    -0.271 OA
ATOM     16  N   UNL d   1      27.594 -12.276  -2.267  0.00  0.00    -0.326 N 
ATOM     17  H   UNL d   1      28.203 -13.035  -2.547  0.00  0.00     0.169 HD
BRANCH  16  18
ATOM     18  C   UNL d   1      28.174 -10.982  -2.113  0.00  0.00     0.034 A 
ATOM     19  C   UNL d   1      29.193 -10.542  -2.958  0.00  0.00     0.031 A 
ATOM     20  C   UNL d   1      29.688  -9.235  -2.829  0.00  0.00     0.021 A 
ATOM     21  C   UNL d   1      29.183  -8.381  -1.845  0.00  0.00     0.011 A 
ATOM     22 BR   UNL d   1      29.896  -6.642  -1.644  0.00  0.00    -0.051 Br
ATOM     23  C   UNL d   1      28.159  -8.805  -1.006  0.00  0.00     0.021 A 
ATOM     24  C   UNL d   1      27.655 -10.099  -1.148  0.00  0.00     0.031 A 
ENDBRANCH  16  18
ENDBRANCH  13  14
ENDBRANCH  12  13
BRANCH   9  25
ATOM     25  C   UNL d   1      29.180 -15.888  -0.468  0.00  0.00     0.141 C 
BRANCH  25  26
ATOM     26  C   UNL d   1      29.766 -14.591   0.202  0.00  0.00    -0.004 C 
ATOM     27  C   UNL d   1      30.308 -13.607  -0.838  0.00  0.00     0.011 C 
ATOM     28  C   UNL d   1      28.783 -13.845   1.101  0.00  0.00     0.011 C 
ENDBRANCH  25  26
ENDBRANCH   9  25
BRANCH   3  29
ATOM     29  C   UNL d   1      21.582 -17.283  -1.030  0.00  0.00     0.273 C 
ATOM     30  O   UNL d   1      20.709 -16.448  -1.270  0.00  0.00    -0.266 OA
ATOM     31  N   UNL d   1      21.223 -18.650  -0.826  0.00  0.00    -0.289 N 
ATOM     32  H   UNL d   1      21.964 -19.342  -0.711  0.00  0.00     0.183 HD
BRANCH  31  33
ATOM     33  N   UNL d   1      19.905 -19.140  -1.013  0.00  0.00    -0.247 NA
ATOM     34  H   UNL d   1      19.396 -18.455  -1.582  0.00  0.00     0.143 HD
ATOM     35  H   UNL d   1      19.420 -19.153  -0.109  0.00  0.00     0.143 HD
ENDBRANCH  31  33
ENDBRANCH   3  29
TORSDOF 7
ENDMDL
