MODEL 1
REMARK VINA RESULT:   -30.944      0.000      0.000
REMARK INTER + INTRA:         -36.382
REMARK INTER:                 -34.225
REMARK INTRA:                  -2.157
REMARK CONF_INDEPENDENT:        3.281
REMARK UNBOUND:                -2.157
REMARK  11 active torsions:
REMARK  status: ('A' for Active; 'I' for Inactive)
REMARK    1  A    between atoms: C_2  and  C_3 
REMARK       I    between atoms: C_2  and  N_15 
REMARK    2  A    between atoms: C_3  and  C_4 
REMARK    3  A    between atoms: C_4  and  C_5 
REMARK    4  A    between atoms: C_5  and  C_6 
REMARK    5  A    between atoms: N_15  and  C_16 
REMARK    6  A    between atoms: C_17  and  C_16 
REMARK    7  A    between atoms: C_17  and  C_19 
REMARK    8  A    between atoms: C_17  and  O_18 
REMARK    9  A    between atoms: C_19  and  O_20 
REMARK   10  A    between atoms: O_20  and  C_21 
REMARK   11  A    between atoms: C_24  and  N_25 
ROOT
ATOM      1  O   UNL d   1      25.449 -18.555   1.245  0.00  0.00    -0.274 OA
ATOM      2  C   UNL d   1      25.492 -17.869   0.223  0.00  0.00     0.217 C 
ATOM      3  N   UNL d   1      26.534 -17.015   0.047  0.00  0.00    -0.359 N 
ATOM      4  H   UNL d   1      27.087 -16.947   0.896  0.00  0.00     0.162 HD
ENDROOT
BRANCH   3   5
ATOM      5  C   UNL d   1      26.669 -16.002  -0.989  0.00  0.00     0.156 C 
BRANCH   5   6
ATOM      6  C   UNL d   1      27.665 -14.865  -0.672  0.00  0.00     0.160 C 
BRANCH   6   7
ATOM      7  C   UNL d   1      27.007 -13.514  -0.370  0.00  0.00     0.209 C 
BRANCH   7   8
ATOM      8  O   UNL d   1      27.657 -12.936   0.766  0.00  0.00    -0.349 OA
BRANCH   8   9
ATOM      9  C   UNL d   1      27.318 -11.650   1.073  0.00  0.00     0.069 A 
ATOM     10  C   UNL d   1      26.487 -11.476   2.185  0.00  0.00     0.039 A 
ATOM     11  C   UNL d   1      25.976 -10.211   2.492  0.00  0.00     0.039 A 
ATOM     12  C   UNL d   1      26.361  -9.110   1.716  0.00  0.00     0.103 A 
ATOM     13  C   UNL d   1      27.190  -9.284   0.601  0.00  0.00     0.039 A 
ATOM     14  C   UNL d   1      27.660 -10.558   0.279  0.00  0.00     0.039 A 
BRANCH  12  15
ATOM     15  N   UNL d   1      25.944  -7.758   2.102  0.00  0.00    -0.116 N 
ATOM     16  O   UNL d   1      25.177  -7.151   1.343  0.00  0.00    -0.532 OA
ATOM     17  O   UNL d   1      26.367  -7.311   3.179  0.00  0.00    -0.532 OA
ENDBRANCH  12  15
ENDBRANCH   8   9
ENDBRANCH   7   8
ENDBRANCH   6   7
BRANCH   6  18
ATOM     18  O   UNL d   1      28.510 -15.238   0.422  0.00  0.00    -0.392 OA
ATOM     19  H   UNL d   1      28.482 -14.523   1.083  0.00  0.00     0.210 HD
ENDBRANCH   6  18
ENDBRANCH   5   6
ENDBRANCH   3   5
BRANCH   2  20
ATOM     20  C   UNL d   1      24.442 -17.900  -0.858  0.00  0.00     0.103 C 
BRANCH  20  21
ATOM     21  C   UNL d   1      23.077 -17.539  -0.295  0.00  0.00     0.017 C 
BRANCH  21  22
ATOM     22  C   UNL d   1      21.973 -17.925  -1.270  0.00  0.00     0.079 C 
BRANCH  22  23
ATOM     23  C   UNL d   1      20.968 -18.795  -0.611  0.00  0.00     0.105 A 
ATOM     24  N   UNL d   1      19.903 -19.319  -1.178  0.00  0.00    -0.233 NA
ATOM     25  C   UNL d   1      19.283 -20.042  -0.192  0.00  0.00     0.085 A 
ATOM     26  C   UNL d   1      18.098 -20.787  -0.244  0.00  0.00     0.034 A 
ATOM     27  C   UNL d   1      19.992 -19.970   1.002  0.00  0.00     0.062 A 
ATOM     28  C   UNL d   1      17.662 -21.431   0.921  0.00  0.00     0.002 A 
ATOM     29  C   UNL d   1      18.401 -21.349   2.105  0.00  0.00     0.002 A 
ATOM     30  C   UNL d   1      19.592 -20.616   2.172  0.00  0.00     0.032 A 
ATOM     31  N   UNL d   1      21.061 -19.166   0.708  0.00  0.00    -0.343 N 
ATOM     32  H   UNL d   1      21.792 -18.894   1.349  0.00  0.00     0.167 HD
ENDBRANCH  22  23
ENDBRANCH  21  22
ENDBRANCH  20  21
ENDBRANCH   2  20
TORSDOF 11
ENDMDL
MODEL 2
REMARK VINA RESULT:   -30.484      1.210      1.426
REMARK INTER + INTRA:         -35.797
REMARK INTER:                 -33.765
REMARK INTRA:                  -2.032
REMARK CONF_INDEPENDENT:        3.281
REMARK UNBOUND:                -2.032
REMARK  11 active torsions:
REMARK  status: ('A' for Active; 'I' for Inactive)
REMARK    1  A    between atoms: C_2  and  C_3 
REMARK       I    between atoms: C_2  and  N_15 
REMARK    2  A    between atoms: C_3  and  C_4 
REMARK    3  A    between atoms: C_4  and  C_5 
REMARK    4  A    between atoms: C_5  and  C_6 
REMARK    5  A    between atoms: N_15  and  C_16 
REMARK    6  A    between atoms: C_17  and  C_16 
REMARK    7  A    between atoms: C_17  and  C_19 
REMARK    8  A    between atoms: C_17  and  O_18 
REMARK    9  A    between atoms: C_19  and  O_20 
REMARK   10  A    between atoms: O_20  and  C_21 
REMARK   11  A    between atoms: C_24  and  N_25 
ROOT
ATOM      1  O   UNL d   1      24.632 -18.335   0.757  0.00  0.00    -0.274 OA
ATOM      2  C   UNL d   1      24.944 -17.348   0.089  0.00  0.00     0.217 C 
ATOM      3  N   UNL d   1      26.252 -16.988   0.019  0.00  0.00    -0.359 N 
ATOM      4  H   UNL d   1      26.805 -17.522   0.682  0.00  0.00     0.162 HD
ENDROOT
BRANCH   3   5
ATOM      5  C   UNL d   1      26.793 -15.767  -0.560  0.00  0.00     0.156 C 
BRANCH   5   6
ATOM      6  C   UNL d   1      28.322 -15.600  -0.431  0.00  0.00     0.160 C 
BRANCH   6   7
ATOM      7  C   UNL d   1      28.771 -14.201   0.009  0.00  0.00     0.209 C 
BRANCH   7   8
ATOM      8  O   UNL d   1      28.666 -14.117   1.433  0.00  0.00    -0.349 OA
BRANCH   8   9
ATOM      9  C   UNL d   1      28.118 -12.974   1.937  0.00  0.00     0.069 A 
ATOM     10  C   UNL d   1      26.910 -12.560   1.365  0.00  0.00     0.039 A 
ATOM     11  C   UNL d   1      26.348 -11.329   1.718  0.00  0.00     0.039 A 
ATOM     12  C   UNL d   1      26.969 -10.551   2.703  0.00  0.00     0.103 A 
ATOM     13  C   UNL d   1      28.179 -10.963   3.275  0.00  0.00     0.039 A 
ATOM     14  C   UNL d   1      28.754 -12.173   2.883  0.00  0.00     0.039 A 
BRANCH  12  15
ATOM     15  N   UNL d   1      26.324  -9.324   3.184  0.00  0.00    -0.116 N 
ATOM     16  O   UNL d   1      25.147  -9.122   2.855  0.00  0.00    -0.532 OA
ATOM     17  O   UNL d   1      26.990  -8.571   3.911  0.00  0.00    -0.532 OA
ENDBRANCH  12  15
ENDBRANCH   8   9
ENDBRANCH   7   8
ENDBRANCH   6   7
BRANCH   6  18
ATOM     18  O   UNL d   1      28.853 -16.576   0.473  0.00  0.00    -0.392 OA
ATOM     19  H   UNL d   1      29.679 -16.222   0.848  0.00  0.00     0.210 HD
ENDBRANCH   6  18
ENDBRANCH   5   6
ENDBRANCH   3   5
BRANCH   2  20
ATOM     20  C   UNL d   1      23.955 -16.489  -0.657  0.00  0.00     0.103 C 
BRANCH  20  21
ATOM     21  C   UNL d   1      22.528 -16.869  -0.295  0.00  0.00     0.017 C 
BRANCH  21  22
ATOM     22  C   UNL d   1      21.981 -17.901  -1.270  0.00  0.00     0.079 C 
BRANCH  22  23
ATOM     23  C   UNL d   1      20.971 -18.765  -0.611  0.00  0.00     0.105 A 
ATOM     24  N   UNL d   1      19.905 -19.286  -1.180  0.00  0.00    -0.233 NA
ATOM     25  C   UNL d   1      19.278 -20.003  -0.193  0.00  0.00     0.085 A 
ATOM     26  C   UNL d   1      18.090 -20.743  -0.246  0.00  0.00     0.034 A 
ATOM     27  C   UNL d   1      19.984 -19.931   1.002  0.00  0.00     0.062 A 
ATOM     28  C   UNL d   1      17.648 -21.381   0.920  0.00  0.00     0.002 A 
ATOM     29  C   UNL d   1      18.385 -21.299   2.105  0.00  0.00     0.002 A 
ATOM     30  C   UNL d   1      19.579 -20.571   2.173  0.00  0.00     0.032 A 
ATOM     31  N   UNL d   1      21.058 -19.133   0.710  0.00  0.00    -0.343 N 
ATOM     32  H   UNL d   1      21.789 -18.863   1.352  0.00  0.00     0.167 HD
ENDBRANCH  22  23
ENDBRANCH  21  22
ENDBRANCH  20  21
ENDBRANCH   2  20
TORSDOF 11
ENDMDL
MODEL 3
REMARK VINA RESULT:   -30.459      4.125      5.132
REMARK INTER + INTRA:         -35.241
REMARK INTER:                 -33.741
REMARK INTRA:                  -1.501
REMARK CONF_INDEPENDENT:        3.281
REMARK UNBOUND:                -1.501
REMARK  11 active torsions:
REMARK  status: ('A' for Active; 'I' for Inactive)
REMARK    1  A    between atoms: C_2  and  C_3 
REMARK       I    between atoms: C_2  and  N_15 
REMARK    2  A    between atoms: C_3  and  C_4 
REMARK    3  A    between atoms: C_4  and  C_5 
REMARK    4  A    between atoms: C_5  and  C_6 
REMARK    5  A    between atoms: N_15  and  C_16 
REMARK    6  A    between atoms: C_17  and  C_16 
REMARK    7  A    between atoms: C_17  and  C_19 
REMARK    8  A    between atoms: C_17  and  O_18 
REMARK    9  A    between atoms: C_19  and  O_20 
REMARK   10  A    between atoms: O_20  and  C_21 
REMARK   11  A    between atoms: C_24  and  N_25 
ROOT
ATOM      1  O   UNL d   1      24.125 -18.889   0.272  0.00  0.00    -0.274 OA
ATOM      2  C   UNL d   1      24.661 -17.816  -0.012  0.00  0.00     0.217 C 
ATOM      3  N   UNL d   1      26.012 -17.713   0.070  0.00  0.00    -0.359 N 
ATOM      4  H   UNL d   1      26.406 -18.533   0.520  0.00  0.00     0.162 HD
ENDROOT
BRANCH   3   5
ATOM      5  C   UNL d   1      26.806 -16.498  -0.046  0.00  0.00     0.156 C 
BRANCH   5   6
ATOM      6  C   UNL d   1      28.279 -16.712  -0.456  0.00  0.00     0.160 C 
BRANCH   6   7
ATOM      7  C   UNL d   1      29.285 -15.866   0.335  0.00  0.00     0.209 C 
BRANCH   7   8
ATOM      8  O   UNL d   1      29.843 -14.885  -0.543  0.00  0.00    -0.349 OA
BRANCH   8   9
ATOM      9  C   UNL d   1      29.480 -14.965  -1.856  0.00  0.00     0.069 A 
ATOM     10  C   UNL d   1      28.392 -14.178  -2.249  0.00  0.00     0.039 A 
ATOM     11  C   UNL d   1      27.861 -14.300  -3.538  0.00  0.00     0.039 A 
ATOM     12  C   UNL d   1      28.476 -15.166  -4.451  0.00  0.00     0.103 A 
ATOM     13  C   UNL d   1      29.564 -15.956  -4.058  0.00  0.00     0.039 A 
ATOM     14  C   UNL d   1      30.057 -15.857  -2.756  0.00  0.00     0.039 A 
BRANCH  12  15
ATOM     15  N   UNL d   1      28.019 -15.207  -5.845  0.00  0.00    -0.116 N 
ATOM     16  O   UNL d   1      28.880 -15.247  -6.734  0.00  0.00    -0.532 OA
ATOM     17  O   UNL d   1      26.796 -15.222  -6.048  0.00  0.00    -0.532 OA
ENDBRANCH  12  15
ENDBRANCH   8   9
ENDBRANCH   7   8
ENDBRANCH   6   7
BRANCH   6  18
ATOM     18  O   UNL d   1      28.629 -18.096  -0.344  0.00  0.00    -0.392 OA
ATOM     19  H   UNL d   1      29.426 -18.161   0.212  0.00  0.00     0.210 HD
ENDBRANCH   6  18
ENDBRANCH   5   6
ENDBRANCH   3   5
BRANCH   2  20
ATOM     20  C   UNL d   1      23.904 -16.583  -0.435  0.00  0.00     0.103 C 
BRANCH  20  21
ATOM     21  C   UNL d   1      22.404 -16.830  -0.396  0.00  0.00     0.017 C 
BRANCH  21  22
ATOM     22  C   UNL d   1      22.030 -18.018  -1.271  0.00  0.00     0.079 C 
BRANCH  22  23
ATOM     23  C   UNL d   1      20.998 -18.854  -0.610  0.00  0.00     0.105 A 
ATOM     24  N   UNL d   1      19.905 -19.326  -1.170  0.00  0.00    -0.233 NA
ATOM     25  C   UNL d   1      19.266 -20.035  -0.186  0.00  0.00     0.085 A 
ATOM     26  C   UNL d   1      18.051 -20.729  -0.232  0.00  0.00     0.034 A 
ATOM     27  C   UNL d   1      19.992 -20.008   1.000  0.00  0.00     0.062 A 
ATOM     28  C   UNL d   1      17.602 -21.369   0.930  0.00  0.00     0.002 A 
ATOM     29  C   UNL d   1      18.359 -21.334   2.105  0.00  0.00     0.002 A 
ATOM     30  C   UNL d   1      19.580 -20.653   2.167  0.00  0.00     0.032 A 
ATOM     31  N   UNL d   1      21.091 -19.247   0.703  0.00  0.00    -0.343 N 
ATOM     32  H   UNL d   1      21.840 -19.014   1.338  0.00  0.00     0.167 HD
ENDBRANCH  22  23
ENDBRANCH  21  22
ENDBRANCH  20  21
ENDBRANCH   2  20
TORSDOF 11
ENDMDL
MODEL 4
REMARK VINA RESULT:   -30.196      4.480      6.469
REMARK INTER + INTRA:         -35.226
REMARK INTER:                 -33.478
REMARK INTRA:                  -1.749
REMARK CONF_INDEPENDENT:        3.281
REMARK UNBOUND:                -1.749
REMARK  11 active torsions:
REMARK  status: ('A' for Active; 'I' for Inactive)
REMARK    1  A    between atoms: C_2  and  C_3 
REMARK       I    between atoms: C_2  and  N_15 
REMARK    2  A    between atoms: C_3  and  C_4 
REMARK    3  A    between atoms: C_4  and  C_5 
REMARK    4  A    between atoms: C_5  and  C_6 
REMARK    5  A    between atoms: N_15  and  C_16 
REMARK    6  A    between atoms: C_17  and  C_16 
REMARK    7  A    between atoms: C_17  and  C_19 
REMARK    8  A    between atoms: C_17  and  O_18 
REMARK    9  A    between atoms: C_19  and  O_20 
REMARK   10  A    between atoms: O_20  and  C_21 
REMARK   11  A    between atoms: C_24  and  N_25 
ROOT
ATOM      1  O   UNL d   1      24.428 -17.985  -2.329  0.00  0.00    -0.274 OA
ATOM      2  C   UNL d   1      24.460 -16.818  -1.934  0.00  0.00     0.217 C 
ATOM      3  N   UNL d   1      25.077 -15.881  -2.698  0.00  0.00    -0.359 N 
ATOM      4  H   UNL d   1      25.584 -16.320  -3.461  0.00  0.00     0.162 HD
ENDROOT
BRANCH   3   5
ATOM      5  C   UNL d   1      25.376 -14.506  -2.325  0.00  0.00     0.156 C 
BRANCH   5   6
ATOM      6  C   UNL d   1      25.014 -13.444  -3.385  0.00  0.00     0.160 C 
BRANCH   6   7
ATOM      7  C   UNL d   1      26.184 -12.549  -3.811  0.00  0.00     0.209 C 
BRANCH   7   8
ATOM      8  O   UNL d   1      26.418 -12.742  -5.209  0.00  0.00    -0.349 OA
BRANCH   8   9
ATOM      9  C   UNL d   1      27.458 -13.558  -5.545  0.00  0.00     0.069 A 
ATOM     10  C   UNL d   1      28.164 -13.219  -6.705  0.00  0.00     0.039 A 
ATOM     11  C   UNL d   1      29.153 -14.072  -7.204  0.00  0.00     0.039 A 
ATOM     12  C   UNL d   1      29.478 -15.233  -6.492  0.00  0.00     0.103 A 
ATOM     13  C   UNL d   1      28.771 -15.576  -5.332  0.00  0.00     0.039 A 
ATOM     14  C   UNL d   1      27.756 -14.738  -4.868  0.00  0.00     0.039 A 
BRANCH  12  15
ATOM     15  N   UNL d   1      30.603 -16.070  -6.925  0.00  0.00    -0.116 N 
ATOM     16  O   UNL d   1      30.433 -17.296  -6.957  0.00  0.00    -0.532 OA
ATOM     17  O   UNL d   1      31.652 -15.496  -7.256  0.00  0.00    -0.532 OA
ENDBRANCH  12  15
ENDBRANCH   8   9
ENDBRANCH   7   8
ENDBRANCH   6   7
BRANCH   6  18
ATOM     18  O   UNL d   1      24.449 -14.071  -4.542  0.00  0.00    -0.392 OA
ATOM     19  H   UNL d   1      24.382 -13.401  -5.246  0.00  0.00     0.210 HD
ENDBRANCH   6  18
ENDBRANCH   5   6
ENDBRANCH   3   5
BRANCH   2  20
ATOM     20  C   UNL d   1      23.864 -16.355  -0.629  0.00  0.00     0.103 C 
BRANCH  20  21
ATOM     21  C   UNL d   1      22.886 -17.384  -0.085  0.00  0.00     0.017 C 
BRANCH  21  22
ATOM     22  C   UNL d   1      21.927 -17.845  -1.173  0.00  0.00     0.079 C 
BRANCH  22  23
ATOM     23  C   UNL d   1      20.911 -18.774  -0.621  0.00  0.00     0.105 A 
ATOM     24  N   UNL d   1      19.878 -19.269  -1.268  0.00  0.00    -0.233 NA
ATOM     25  C   UNL d   1      19.230 -20.070  -0.364  0.00  0.00     0.085 A 
ATOM     26  C   UNL d   1      18.059 -20.824  -0.518  0.00  0.00     0.034 A 
ATOM     27  C   UNL d   1      19.889 -20.076   0.860  0.00  0.00     0.062 A 
ATOM     28  C   UNL d   1      17.588 -21.557   0.578  0.00  0.00     0.002 A 
ATOM     29  C   UNL d   1      18.277 -21.552   1.793  0.00  0.00     0.002 A 
ATOM     30  C   UNL d   1      19.453 -20.811   1.963  0.00  0.00     0.032 A 
ATOM     31  N   UNL d   1      20.956 -19.240   0.670  0.00  0.00    -0.343 N 
ATOM     32  H   UNL d   1      21.657 -19.007   1.359  0.00  0.00     0.167 HD
ENDBRANCH  22  23
ENDBRANCH  21  22
ENDBRANCH  20  21
ENDBRANCH   2  20
TORSDOF 11
ENDMDL
MODEL 5
REMARK VINA RESULT:   -30.179      3.007      3.560
REMARK INTER + INTRA:         -34.815
REMARK INTER:                 -33.460
REMARK INTRA:                  -1.354
REMARK CONF_INDEPENDENT:        3.281
REMARK UNBOUND:                -1.354
REMARK  11 active torsions:
REMARK  status: ('A' for Active; 'I' for Inactive)
REMARK    1  A    between atoms: C_2  and  C_3 
REMARK       I    between atoms: C_2  and  N_15 
REMARK    2  A    between atoms: C_3  and  C_4 
REMARK    3  A    between atoms: C_4  and  C_5 
REMARK    4  A    between atoms: C_5  and  C_6 
REMARK    5  A    between atoms: N_15  and  C_16 
REMARK    6  A    between atoms: C_17  and  C_16 
REMARK    7  A    between atoms: C_17  and  C_19 
REMARK    8  A    between atoms: C_17  and  O_18 
REMARK    9  A    between atoms: C_19  and  O_20 
REMARK   10  A    between atoms: O_20  and  C_21 
REMARK   11  A    between atoms: C_24  and  N_25 
ROOT
ATOM      1  O   UNL d   1      24.810 -17.159  -2.833  0.00  0.00    -0.274 OA
ATOM      2  C   UNL d   1      24.958 -16.696  -1.701  0.00  0.00     0.217 C 
ATOM      3  N   UNL d   1      26.217 -16.520  -1.222  0.00  0.00    -0.359 N 
ATOM      4  H   UNL d   1      26.897 -16.955  -1.837  0.00  0.00     0.162 HD
ENDROOT
BRANCH   3   5
ATOM      5  C   UNL d   1      26.593 -16.163   0.138  0.00  0.00     0.156 C 
BRANCH   5   6
ATOM      6  C   UNL d   1      27.975 -15.490   0.283  0.00  0.00     0.160 C 
BRANCH   6   7
ATOM      7  C   UNL d   1      28.056 -14.446   1.403  0.00  0.00     0.209 C 
BRANCH   7   8
ATOM      8  O   UNL d   1      27.945 -15.119   2.660  0.00  0.00    -0.349 OA
BRANCH   8   9
ATOM      9  C   UNL d   1      27.991 -14.337   3.776  0.00  0.00     0.069 A 
ATOM     10  C   UNL d   1      28.016 -12.953   3.565  0.00  0.00     0.039 A 
ATOM     11  C   UNL d   1      28.204 -12.079   4.640  0.00  0.00     0.039 A 
ATOM     12  C   UNL d   1      28.295 -12.599   5.937  0.00  0.00     0.103 A 
ATOM     13  C   UNL d   1      28.272 -13.983   6.150  0.00  0.00     0.039 A 
ATOM     14  C   UNL d   1      28.128 -14.848   5.065  0.00  0.00     0.039 A 
BRANCH  12  15
ATOM     15  N   UNL d   1      28.356 -11.691   7.088  0.00  0.00    -0.116 N 
ATOM     16  O   UNL d   1      28.208 -12.179   8.217  0.00  0.00    -0.532 OA
ATOM     17  O   UNL d   1      28.576 -10.492   6.864  0.00  0.00    -0.532 OA
ENDBRANCH  12  15
ENDBRANCH   8   9
ENDBRANCH   7   8
ENDBRANCH   6   7
BRANCH   6  18
ATOM     18  O   UNL d   1      28.991 -16.479   0.480  0.00  0.00    -0.392 OA
ATOM     19  H   UNL d   1      29.388 -16.334   1.357  0.00  0.00     0.210 HD
ENDBRANCH   6  18
ENDBRANCH   5   6
ENDBRANCH   3   5
BRANCH   2  20
ATOM     20  C   UNL d   1      23.819 -16.320  -0.789  0.00  0.00     0.103 C 
BRANCH  20  21
ATOM     21  C   UNL d   1      23.087 -17.559  -0.299  0.00  0.00     0.017 C 
BRANCH  21  22
ATOM     22  C   UNL d   1      21.996 -17.964  -1.280  0.00  0.00     0.079 C 
BRANCH  22  23
ATOM     23  C   UNL d   1      20.983 -18.823  -0.617  0.00  0.00     0.105 A 
ATOM     24  N   UNL d   1      19.905 -19.325  -1.178  0.00  0.00    -0.233 NA
ATOM     25  C   UNL d   1      19.282 -20.046  -0.191  0.00  0.00     0.085 A 
ATOM     26  C   UNL d   1      18.084 -20.771  -0.236  0.00  0.00     0.034 A 
ATOM     27  C   UNL d   1      20.004 -19.993   0.996  0.00  0.00     0.062 A 
ATOM     28  C   UNL d   1      17.650 -21.416   0.928  0.00  0.00     0.002 A 
ATOM     29  C   UNL d   1      18.402 -21.354   2.105  0.00  0.00     0.002 A 
ATOM     30  C   UNL d   1      19.605 -20.641   2.166  0.00  0.00     0.032 A 
ATOM     31  N   UNL d   1      21.083 -19.205   0.698  0.00  0.00    -0.343 N 
ATOM     32  H   UNL d   1      21.825 -18.950   1.334  0.00  0.00     0.167 HD
ENDBRANCH  22  23
ENDBRANCH  21  22
ENDBRANCH  20  21
ENDBRANCH   2  20
TORSDOF 11
ENDMDL
MODEL 6
REMARK VINA RESULT:   -30.174      3.476      4.038
REMARK INTER + INTRA:         -34.817
REMARK INTER:                 -33.455
REMARK INTRA:                  -1.362
REMARK CONF_INDEPENDENT:        3.281
REMARK UNBOUND:                -1.362
REMARK  11 active torsions:
REMARK  status: ('A' for Active; 'I' for Inactive)
REMARK    1  A    between atoms: C_2  and  C_3 
REMARK       I    between atoms: C_2  and  N_15 
REMARK    2  A    between atoms: C_3  and  C_4 
REMARK    3  A    between atoms: C_4  and  C_5 
REMARK    4  A    between atoms: C_5  and  C_6 
REMARK    5  A    between atoms: N_15  and  C_16 
REMARK    6  A    between atoms: C_17  and  C_16 
REMARK    7  A    between atoms: C_17  and  C_19 
REMARK    8  A    between atoms: C_17  and  O_18 
REMARK    9  A    between atoms: C_19  and  O_20 
REMARK   10  A    between atoms: O_20  and  C_21 
REMARK   11  A    between atoms: C_24  and  N_25 
ROOT
ATOM      1  O   UNL d   1      26.478 -17.569   0.238  0.00  0.00    -0.274 OA
ATOM      2  C   UNL d   1      25.577 -17.396  -0.585  0.00  0.00     0.217 C 
ATOM      3  N   UNL d   1      25.644 -16.325  -1.418  0.00  0.00    -0.359 N 
ATOM      4  H   UNL d   1      26.391 -15.699  -1.135  0.00  0.00     0.162 HD
ENDROOT
BRANCH   3   5
ATOM      5  C   UNL d   1      24.604 -15.853  -2.320  0.00  0.00     0.156 C 
BRANCH   5   6
ATOM      6  C   UNL d   1      24.867 -14.473  -2.961  0.00  0.00     0.160 C 
BRANCH   6   7
ATOM      7  C   UNL d   1      26.147 -14.400  -3.802  0.00  0.00     0.209 C 
BRANCH   7   8
ATOM      8  O   UNL d   1      25.915 -13.523  -4.908  0.00  0.00    -0.349 OA
BRANCH   8   9
ATOM      9  C   UNL d   1      25.923 -12.186  -4.637  0.00  0.00     0.069 A 
ATOM     10  C   UNL d   1      25.937 -11.328  -5.743  0.00  0.00     0.039 A 
ATOM     11  C   UNL d   1      26.087  -9.949  -5.564  0.00  0.00     0.039 A 
ATOM     12  C   UNL d   1      26.150  -9.431  -4.265  0.00  0.00     0.103 A 
ATOM     13  C   UNL d   1      26.138 -10.288  -3.157  0.00  0.00     0.039 A 
ATOM     14  C   UNL d   1      26.031 -11.666  -3.350  0.00  0.00     0.039 A 
BRANCH  12  15
ATOM     15  N   UNL d   1      26.171  -7.979  -4.054  0.00  0.00    -0.116 N 
ATOM     16  O   UNL d   1      27.269  -7.406  -4.084  0.00  0.00    -0.532 OA
ATOM     17  O   UNL d   1      25.084  -7.407  -3.881  0.00  0.00    -0.532 OA
ENDBRANCH  12  15
ENDBRANCH   8   9
ENDBRANCH   7   8
ENDBRANCH   6   7
BRANCH   6  18
ATOM     18  O   UNL d   1      23.748 -14.077  -3.763  0.00  0.00    -0.392 OA
ATOM     19  H   UNL d   1      24.028 -14.084  -4.695  0.00  0.00     0.210 HD
ENDBRANCH   6  18
ENDBRANCH   5   6
ENDBRANCH   3   5
BRANCH   2  20
ATOM     20  C   UNL d   1      24.376 -18.296  -0.721  0.00  0.00     0.103 C 
BRANCH  20  21
ATOM     21  C   UNL d   1      23.105 -17.569  -0.313  0.00  0.00     0.017 C 
BRANCH  21  22
ATOM     22  C   UNL d   1      21.967 -17.896  -1.268  0.00  0.00     0.079 C 
BRANCH  22  23
ATOM     23  C   UNL d   1      20.960 -18.765  -0.610  0.00  0.00     0.105 A 
ATOM     24  N   UNL d   1      19.904 -19.302  -1.183  0.00  0.00    -0.233 NA
ATOM     25  C   UNL d   1      19.278 -20.018  -0.196  0.00  0.00     0.085 A 
ATOM     26  C   UNL d   1      18.098 -20.771  -0.252  0.00  0.00     0.034 A 
ATOM     27  C   UNL d   1      19.973 -19.928   1.004  0.00  0.00     0.062 A 
ATOM     28  C   UNL d   1      17.654 -21.404   0.915  0.00  0.00     0.002 A 
ATOM     29  C   UNL d   1      18.380 -21.305   2.105  0.00  0.00     0.002 A 
ATOM     30  C   UNL d   1      19.565 -20.564   2.177  0.00  0.00     0.032 A 
ATOM     31  N   UNL d   1      21.041 -19.122   0.714  0.00  0.00    -0.343 N 
ATOM     32  H   UNL d   1      21.763 -18.839   1.359  0.00  0.00     0.167 HD
ENDBRANCH  22  23
ENDBRANCH  21  22
ENDBRANCH  20  21
ENDBRANCH   2  20
TORSDOF 11
ENDMDL
MODEL 7
REMARK VINA RESULT:   -29.981      3.337      4.863
REMARK INTER + INTRA:         -35.283
REMARK INTER:                 -33.262
REMARK INTRA:                  -2.021
REMARK CONF_INDEPENDENT:        3.281
REMARK UNBOUND:                -2.021
REMARK  11 active torsions:
REMARK  status: ('A' for Active; 'I' for Inactive)
REMARK    1  A    between atoms: C_2  and  C_3 
REMARK       I    between atoms: C_2  and  N_15 
REMARK    2  A    between atoms: C_3  and  C_4 
REMARK    3  A    between atoms: C_4  and  C_5 
REMARK    4  A    between atoms: C_5  and  C_6 
REMARK    5  A    between atoms: N_15  and  C_16 
REMARK    6  A    between atoms: C_17  and  C_16 
REMARK    7  A    between atoms: C_17  and  C_19 
REMARK    8  A    between atoms: C_17  and  O_18 
REMARK    9  A    between atoms: C_19  and  O_20 
REMARK   10  A    between atoms: O_20  and  C_21 
REMARK   11  A    between atoms: C_24  and  N_25 
ROOT
ATOM      1  O   UNL d   1      23.608 -15.854  -1.479  0.00  0.00    -0.274 OA
ATOM      2  C   UNL d   1      24.398 -16.335  -0.664  0.00  0.00     0.217 C 
ATOM      3  N   UNL d   1      25.498 -15.620  -0.314  0.00  0.00    -0.359 N 
ATOM      4  H   UNL d   1      25.602 -14.807  -0.914  0.00  0.00     0.162 HD
ENDROOT
BRANCH   3   5
ATOM      5  C   UNL d   1      26.626 -16.083   0.481  0.00  0.00     0.156 C 
BRANCH   5   6
ATOM      6  C   UNL d   1      27.375 -14.983   1.264  0.00  0.00     0.160 C 
BRANCH   6   7
ATOM      7  C   UNL d   1      28.684 -14.523   0.613  0.00  0.00     0.209 C 
BRANCH   7   8
ATOM      8  O   UNL d   1      28.376 -13.554  -0.393  0.00  0.00    -0.349 OA
BRANCH   8   9
ATOM      9  C   UNL d   1      28.030 -14.039  -1.620  0.00  0.00     0.069 A 
ATOM     10  C   UNL d   1      27.310 -13.173  -2.450  0.00  0.00     0.039 A 
ATOM     11  C   UNL d   1      26.793 -13.629  -3.667  0.00  0.00     0.039 A 
ATOM     12  C   UNL d   1      27.066 -14.940  -4.078  0.00  0.00     0.103 A 
ATOM     13  C   UNL d   1      27.784 -15.809  -3.247  0.00  0.00     0.039 A 
ATOM     14  C   UNL d   1      28.258 -15.355  -2.015  0.00  0.00     0.039 A 
BRANCH  12  15
ATOM     15  N   UNL d   1      26.648 -15.394  -5.409  0.00  0.00    -0.116 N 
ATOM     16  O   UNL d   1      25.597 -16.044  -5.495  0.00  0.00    -0.532 OA
ATOM     17  O   UNL d   1      27.361 -15.080  -6.373  0.00  0.00    -0.532 OA
ENDBRANCH  12  15
ENDBRANCH   8   9
ENDBRANCH   7   8
ENDBRANCH   6   7
BRANCH   6  18
ATOM     18  O   UNL d   1      26.521 -13.852   1.468  0.00  0.00    -0.392 OA
ATOM     19  H   UNL d   1      26.810 -13.144   0.865  0.00  0.00     0.210 HD
ENDBRANCH   6  18
ENDBRANCH   5   6
ENDBRANCH   3   5
BRANCH   2  20
ATOM     20  C   UNL d   1      24.232 -17.693  -0.032  0.00  0.00     0.103 C 
BRANCH  20  21
ATOM     21  C   UNL d   1      23.379 -18.597  -0.907  0.00  0.00     0.017 C 
BRANCH  21  22
ATOM     22  C   UNL d   1      22.006 -17.982  -1.139  0.00  0.00     0.079 C 
BRANCH  22  23
ATOM     23  C   UNL d   1      20.938 -18.860  -0.599  0.00  0.00     0.105 A 
ATOM     24  N   UNL d   1      19.904 -19.324  -1.266  0.00  0.00    -0.233 NA
ATOM     25  C   UNL d   1      19.199 -20.082  -0.366  0.00  0.00     0.085 A 
ATOM     26  C   UNL d   1      18.004 -20.792  -0.540  0.00  0.00     0.034 A 
ATOM     27  C   UNL d   1      19.824 -20.091   0.876  0.00  0.00     0.062 A 
ATOM     28  C   UNL d   1      17.473 -21.484   0.556  0.00  0.00     0.002 A 
ATOM     29  C   UNL d   1      18.129 -21.484   1.790  0.00  0.00     0.002 A 
ATOM     30  C   UNL d   1      19.329 -20.788   1.979  0.00  0.00     0.032 A 
ATOM     31  N   UNL d   1      20.929 -19.302   0.702  0.00  0.00    -0.343 N 
ATOM     32  H   UNL d   1      21.619 -19.084   1.405  0.00  0.00     0.167 HD
ENDBRANCH  22  23
ENDBRANCH  21  22
ENDBRANCH  20  21
ENDBRANCH   2  20
TORSDOF 11
ENDMDL
MODEL 8
REMARK VINA RESULT:   -29.667      4.525      6.987
REMARK INTER + INTRA:         -34.428
REMARK INTER:                 -32.948
REMARK INTRA:                  -1.480
REMARK CONF_INDEPENDENT:        3.281
REMARK UNBOUND:                -1.480
REMARK  11 active torsions:
REMARK  status: ('A' for Active; 'I' for Inactive)
REMARK    1  A    between atoms: C_2  and  C_3 
REMARK       I    between atoms: C_2  and  N_15 
REMARK    2  A    between atoms: C_3  and  C_4 
REMARK    3  A    between atoms: C_4  and  C_5 
REMARK    4  A    between atoms: C_5  and  C_6 
REMARK    5  A    between atoms: N_15  and  C_16 
REMARK    6  A    between atoms: C_17  and  C_16 
REMARK    7  A    between atoms: C_17  and  C_19 
REMARK    8  A    between atoms: C_17  and  O_18 
REMARK    9  A    between atoms: C_19  and  O_20 
REMARK   10  A    between atoms: O_20  and  C_21 
REMARK   11  A    between atoms: C_24  and  N_25 
ROOT
ATOM      1  O   UNL d   1      26.231 -17.547   0.020  0.00  0.00    -0.274 OA
ATOM      2  C   UNL d   1      25.592 -17.099  -0.934  0.00  0.00     0.217 C 
ATOM      3  N   UNL d   1      25.898 -15.864  -1.409  0.00  0.00    -0.359 N 
ATOM      4  H   UNL d   1      26.548 -15.393  -0.787  0.00  0.00     0.162 HD
ENDROOT
BRANCH   3   5
ATOM      5  C   UNL d   1      25.151 -15.096  -2.395  0.00  0.00     0.156 C 
BRANCH   5   6
ATOM      6  C   UNL d   1      25.997 -14.490  -3.535  0.00  0.00     0.160 C 
BRANCH   6   7
ATOM      7  C   UNL d   1      27.303 -15.240  -3.822  0.00  0.00     0.209 C 
BRANCH   7   8
ATOM      8  O   UNL d   1      27.770 -14.861  -5.119  0.00  0.00    -0.349 OA
BRANCH   8   9
ATOM      9  C   UNL d   1      28.903 -15.477  -5.563  0.00  0.00     0.069 A 
ATOM     10  C   UNL d   1      29.714 -16.065  -4.586  0.00  0.00     0.039 A 
ATOM     11  C   UNL d   1      30.962 -16.595  -4.929  0.00  0.00     0.039 A 
ATOM     12  C   UNL d   1      31.358 -16.595  -6.273  0.00  0.00     0.103 A 
ATOM     13  C   UNL d   1      30.549 -16.005  -7.252  0.00  0.00     0.039 A 
ATOM     14  C   UNL d   1      29.325 -15.440  -6.890  0.00  0.00     0.039 A 
BRANCH  12  15
ATOM     15  N   UNL d   1      32.601 -17.267  -6.671  0.00  0.00    -0.116 N 
ATOM     16  O   UNL d   1      33.244 -16.781  -7.611  0.00  0.00    -0.532 OA
ATOM     17  O   UNL d   1      32.944 -18.269  -6.027  0.00  0.00    -0.532 OA
ENDBRANCH  12  15
ENDBRANCH   8   9
ENDBRANCH   7   8
ENDBRANCH   6   7
BRANCH   6  18
ATOM     18  O   UNL d   1      25.223 -14.407  -4.737  0.00  0.00    -0.392 OA
ATOM     19  H   UNL d   1      25.820 -14.555  -5.491  0.00  0.00     0.210 HD
ENDBRANCH   6  18
ENDBRANCH   5   6
ENDBRANCH   3   5
BRANCH   2  20
ATOM     20  C   UNL d   1      24.463 -17.833  -1.610  0.00  0.00     0.103 C 
BRANCH  20  21
ATOM     21  C   UNL d   1      23.358 -18.158  -0.617  0.00  0.00     0.017 C 
BRANCH  21  22
ATOM     22  C   UNL d   1      21.988 -17.951  -1.248  0.00  0.00     0.079 C 
BRANCH  22  23
ATOM     23  C   UNL d   1      20.971 -18.812  -0.595  0.00  0.00     0.105 A 
ATOM     24  N   UNL d   1      19.905 -19.325  -1.169  0.00  0.00    -0.233 NA
ATOM     25  C   UNL d   1      19.271 -20.043  -0.186  0.00  0.00     0.085 A 
ATOM     26  C   UNL d   1      18.080 -20.776  -0.245  0.00  0.00     0.034 A 
ATOM     27  C   UNL d   1      19.974 -19.977   1.011  0.00  0.00     0.062 A 
ATOM     28  C   UNL d   1      17.631 -21.416   0.917  0.00  0.00     0.002 A 
ATOM     29  C   UNL d   1      18.365 -21.341   2.105  0.00  0.00     0.002 A 
ATOM     30  C   UNL d   1      19.562 -20.620   2.179  0.00  0.00     0.032 A 
ATOM     31  N   UNL d   1      21.053 -19.184   0.724  0.00  0.00    -0.343 N 
ATOM     32  H   UNL d   1      21.783 -18.920   1.369  0.00  0.00     0.167 HD
ENDBRANCH  22  23
ENDBRANCH  21  22
ENDBRANCH  20  21
ENDBRANCH   2  20
TORSDOF 11
ENDMDL
MODEL 9
REMARK VINA RESULT:   -28.894      3.887      6.620
REMARK INTER + INTRA:         -34.063
REMARK INTER:                 -32.175
REMARK INTRA:                  -1.888
REMARK CONF_INDEPENDENT:        3.281
REMARK UNBOUND:                -1.888
REMARK  11 active torsions:
REMARK  status: ('A' for Active; 'I' for Inactive)
REMARK    1  A    between atoms: C_2  and  C_3 
REMARK       I    between atoms: C_2  and  N_15 
REMARK    2  A    between atoms: C_3  and  C_4 
REMARK    3  A    between atoms: C_4  and  C_5 
REMARK    4  A    between atoms: C_5  and  C_6 
REMARK    5  A    between atoms: N_15  and  C_16 
REMARK    6  A    between atoms: C_17  and  C_16 
REMARK    7  A    between atoms: C_17  and  C_19 
REMARK    8  A    between atoms: C_17  and  O_18 
REMARK    9  A    between atoms: C_19  and  O_20 
REMARK   10  A    between atoms: O_20  and  C_21 
REMARK   11  A    between atoms: C_24  and  N_25 
ROOT
ATOM      1  O   UNL d   1      25.035 -16.956  -2.538  0.00  0.00    -0.274 OA
ATOM      2  C   UNL d   1      25.260 -16.923  -1.327  0.00  0.00     0.217 C 
ATOM      3  N   UNL d   1      26.460 -16.459  -0.893  0.00  0.00    -0.359 N 
ATOM      4  H   UNL d   1      27.098 -16.335  -1.672  0.00  0.00     0.162 HD
ENDROOT
BRANCH   3   5
ATOM      5  C   UNL d   1      26.978 -16.510   0.467  0.00  0.00     0.156 C 
BRANCH   5   6
ATOM      6  C   UNL d   1      28.225 -15.639   0.728  0.00  0.00     0.160 C 
BRANCH   6   7
ATOM      7  C   UNL d   1      29.537 -16.241   0.211  0.00  0.00     0.209 C 
BRANCH   7   8
ATOM      8  O   UNL d   1      29.868 -15.612  -1.030  0.00  0.00    -0.349 OA
BRANCH   8   9
ATOM      9  C   UNL d   1      30.187 -16.440  -2.067  0.00  0.00     0.069 A 
ATOM     10  C   UNL d   1      29.788 -16.022  -3.342  0.00  0.00     0.039 A 
ATOM     11  C   UNL d   1      29.947 -16.868  -4.443  0.00  0.00     0.039 A 
ATOM     12  C   UNL d   1      30.574 -18.108  -4.269  0.00  0.00     0.103 A 
ATOM     13  C   UNL d   1      30.972 -18.529  -2.994  0.00  0.00     0.039 A 
ATOM     14  C   UNL d   1      30.769 -17.693  -1.894  0.00  0.00     0.039 A 
BRANCH  12  15
ATOM     15  N   UNL d   1      30.871 -18.950  -5.433  0.00  0.00    -0.116 N 
ATOM     16  O   UNL d   1      30.030 -19.798  -5.763  0.00  0.00    -0.532 OA
ATOM     17  O   UNL d   1      31.938 -18.748  -6.031  0.00  0.00    -0.532 OA
ENDBRANCH  12  15
ENDBRANCH   8   9
ENDBRANCH   7   8
ENDBRANCH   6   7
BRANCH   6  18
ATOM     18  O   UNL d   1      28.046 -14.335   0.165  0.00  0.00    -0.392 OA
ATOM     19  H   UNL d   1      28.430 -14.337  -0.730  0.00  0.00     0.210 HD
ENDBRANCH   6  18
ENDBRANCH   5   6
ENDBRANCH   3   5
BRANCH   2  20
ATOM     20  C   UNL d   1      24.282 -17.385  -0.276  0.00  0.00     0.103 C 
BRANCH  20  21
ATOM     21  C   UNL d   1      23.391 -18.491  -0.817  0.00  0.00     0.017 C 
BRANCH  21  22
ATOM     22  C   UNL d   1      22.006 -17.954  -1.148  0.00  0.00     0.079 C 
BRANCH  22  23
ATOM     23  C   UNL d   1      20.951 -18.845  -0.603  0.00  0.00     0.105 A 
ATOM     24  N   UNL d   1      19.905 -19.300  -1.257  0.00  0.00    -0.233 NA
ATOM     25  C   UNL d   1      19.221 -20.077  -0.357  0.00  0.00     0.085 A 
ATOM     26  C   UNL d   1      18.024 -20.786  -0.520  0.00  0.00     0.034 A 
ATOM     27  C   UNL d   1      19.871 -20.107   0.871  0.00  0.00     0.062 A 
ATOM     28  C   UNL d   1      17.517 -21.500   0.573  0.00  0.00     0.002 A 
ATOM     29  C   UNL d   1      18.198 -21.521   1.793  0.00  0.00     0.002 A 
ATOM     30  C   UNL d   1      19.400 -20.825   1.971  0.00  0.00     0.032 A 
ATOM     31  N   UNL d   1      20.970 -19.311   0.689  0.00  0.00    -0.343 N 
ATOM     32  H   UNL d   1      21.674 -19.104   1.383  0.00  0.00     0.167 HD
ENDBRANCH  22  23
ENDBRANCH  21  22
ENDBRANCH  20  21
ENDBRANCH   2  20
TORSDOF 11
ENDMDL
