MODEL 1
REMARK VINA RESULT:    -8.708      0.000      0.000
REMARK INTER + INTRA:         -12.977
REMARK INTER:                 -11.393
REMARK INTRA:                  -1.584
REMARK CONF_INDEPENDENT:        2.685
REMARK UNBOUND:                -1.584
REMARK  9 active torsions:
REMARK  status: ('A' for Active; 'I' for Inactive)
REMARK    1  A    between atoms: C_3  and  C_2 
REMARK    2  A    between atoms: C_3  and  C_5 
REMARK    3  A    between atoms: C_8  and  O_9 
REMARK    4  A    between atoms: C_10  and  N_11 
REMARK    5  A    between atoms: N_11  and  C_12 
REMARK    6  A    between atoms: C_12  and  N_14 
REMARK       I    between atoms: N_14  and  C_15 
REMARK    7  A    between atoms: C_15  and  C_17 
REMARK    8  A    between atoms: C_20  and  N_21 
REMARK    9  A    between atoms: C_26  and  N_27 
ROOT
ATOM      1  N   UNL d   1      27.695 -13.456  -1.021  0.00  0.00    -0.299 N 
ATOM      2  C   UNL d   1      26.924 -13.507   0.158  0.00  0.00     0.257 C 
ATOM      3  O   UNL d   1      25.931 -14.180   0.387  0.00  0.00    -0.267 OA
ATOM      4  H   UNL d   1      28.508 -12.859  -1.045  0.00  0.00     0.171 HD
ENDROOT
BRANCH   1   5
ATOM      5  C   UNL d   1      27.309 -14.146  -2.187  0.00  0.00     0.179 C 
ATOM      6  S   UNL d   1      26.739 -13.249  -3.507  0.00  0.00    -0.040 SA
BRANCH   5   7
ATOM      7  N   UNL d   1      27.504 -15.557  -2.141  0.00  0.00    -0.331 N 
ATOM      8  H   UNL d   1      28.022 -16.005  -2.890  0.00  0.00     0.168 HD
BRANCH   7   9
ATOM      9  C   UNL d   1      26.839 -16.498  -1.245  0.00  0.00     0.068 C 
ATOM     10  C   UNL d   1      27.537 -17.417  -0.441  0.00  0.00     0.092 C 
ATOM     11  C   UNL d   1      26.990 -18.067   0.624  0.00  0.00     0.039 C 
ATOM     12  C   UNL d   1      25.642 -18.012   0.766  0.00  0.00     0.010 C 
ATOM     13  C   UNL d   1      24.796 -17.387  -0.181  0.00  0.00    -0.052 C 
ATOM     14  C   UNL d   1      25.419 -16.549  -1.143  0.00  0.00     0.039 C 
BRANCH  10  15
ATOM     15  O   UNL d   1      28.761 -17.954  -0.704  0.00  0.00    -0.358 OA
ATOM     16  H   UNL d   1      29.200 -17.984   0.174  0.00  0.00     0.217 HD
ENDBRANCH  10  15
BRANCH  13  17
ATOM     17  C   UNL d   1      23.267 -17.652  -0.157  0.00  0.00     0.014 C 
ATOM     18  C   UNL d   1      22.408 -16.495  -0.747  0.00  0.00     0.015 C 
BRANCH  17  19
ATOM     19  C   UNL d   1      22.943 -18.943  -0.955  0.00  0.00     0.004 C 
ATOM     20  C   UNL d   1      21.438 -18.952  -1.280  0.00  0.00     0.006 C 
ENDBRANCH  17  19
ENDBRANCH  13  17
ENDBRANCH   7   9
ENDBRANCH   5   7
ENDBRANCH   1   5
BRANCH   2  21
ATOM     21  C   UNL d   1      27.270 -12.715   1.325  0.00  0.00     0.035 A 
ATOM     22  C   UNL d   1      27.982 -13.376   2.329  0.00  0.00     0.019 A 
ATOM     23  C   UNL d   1      28.121 -12.791   3.580  0.00  0.00     0.033 A 
ATOM     24  C   UNL d   1      27.592 -11.514   3.868  0.00  0.00     0.063 A 
ATOM     25  C   UNL d   1      26.806 -10.906   2.842  0.00  0.00     0.130 A 
ATOM     26  C   UNL d   1      26.639 -11.519   1.583  0.00  0.00     0.055 A 
BRANCH  24  27
ATOM     27  N   UNL d   1      27.884 -11.027   5.116  0.00  0.00    -0.379 N 
ATOM     28  C   UNL d   1      28.577  -9.783   5.392  0.00  0.00     0.123 C 
ATOM     29  C   UNL d   1      29.549 -10.186   6.493  0.00  0.00     0.021 C 
ATOM     30  C   UNL d   1      28.711 -11.132   7.341  0.00  0.00     0.021 C 
ATOM     31  C   UNL d   1      27.783 -11.839   6.338  0.00  0.00     0.123 C 
ENDBRANCH  24  27
BRANCH  25  32
ATOM     32  N   UNL d   1      26.144  -9.592   2.959  0.00  0.00    -0.113 N 
ATOM     33  O   UNL d   1      26.728  -8.636   3.443  0.00  0.00    -0.532 OA
ATOM     34  O   UNL d   1      24.985  -9.504   2.492  0.00  0.00    -0.532 OA
ENDBRANCH  25  32
ENDBRANCH   2  21
TORSDOF 9
ENDMDL
MODEL 2
REMARK VINA RESULT:    -8.270      2.937      4.282
REMARK INTER + INTRA:         -12.188
REMARK INTER:                 -10.954
REMARK INTRA:                  -1.234
REMARK CONF_INDEPENDENT:        2.685
REMARK UNBOUND:                -1.234
REMARK  9 active torsions:
REMARK  status: ('A' for Active; 'I' for Inactive)
REMARK    1  A    between atoms: C_3  and  C_2 
REMARK    2  A    between atoms: C_3  and  C_5 
REMARK    3  A    between atoms: C_8  and  O_9 
REMARK    4  A    between atoms: C_10  and  N_11 
REMARK    5  A    between atoms: N_11  and  C_12 
REMARK    6  A    between atoms: C_12  and  N_14 
REMARK       I    between atoms: N_14  and  C_15 
REMARK    7  A    between atoms: C_15  and  C_17 
REMARK    8  A    between atoms: C_20  and  N_21 
REMARK    9  A    between atoms: C_26  and  N_27 
ROOT
ATOM      1  N   UNL d   1      28.995 -14.500   2.570  0.00  0.00    -0.299 N 
ATOM      2  C   UNL d   1      28.288 -13.635   3.429  0.00  0.00     0.257 C 
ATOM      3  O   UNL d   1      27.283 -12.982   3.191  0.00  0.00    -0.267 OA
ATOM      4  H   UNL d   1      29.802 -14.988   2.928  0.00  0.00     0.171 HD
ENDROOT
BRANCH   1   5
ATOM      5  C   UNL d   1      28.657 -14.629   1.208  0.00  0.00     0.179 C 
ATOM      6  S   UNL d   1      28.768 -13.260   0.214  0.00  0.00    -0.040 SA
BRANCH   5   7
ATOM      7  N   UNL d   1      28.306 -15.948   0.799  0.00  0.00    -0.331 N 
ATOM      8  H   UNL d   1      28.957 -16.706   0.979  0.00  0.00     0.168 HD
BRANCH   7   9
ATOM      9  C   UNL d   1      27.197 -16.322  -0.073  0.00  0.00     0.068 C 
ATOM     10  C   UNL d   1      26.518 -17.549   0.032  0.00  0.00     0.092 C 
ATOM     11  C   UNL d   1      25.299 -17.797  -0.525  0.00  0.00     0.039 C 
ATOM     12  C   UNL d   1      24.832 -16.900  -1.429  0.00  0.00     0.010 C 
ATOM     13  C   UNL d   1      25.588 -15.786  -1.867  0.00  0.00    -0.052 C 
ATOM     14  C   UNL d   1      26.741 -15.456  -1.107  0.00  0.00     0.039 C 
BRANCH  10  15
ATOM     15  O   UNL d   1      27.030 -18.719   0.507  0.00  0.00    -0.358 OA
ATOM     16  H   UNL d   1      27.992 -18.539   0.593  0.00  0.00     0.217 HD
ENDBRANCH  10  15
BRANCH  13  17
ATOM     17  C   UNL d   1      25.162 -15.004  -3.138  0.00  0.00     0.014 C 
ATOM     18  C   UNL d   1      25.440 -13.473  -3.070  0.00  0.00     0.015 C 
BRANCH  17  19
ATOM     19  C   UNL d   1      25.903 -15.570  -4.379  0.00  0.00     0.004 C 
ATOM     20  C   UNL d   1      26.888 -14.504  -4.890  0.00  0.00     0.006 C 
ENDBRANCH  17  19
ENDBRANCH  13  17
ENDBRANCH   7   9
ENDBRANCH   5   7
ENDBRANCH   1   5
BRANCH   2  21
ATOM     21  C   UNL d   1      28.701 -13.428   4.806  0.00  0.00     0.035 A 
ATOM     22  C   UNL d   1      28.781 -14.572   5.604  0.00  0.00     0.019 A 
ATOM     23  C   UNL d   1      28.902 -14.450   6.981  0.00  0.00     0.033 A 
ATOM     24  C   UNL d   1      28.987 -13.189   7.612  0.00  0.00     0.063 A 
ATOM     25  C   UNL d   1      28.825 -12.046   6.771  0.00  0.00     0.130 A 
ATOM     26  C   UNL d   1      28.668 -12.176   5.375  0.00  0.00     0.055 A 
BRANCH  24  27
ATOM     27  N   UNL d   1      29.194 -13.225   8.967  0.00  0.00    -0.379 N 
ATOM     28  C   UNL d   1      30.322 -13.852   9.628  0.00  0.00     0.123 C 
ATOM     29  C   UNL d   1      29.658 -14.581  10.789  0.00  0.00     0.021 C 
ATOM     30  C   UNL d   1      28.597 -13.587  11.238  0.00  0.00     0.021 C 
ATOM     31  C   UNL d   1      28.153 -12.878   9.946  0.00  0.00     0.123 C 
ENDBRANCH  24  27
BRANCH  25  32
ATOM     32  N   UNL d   1      28.851 -10.647   7.242  0.00  0.00    -0.113 N 
ATOM     33  O   UNL d   1      28.899 -10.387   8.434  0.00  0.00    -0.532 OA
ATOM     34  O   UNL d   1      28.874  -9.758   6.360  0.00  0.00    -0.532 OA
ENDBRANCH  25  32
ENDBRANCH   2  21
TORSDOF 9
ENDMDL
MODEL 3
REMARK VINA RESULT:    -8.161      6.799      8.812
REMARK INTER + INTRA:         -12.525
REMARK INTER:                 -10.846
REMARK INTRA:                  -1.680
REMARK CONF_INDEPENDENT:        2.685
REMARK UNBOUND:                -1.680
REMARK  9 active torsions:
REMARK  status: ('A' for Active; 'I' for Inactive)
REMARK    1  A    between atoms: C_3  and  C_2 
REMARK    2  A    between atoms: C_3  and  C_5 
REMARK    3  A    between atoms: C_8  and  O_9 
REMARK    4  A    between atoms: C_10  and  N_11 
REMARK    5  A    between atoms: N_11  and  C_12 
REMARK    6  A    between atoms: C_12  and  N_14 
REMARK       I    between atoms: N_14  and  C_15 
REMARK    7  A    between atoms: C_15  and  C_17 
REMARK    8  A    between atoms: C_20  and  N_21 
REMARK    9  A    between atoms: C_26  and  N_27 
ROOT
ATOM      1  N   UNL d   1      31.907 -18.471   0.888  0.00  0.00    -0.299 N 
ATOM      2  C   UNL d   1      32.594 -19.633   1.294  0.00  0.00     0.257 C 
ATOM      3  O   UNL d   1      33.108 -20.494   0.596  0.00  0.00    -0.267 OA
ATOM      4  H   UNL d   1      31.557 -17.841   1.594  0.00  0.00     0.171 HD
ENDROOT
BRANCH   1   5
ATOM      5  C   UNL d   1      31.621 -18.217  -0.469  0.00  0.00     0.179 C 
ATOM      6  S   UNL d   1      32.915 -17.974  -1.536  0.00  0.00    -0.040 SA
BRANCH   5   7
ATOM      7  N   UNL d   1      30.237 -18.252  -0.807  0.00  0.00    -0.331 N 
ATOM      8  H   UNL d   1      29.918 -18.929  -1.493  0.00  0.00     0.168 HD
BRANCH   7   9
ATOM      9  C   UNL d   1      29.230 -17.258  -0.450  0.00  0.00     0.068 C 
ATOM     10  C   UNL d   1      29.536 -16.063   0.224  0.00  0.00     0.092 C 
ATOM     11  C   UNL d   1      28.705 -14.985   0.282  0.00  0.00     0.039 C 
ATOM     12  C   UNL d   1      27.421 -15.164  -0.120  0.00  0.00     0.010 C 
ATOM     13  C   UNL d   1      26.907 -16.424  -0.508  0.00  0.00    -0.052 C 
ATOM     14  C   UNL d   1      27.853 -17.454  -0.757  0.00  0.00     0.039 C 
BRANCH  10  15
ATOM     15  O   UNL d   1      30.580 -15.860   1.076  0.00  0.00    -0.358 OA
ATOM     16  H   UNL d   1      30.500 -16.590   1.728  0.00  0.00     0.217 HD
ENDBRANCH  10  15
BRANCH  13  17
ATOM     17  C   UNL d   1      25.375 -16.642  -0.617  0.00  0.00     0.014 C 
ATOM     18  C   UNL d   1      24.767 -16.232  -1.991  0.00  0.00     0.015 C 
BRANCH  17  19
ATOM     19  C   UNL d   1      25.035 -18.137  -0.372  0.00  0.00     0.004 C 
ATOM     20  C   UNL d   1      23.529 -18.255  -0.078  0.00  0.00     0.006 C 
ENDBRANCH  17  19
ENDBRANCH  13  17
ENDBRANCH   7   9
ENDBRANCH   5   7
ENDBRANCH   1   5
BRANCH   2  21
ATOM     21  C   UNL d   1      32.799 -19.941   2.698  0.00  0.00     0.035 A 
ATOM     22  C   UNL d   1      34.126 -20.042   3.120  0.00  0.00     0.019 A 
ATOM     23  C   UNL d   1      34.420 -20.591   4.360  0.00  0.00     0.033 A 
ATOM     24  C   UNL d   1      33.406 -21.024   5.242  0.00  0.00     0.063 A 
ATOM     25  C   UNL d   1      32.068 -20.975   4.744  0.00  0.00     0.130 A 
ATOM     26  C   UNL d   1      31.777 -20.447   3.468  0.00  0.00     0.055 A 
BRANCH  24  27
ATOM     27  N   UNL d   1      33.841 -21.461   6.467  0.00  0.00    -0.379 N 
ATOM     28  C   UNL d   1      34.747 -20.742   7.342  0.00  0.00     0.123 C 
ATOM     29  C   UNL d   1      35.694 -21.840   7.807  0.00  0.00     0.021 C 
ATOM     30  C   UNL d   1      34.756 -23.021   8.008  0.00  0.00     0.021 C 
ATOM     31  C   UNL d   1      33.670 -22.845   6.931  0.00  0.00     0.123 C 
ENDBRANCH  24  27
BRANCH  25  32
ATOM     32  N   UNL d   1      30.875 -21.410   5.497  0.00  0.00    -0.113 N 
ATOM     33  O   UNL d   1      30.779 -21.201   6.696  0.00  0.00    -0.532 OA
ATOM     34  O   UNL d   1      29.959 -21.950   4.835  0.00  0.00    -0.532 OA
ENDBRANCH  25  32
ENDBRANCH   2  21
TORSDOF 9
ENDMDL
MODEL 4
REMARK VINA RESULT:    -7.780      2.606      3.800
REMARK INTER + INTRA:         -12.205
REMARK INTER:                 -10.465
REMARK INTRA:                  -1.741
REMARK CONF_INDEPENDENT:        2.685
REMARK UNBOUND:                -1.741
REMARK  9 active torsions:
REMARK  status: ('A' for Active; 'I' for Inactive)
REMARK    1  A    between atoms: C_3  and  C_2 
REMARK    2  A    between atoms: C_3  and  C_5 
REMARK    3  A    between atoms: C_8  and  O_9 
REMARK    4  A    between atoms: C_10  and  N_11 
REMARK    5  A    between atoms: N_11  and  C_12 
REMARK    6  A    between atoms: C_12  and  N_14 
REMARK       I    between atoms: N_14  and  C_15 
REMARK    7  A    between atoms: C_15  and  C_17 
REMARK    8  A    between atoms: C_20  and  N_21 
REMARK    9  A    between atoms: C_26  and  N_27 
ROOT
ATOM      1  N   UNL d   1      29.083 -14.825   2.004  0.00  0.00    -0.299 N 
ATOM      2  C   UNL d   1      28.251 -14.037   2.826  0.00  0.00     0.257 C 
ATOM      3  O   UNL d   1      27.175 -13.530   2.551  0.00  0.00    -0.267 OA
ATOM      4  H   UNL d   1      29.940 -15.192   2.389  0.00  0.00     0.171 HD
ENDROOT
BRANCH   1   5
ATOM      5  C   UNL d   1      28.792 -15.034   0.641  0.00  0.00     0.179 C 
ATOM      6  S   UNL d   1      29.726 -16.154  -0.223  0.00  0.00    -0.040 SA
BRANCH   5   7
ATOM      7  N   UNL d   1      27.675 -14.300   0.147  0.00  0.00    -0.331 N 
ATOM      8  H   UNL d   1      27.459 -13.399   0.561  0.00  0.00     0.168 HD
BRANCH   7   9
ATOM      9  C   UNL d   1      26.636 -14.798  -0.750  0.00  0.00     0.068 C 
ATOM     10  C   UNL d   1      26.239 -14.117  -1.916  0.00  0.00     0.092 C 
ATOM     11  C   UNL d   1      25.530 -14.690  -2.928  0.00  0.00     0.039 C 
ATOM     12  C   UNL d   1      24.968 -15.903  -2.690  0.00  0.00     0.010 C 
ATOM     13  C   UNL d   1      25.023 -16.539  -1.427  0.00  0.00    -0.052 C 
ATOM     14  C   UNL d   1      25.945 -16.013  -0.483  0.00  0.00     0.039 C 
BRANCH  10  15
ATOM     15  O   UNL d   1      26.307 -12.774  -2.131  0.00  0.00    -0.358 OA
ATOM     16  H   UNL d   1      26.482 -12.400  -1.240  0.00  0.00     0.217 HD
ENDBRANCH  10  15
BRANCH  13  17
ATOM     17  C   UNL d   1      24.083 -17.733  -1.114  0.00  0.00     0.014 C 
ATOM     18  C   UNL d   1      24.510 -18.575   0.125  0.00  0.00     0.015 C 
BRANCH  17  19
ATOM     19  C   UNL d   1      22.639 -17.219  -0.868  0.00  0.00     0.004 C 
ATOM     20  C   UNL d   1      21.683 -18.426  -0.866  0.00  0.00     0.006 C 
ENDBRANCH  17  19
ENDBRANCH  13  17
ENDBRANCH   7   9
ENDBRANCH   5   7
ENDBRANCH   1   5
BRANCH   2  21
ATOM     21  C   UNL d   1      28.606 -13.740   4.202  0.00  0.00     0.035 A 
ATOM     22  C   UNL d   1      28.552 -14.811   5.097  0.00  0.00     0.019 A 
ATOM     23  C   UNL d   1      28.609 -14.577   6.463  0.00  0.00     0.033 A 
ATOM     24  C   UNL d   1      28.761 -13.275   6.989  0.00  0.00     0.063 A 
ATOM     25  C   UNL d   1      28.735 -12.202   6.047  0.00  0.00     0.130 A 
ATOM     26  C   UNL d   1      28.643 -12.443   4.660  0.00  0.00     0.055 A 
BRANCH  24  27
ATOM     27  N   UNL d   1      28.892 -13.205   8.353  0.00  0.00    -0.379 N 
ATOM     28  C   UNL d   1      29.528 -14.207   9.187  0.00  0.00     0.123 C 
ATOM     29  C   UNL d   1      28.561 -14.320  10.359  0.00  0.00     0.021 C 
ATOM     30  C   UNL d   1      28.147 -12.872  10.584  0.00  0.00     0.021 C 
ATOM     31  C   UNL d   1      28.155 -12.239   9.181  0.00  0.00     0.123 C 
ENDBRANCH  24  27
BRANCH  25  32
ATOM     32  N   UNL d   1      28.847 -10.772   6.398  0.00  0.00    -0.113 N 
ATOM     33  O   UNL d   1      28.261  -9.920   5.751  0.00  0.00    -0.532 OA
ATOM     34  O   UNL d   1      29.525 -10.495   7.414  0.00  0.00    -0.532 OA
ENDBRANCH  25  32
ENDBRANCH   2  21
TORSDOF 9
ENDMDL
MODEL 5
REMARK VINA RESULT:    -7.663      3.056      8.252
REMARK INTER + INTRA:         -12.519
REMARK INTER:                 -10.347
REMARK INTRA:                  -2.171
REMARK CONF_INDEPENDENT:        2.685
REMARK UNBOUND:                -2.171
REMARK  9 active torsions:
REMARK  status: ('A' for Active; 'I' for Inactive)
REMARK    1  A    between atoms: C_3  and  C_2 
REMARK    2  A    between atoms: C_3  and  C_5 
REMARK    3  A    between atoms: C_8  and  O_9 
REMARK    4  A    between atoms: C_10  and  N_11 
REMARK    5  A    between atoms: N_11  and  C_12 
REMARK    6  A    between atoms: C_12  and  N_14 
REMARK       I    between atoms: N_14  and  C_15 
REMARK    7  A    between atoms: C_15  and  C_17 
REMARK    8  A    between atoms: C_20  and  N_21 
REMARK    9  A    between atoms: C_26  and  N_27 
ROOT
ATOM      1  N   UNL d   1      29.656 -15.574   0.837  0.00  0.00    -0.299 N 
ATOM      2  C   UNL d   1      28.898 -14.920  -0.155  0.00  0.00     0.257 C 
ATOM      3  O   UNL d   1      29.247 -14.026  -0.911  0.00  0.00    -0.267 OA
ATOM      4  H   UNL d   1      29.225 -16.315   1.370  0.00  0.00     0.171 HD
ENDROOT
BRANCH   1   5
ATOM      5  C   UNL d   1      30.963 -15.159   1.163  0.00  0.00     0.179 C 
ATOM      6  S   UNL d   1      32.210 -15.475   0.060  0.00  0.00    -0.040 SA
BRANCH   5   7
ATOM      7  N   UNL d   1      31.077 -14.448   2.393  0.00  0.00    -0.331 N 
ATOM      8  H   UNL d   1      31.994 -14.343   2.814  0.00  0.00     0.168 HD
BRANCH   7   9
ATOM      9  C   UNL d   1      29.981 -14.036   3.264  0.00  0.00     0.068 C 
ATOM     10  C   UNL d   1      28.819 -13.403   2.788  0.00  0.00     0.092 C 
ATOM     11  C   UNL d   1      27.660 -13.303   3.497  0.00  0.00     0.039 C 
ATOM     12  C   UNL d   1      27.707 -13.611   4.818  0.00  0.00     0.010 C 
ATOM     13  C   UNL d   1      28.910 -13.943   5.486  0.00  0.00    -0.052 C 
ATOM     14  C   UNL d   1      30.034 -14.243   4.672  0.00  0.00     0.039 C 
BRANCH  10  15
ATOM     15  O   UNL d   1      28.719 -12.629   1.671  0.00  0.00    -0.358 OA
ATOM     16  H   UNL d   1      29.304 -13.076   1.020  0.00  0.00     0.217 HD
ENDBRANCH  10  15
BRANCH  13  17
ATOM     17  C   UNL d   1      28.967 -13.941   7.037  0.00  0.00     0.014 C 
ATOM     18  C   UNL d   1      30.404 -14.075   7.623  0.00  0.00     0.015 C 
BRANCH  17  19
ATOM     19  C   UNL d   1      28.348 -12.628   7.586  0.00  0.00     0.004 C 
ATOM     20  C   UNL d   1      29.144 -12.193   8.830  0.00  0.00     0.006 C 
ENDBRANCH  17  19
ENDBRANCH  13  17
ENDBRANCH   7   9
ENDBRANCH   5   7
ENDBRANCH   1   5
BRANCH   2  21
ATOM     21  C   UNL d   1      27.517 -15.285  -0.418  0.00  0.00     0.035 A 
ATOM     22  C   UNL d   1      26.956 -16.234   0.439  0.00  0.00     0.019 A 
ATOM     23  C   UNL d   1      25.751 -16.838   0.111  0.00  0.00     0.033 A 
ATOM     24  C   UNL d   1      25.039 -16.494  -1.059  0.00  0.00     0.063 A 
ATOM     25  C   UNL d   1      25.682 -15.578  -1.947  0.00  0.00     0.130 A 
ATOM     26  C   UNL d   1      26.924 -14.991  -1.625  0.00  0.00     0.055 A 
BRANCH  24  27
ATOM     27  N   UNL d   1      23.822 -17.108  -1.207  0.00  0.00    -0.379 N 
ATOM     28  C   UNL d   1      22.602 -16.729  -0.521  0.00  0.00     0.123 C 
ATOM     29  C   UNL d   1      22.029 -18.076  -0.101  0.00  0.00     0.021 C 
ATOM     30  C   UNL d   1      22.326 -18.951  -1.311  0.00  0.00     0.021 C 
ATOM     31  C   UNL d   1      23.656 -18.411  -1.868  0.00  0.00     0.123 C 
ENDBRANCH  24  27
BRANCH  25  32
ATOM     32  N   UNL d   1      25.119 -15.118  -3.232  0.00  0.00    -0.113 N 
ATOM     33  O   UNL d   1      25.541 -15.552  -4.292  0.00  0.00    -0.532 OA
ATOM     34  O   UNL d   1      24.164 -14.310  -3.169  0.00  0.00    -0.532 OA
ENDBRANCH  25  32
ENDBRANCH   2  21
TORSDOF 9
ENDMDL
MODEL 6
REMARK VINA RESULT:    -7.617      1.452      1.757
REMARK INTER + INTRA:         -12.625
REMARK INTER:                 -10.302
REMARK INTRA:                  -2.323
REMARK CONF_INDEPENDENT:        2.685
REMARK UNBOUND:                -2.323
REMARK  9 active torsions:
REMARK  status: ('A' for Active; 'I' for Inactive)
REMARK    1  A    between atoms: C_3  and  C_2 
REMARK    2  A    between atoms: C_3  and  C_5 
REMARK    3  A    between atoms: C_8  and  O_9 
REMARK    4  A    between atoms: C_10  and  N_11 
REMARK    5  A    between atoms: N_11  and  C_12 
REMARK    6  A    between atoms: C_12  and  N_14 
REMARK       I    between atoms: N_14  and  C_15 
REMARK    7  A    between atoms: C_15  and  C_17 
REMARK    8  A    between atoms: C_20  and  N_21 
REMARK    9  A    between atoms: C_26  and  N_27 
ROOT
ATOM      1  N   UNL d   1      26.017 -13.979  -1.750  0.00  0.00    -0.299 N 
ATOM      2  C   UNL d   1      27.293 -14.050  -1.154  0.00  0.00     0.257 C 
ATOM      3  O   UNL d   1      28.331 -14.481  -1.632  0.00  0.00    -0.267 OA
ATOM      4  H   UNL d   1      25.257 -13.571  -1.226  0.00  0.00     0.171 HD
ENDROOT
BRANCH   1   5
ATOM      5  C   UNL d   1      25.760 -14.543  -3.016  0.00  0.00     0.179 C 
ATOM      6  S   UNL d   1      25.668 -13.510  -4.357  0.00  0.00    -0.040 SA
BRANCH   5   7
ATOM      7  N   UNL d   1      25.662 -15.964  -3.031  0.00  0.00    -0.331 N 
ATOM      8  H   UNL d   1      25.580 -16.440  -3.923  0.00  0.00     0.168 HD
BRANCH   7   9
ATOM      9  C   UNL d   1      25.430 -16.832  -1.880  0.00  0.00     0.068 C 
ATOM     10  C   UNL d   1      26.431 -17.150  -0.945  0.00  0.00     0.092 C 
ATOM     11  C   UNL d   1      26.183 -17.671   0.290  0.00  0.00     0.039 C 
ATOM     12  C   UNL d   1      24.931 -18.134   0.533  0.00  0.00     0.010 C 
ATOM     13  C   UNL d   1      23.921 -18.171  -0.458  0.00  0.00    -0.052 C 
ATOM     14  C   UNL d   1      24.159 -17.428  -1.644  0.00  0.00     0.039 C 
BRANCH  10  15
ATOM     15  O   UNL d   1      27.773 -17.189  -1.178  0.00  0.00    -0.358 OA
ATOM     16  H   UNL d   1      28.030 -16.244  -1.242  0.00  0.00     0.217 HD
ENDBRANCH  10  15
BRANCH  13  17
ATOM     17  C   UNL d   1      22.641 -19.019  -0.236  0.00  0.00     0.014 C 
ATOM     18  C   UNL d   1      21.783 -18.574   0.985  0.00  0.00     0.015 C 
BRANCH  17  19
ATOM     19  C   UNL d   1      21.741 -18.958  -1.500  0.00  0.00     0.004 C 
ATOM     20  C   UNL d   1      20.293 -19.277  -1.086  0.00  0.00     0.006 C 
ENDBRANCH  17  19
ENDBRANCH  13  17
ENDBRANCH   7   9
ENDBRANCH   5   7
ENDBRANCH   1   5
BRANCH   2  21
ATOM     21  C   UNL d   1      27.530 -13.558   0.191  0.00  0.00     0.035 A 
ATOM     22  C   UNL d   1      27.782 -14.527   1.166  0.00  0.00     0.019 A 
ATOM     23  C   UNL d   1      27.753 -14.182   2.510  0.00  0.00     0.033 A 
ATOM     24  C   UNL d   1      27.513 -12.856   2.933  0.00  0.00     0.063 A 
ATOM     25  C   UNL d   1      27.185 -11.913   1.912  0.00  0.00     0.130 A 
ATOM     26  C   UNL d   1      27.182 -12.276   0.549  0.00  0.00     0.055 A 
BRANCH  24  27
ATOM     27  N   UNL d   1      27.603 -12.648   4.286  0.00  0.00    -0.379 N 
ATOM     28  C   UNL d   1      27.792 -11.361   4.927  0.00  0.00     0.123 C 
ATOM     29  C   UNL d   1      28.841 -11.674   5.986  0.00  0.00     0.021 C 
ATOM     30  C   UNL d   1      28.404 -13.043   6.488  0.00  0.00     0.021 C 
ATOM     31  C   UNL d   1      27.801 -13.738   5.253  0.00  0.00     0.123 C 
ENDBRANCH  24  27
BRANCH  25  32
ATOM     32  N   UNL d   1      26.871 -10.490   2.152  0.00  0.00    -0.113 N 
ATOM     33  O   UNL d   1      26.085 -10.160   3.026  0.00  0.00    -0.532 OA
ATOM     34  O   UNL d   1      27.489  -9.654   1.454  0.00  0.00    -0.532 OA
ENDBRANCH  25  32
ENDBRANCH   2  21
TORSDOF 9
ENDMDL
MODEL 7
REMARK VINA RESULT:    -7.594      2.469      3.365
REMARK INTER + INTRA:         -12.101
REMARK INTER:                 -10.278
REMARK INTRA:                  -1.823
REMARK CONF_INDEPENDENT:        2.685
REMARK UNBOUND:                -1.823
REMARK  9 active torsions:
REMARK  status: ('A' for Active; 'I' for Inactive)
REMARK    1  A    between atoms: C_3  and  C_2 
REMARK    2  A    between atoms: C_3  and  C_5 
REMARK    3  A    between atoms: C_8  and  O_9 
REMARK    4  A    between atoms: C_10  and  N_11 
REMARK    5  A    between atoms: N_11  and  C_12 
REMARK    6  A    between atoms: C_12  and  N_14 
REMARK       I    between atoms: N_14  and  C_15 
REMARK    7  A    between atoms: C_15  and  C_17 
REMARK    8  A    between atoms: C_20  and  N_21 
REMARK    9  A    between atoms: C_26  and  N_27 
ROOT
ATOM      1  N   UNL d   1      28.953 -14.250   2.101  0.00  0.00    -0.299 N 
ATOM      2  C   UNL d   1      28.082 -13.763   3.096  0.00  0.00     0.257 C 
ATOM      3  O   UNL d   1      26.888 -13.518   3.006  0.00  0.00    -0.267 OA
ATOM      4  H   UNL d   1      29.918 -14.423   2.342  0.00  0.00     0.171 HD
ENDROOT
BRANCH   1   5
ATOM      5  C   UNL d   1      28.534 -14.414   0.766  0.00  0.00     0.179 C 
ATOM      6  S   UNL d   1      29.690 -14.284  -0.467  0.00  0.00    -0.040 SA
BRANCH   5   7
ATOM      7  N   UNL d   1      27.155 -14.738   0.606  0.00  0.00    -0.331 N 
ATOM      8  H   UNL d   1      26.456 -14.078   0.932  0.00  0.00     0.168 HD
BRANCH   7   9
ATOM      9  C   UNL d   1      26.606 -16.036   0.229  0.00  0.00     0.068 C 
ATOM     10  C   UNL d   1      27.360 -17.224   0.247  0.00  0.00     0.092 C 
ATOM     11  C   UNL d   1      26.816 -18.473   0.224  0.00  0.00     0.039 C 
ATOM     12  C   UNL d   1      25.498 -18.575  -0.081  0.00  0.00     0.010 C 
ATOM     13  C   UNL d   1      24.707 -17.460  -0.449  0.00  0.00    -0.052 C 
ATOM     14  C   UNL d   1      25.255 -16.174  -0.200  0.00  0.00     0.039 C 
BRANCH  10  15
ATOM     15  O   UNL d   1      28.709 -17.327   0.085  0.00  0.00    -0.358 OA
ATOM     16  H   UNL d   1      28.932 -18.189   0.498  0.00  0.00     0.217 HD
ENDBRANCH  10  15
BRANCH  13  17
ATOM     17  C   UNL d   1      23.322 -17.673  -1.117  0.00  0.00     0.014 C 
ATOM     18  C   UNL d   1      23.229 -18.950  -2.003  0.00  0.00     0.015 C 
BRANCH  17  19
ATOM     19  C   UNL d   1      22.219 -17.764  -0.029  0.00  0.00     0.004 C 
ATOM     20  C   UNL d   1      21.446 -19.080  -0.225  0.00  0.00     0.006 C 
ENDBRANCH  17  19
ENDBRANCH  13  17
ENDBRANCH   7   9
ENDBRANCH   5   7
ENDBRANCH   1   5
BRANCH   2  21
ATOM     21  C   UNL d   1      28.544 -13.499   4.447  0.00  0.00     0.035 A 
ATOM     22  C   UNL d   1      28.718 -14.616   5.268  0.00  0.00     0.019 A 
ATOM     23  C   UNL d   1      28.893 -14.452   6.634  0.00  0.00     0.033 A 
ATOM     24  C   UNL d   1      28.941 -13.173   7.231  0.00  0.00     0.063 A 
ATOM     25  C   UNL d   1      28.682 -12.062   6.372  0.00  0.00     0.130 A 
ATOM     26  C   UNL d   1      28.471 -12.236   4.987  0.00  0.00     0.055 A 
BRANCH  24  27
ATOM     27  N   UNL d   1      29.208 -13.163   8.576  0.00  0.00    -0.379 N 
ATOM     28  C   UNL d   1      28.325 -13.664   9.612  0.00  0.00     0.123 C 
ATOM     29  C   UNL d   1      28.415 -12.575  10.673  0.00  0.00     0.021 C 
ATOM     30  C   UNL d   1      29.891 -12.203  10.640  0.00  0.00     0.021 C 
ATOM     31  C   UNL d   1      30.307 -12.386   9.169  0.00  0.00     0.123 C 
ENDBRANCH  24  27
BRANCH  25  32
ATOM     32  N   UNL d   1      28.656 -10.651   6.807  0.00  0.00    -0.113 N 
ATOM     33  O   UNL d   1      28.530 -10.361   7.986  0.00  0.00    -0.532 OA
ATOM     34  O   UNL d   1      28.820  -9.785   5.917  0.00  0.00    -0.532 OA
ENDBRANCH  25  32
ENDBRANCH   2  21
TORSDOF 9
ENDMDL
MODEL 8
REMARK VINA RESULT:    -7.439      3.126      8.187
REMARK INTER + INTRA:         -12.284
REMARK INTER:                 -10.124
REMARK INTRA:                  -2.161
REMARK CONF_INDEPENDENT:        2.685
REMARK UNBOUND:                -2.161
REMARK  9 active torsions:
REMARK  status: ('A' for Active; 'I' for Inactive)
REMARK    1  A    between atoms: C_3  and  C_2 
REMARK    2  A    between atoms: C_3  and  C_5 
REMARK    3  A    between atoms: C_8  and  O_9 
REMARK    4  A    between atoms: C_10  and  N_11 
REMARK    5  A    between atoms: N_11  and  C_12 
REMARK    6  A    between atoms: C_12  and  N_14 
REMARK       I    between atoms: N_14  and  C_15 
REMARK    7  A    between atoms: C_15  and  C_17 
REMARK    8  A    between atoms: C_20  and  N_21 
REMARK    9  A    between atoms: C_26  and  N_27 
ROOT
ATOM      1  N   UNL d   1      29.903 -14.825   1.786  0.00  0.00    -0.299 N 
ATOM      2  C   UNL d   1      29.203 -14.363   0.653  0.00  0.00     0.257 C 
ATOM      3  O   UNL d   1      29.544 -13.514  -0.156  0.00  0.00    -0.267 OA
ATOM      4  H   UNL d   1      29.491 -15.555   2.349  0.00  0.00     0.171 HD
ENDROOT
BRANCH   1   5
ATOM      5  C   UNL d   1      31.114 -14.235   2.199  0.00  0.00     0.179 C 
ATOM      6  S   UNL d   1      32.380 -14.117   1.078  0.00  0.00    -0.040 SA
BRANCH   5   7
ATOM      7  N   UNL d   1      31.114 -13.738   3.535  0.00  0.00    -0.331 N 
ATOM      8  H   UNL d   1      31.925 -13.907   4.121  0.00  0.00     0.168 HD
BRANCH   7   9
ATOM      9  C   UNL d   1      29.969 -13.197   4.261  0.00  0.00     0.068 C 
ATOM     10  C   UNL d   1      28.928 -14.000   4.761  0.00  0.00     0.092 C 
ATOM     11  C   UNL d   1      28.035 -13.590   5.705  0.00  0.00     0.039 C 
ATOM     12  C   UNL d   1      27.995 -12.265   5.993  0.00  0.00     0.010 C 
ATOM     13  C   UNL d   1      28.773 -11.305   5.303  0.00  0.00    -0.052 C 
ATOM     14  C   UNL d   1      29.831 -11.799   4.494  0.00  0.00     0.039 C 
BRANCH  10  15
ATOM     15  O   UNL d   1      28.521 -15.200   4.260  0.00  0.00    -0.358 OA
ATOM     16  H   UNL d   1      29.321 -15.766   4.319  0.00  0.00     0.217 HD
ENDBRANCH  10  15
BRANCH  13  17
ATOM     17  C   UNL d   1      28.438  -9.795   5.425  0.00  0.00     0.014 C 
ATOM     18  C   UNL d   1      29.667  -8.852   5.261  0.00  0.00     0.015 C 
BRANCH  17  19
ATOM     19  C   UNL d   1      27.386  -9.400   4.354  0.00  0.00     0.004 C 
ATOM     20  C   UNL d   1      28.030  -9.532   2.962  0.00  0.00     0.006 C 
ENDBRANCH  17  19
ENDBRANCH  13  17
ENDBRANCH   7   9
ENDBRANCH   5   7
ENDBRANCH   1   5
BRANCH   2  21
ATOM     21  C   UNL d   1      27.906 -14.906   0.289  0.00  0.00     0.035 A 
ATOM     22  C   UNL d   1      27.486 -16.030   1.003  0.00  0.00     0.019 A 
ATOM     23  C   UNL d   1      26.403 -16.773   0.553  0.00  0.00     0.033 A 
ATOM     24  C   UNL d   1      25.674 -16.403  -0.599  0.00  0.00     0.063 A 
ATOM     25  C   UNL d   1      26.181 -15.294  -1.342  0.00  0.00     0.130 A 
ATOM     26  C   UNL d   1      27.303 -14.563  -0.899  0.00  0.00     0.055 A 
BRANCH  24  27
ATOM     27  N   UNL d   1      24.576 -17.179  -0.871  0.00  0.00    -0.379 N 
ATOM     28  C   UNL d   1      23.274 -16.680  -1.270  0.00  0.00     0.123 C 
ATOM     29  C   UNL d   1      22.327 -17.523  -0.425  0.00  0.00     0.021 C 
ATOM     30  C   UNL d   1      22.985 -18.895  -0.463  0.00  0.00     0.021 C 
ATOM     31  C   UNL d   1      24.495 -18.605  -0.520  0.00  0.00     0.123 C 
ENDBRANCH  24  27
BRANCH  25  32
ATOM     32  N   UNL d   1      25.582 -14.774  -2.587  0.00  0.00    -0.113 N 
ATOM     33  O   UNL d   1      25.450 -15.490  -3.567  0.00  0.00    -0.532 OA
ATOM     34  O   UNL d   1      25.177 -13.589  -2.563  0.00  0.00    -0.532 OA
ENDBRANCH  25  32
ENDBRANCH   2  21
TORSDOF 9
ENDMDL
MODEL 9
REMARK VINA RESULT:    -7.416      2.769      4.083
REMARK INTER + INTRA:         -12.259
REMARK INTER:                 -10.101
REMARK INTRA:                  -2.159
REMARK CONF_INDEPENDENT:        2.685
REMARK UNBOUND:                -2.159
REMARK  9 active torsions:
REMARK  status: ('A' for Active; 'I' for Inactive)
REMARK    1  A    between atoms: C_3  and  C_2 
REMARK    2  A    between atoms: C_3  and  C_5 
REMARK    3  A    between atoms: C_8  and  O_9 
REMARK    4  A    between atoms: C_10  and  N_11 
REMARK    5  A    between atoms: N_11  and  C_12 
REMARK    6  A    between atoms: C_12  and  N_14 
REMARK       I    between atoms: N_14  and  C_15 
REMARK    7  A    between atoms: C_15  and  C_17 
REMARK    8  A    between atoms: C_20  and  N_21 
REMARK    9  A    between atoms: C_26  and  N_27 
ROOT
ATOM      1  N   UNL d   1      29.074 -14.099   0.203  0.00  0.00    -0.299 N 
ATOM      2  C   UNL d   1      28.223 -13.437   1.112  0.00  0.00     0.257 C 
ATOM      3  O   UNL d   1      27.889 -13.789   2.233  0.00  0.00    -0.267 OA
ATOM      4  H   UNL d   1      29.271 -13.663  -0.685  0.00  0.00     0.171 HD
ENDROOT
BRANCH   1   5
ATOM      5  C   UNL d   1      29.580 -15.387   0.468  0.00  0.00     0.179 C 
ATOM      6  S   UNL d   1      31.184 -15.532   0.998  0.00  0.00    -0.040 SA
BRANCH   5   7
ATOM      7  N   UNL d   1      28.639 -16.445   0.311  0.00  0.00    -0.331 N 
ATOM      8  H   UNL d   1      28.901 -17.381   0.603  0.00  0.00     0.168 HD
BRANCH   7   9
ATOM      9  C   UNL d   1      27.394 -16.395  -0.450  0.00  0.00     0.068 C 
ATOM     10  C   UNL d   1      27.280 -15.746  -1.693  0.00  0.00     0.092 C 
ATOM     11  C   UNL d   1      26.257 -15.952  -2.569  0.00  0.00     0.039 C 
ATOM     12  C   UNL d   1      25.171 -16.627  -2.115  0.00  0.00     0.010 C 
ATOM     13  C   UNL d   1      25.033 -17.042  -0.768  0.00  0.00    -0.052 C 
ATOM     14  C   UNL d   1      26.201 -16.999   0.039  0.00  0.00     0.039 C 
BRANCH  10  15
ATOM     15  O   UNL d   1      28.025 -14.691  -2.126  0.00  0.00    -0.358 OA
ATOM     16  H   UNL d   1      28.921 -14.870  -1.767  0.00  0.00     0.217 HD
ENDBRANCH  10  15
BRANCH  13  17
ATOM     17  C   UNL d   1      23.649 -17.488  -0.227  0.00  0.00     0.014 C 
ATOM     18  C   UNL d   1      22.495 -16.484  -0.518  0.00  0.00     0.015 C 
BRANCH  17  19
ATOM     19  C   UNL d   1      23.258 -18.858  -0.843  0.00  0.00     0.004 C 
ATOM     20  C   UNL d   1      21.722 -18.950  -0.896  0.00  0.00     0.006 C 
ENDBRANCH  17  19
ENDBRANCH  13  17
ENDBRANCH   7   9
ENDBRANCH   5   7
ENDBRANCH   1   5
BRANCH   2  21
ATOM     21  C   UNL d   1      27.622 -12.154   0.792  0.00  0.00     0.035 A 
ATOM     22  C   UNL d   1      27.970 -11.601  -0.442  0.00  0.00     0.019 A 
ATOM     23  C   UNL d   1      27.668 -10.275  -0.718  0.00  0.00     0.033 A 
ATOM     24  C   UNL d   1      26.974  -9.462   0.205  0.00  0.00     0.063 A 
ATOM     25  C   UNL d   1      26.704 -10.041   1.483  0.00  0.00     0.130 A 
ATOM     26  C   UNL d   1      27.044 -11.379   1.771  0.00  0.00     0.055 A 
BRANCH  24  27
ATOM     27  N   UNL d   1      26.666  -8.202  -0.239  0.00  0.00    -0.379 N 
ATOM     28  C   UNL d   1      26.788  -6.984   0.538  0.00  0.00     0.123 C 
ATOM     29  C   UNL d   1      25.490  -6.255   0.211  0.00  0.00     0.021 C 
ATOM     30  C   UNL d   1      25.318  -6.541  -1.274  0.00  0.00     0.021 C 
ATOM     31  C   UNL d   1      25.904  -7.951  -1.472  0.00  0.00     0.123 C 
ENDBRANCH  24  27
BRANCH  25  32
ATOM     32  N   UNL d   1      26.019  -9.347   2.591  0.00  0.00    -0.113 N 
ATOM     33  O   UNL d   1      26.649  -8.900   3.537  0.00  0.00    -0.532 OA
ATOM     34  O   UNL d   1      24.780  -9.198   2.481  0.00  0.00    -0.532 OA
ENDBRANCH  25  32
ENDBRANCH   2  21
TORSDOF 9
ENDMDL
