MODEL 1
REMARK VINA RESULT:    -7.274      0.000      0.000
REMARK INTER + INTRA:          -9.132
REMARK INTER:                  -8.766
REMARK INTRA:                  -0.366
REMARK CONF_INDEPENDENT:        1.492
REMARK UNBOUND:                -0.366
REMARK  5 active torsions:
REMARK  status: ('A' for Active; 'I' for Inactive)
REMARK    1  A    between atoms: O_2  and  C_3 
REMARK    2  A    between atoms: C_7  and  C_8 
REMARK    3  A    between atoms: C_8  and  N_9 
REMARK    4  A    between atoms: N_9  and  C_10 
REMARK    5  A    between atoms: C_16  and  C_17 
REMARK       I    between atoms: C_17  and  N_18 
ROOT
ATOM      1  C   UNL d   1      27.279 -15.284  -3.050  0.00  0.00     0.044 A 
ATOM      2  C   UNL d   1      28.562 -15.889  -3.010  0.00  0.00     0.032 A 
ATOM      3  C   UNL d   1      29.390 -15.929  -4.125  0.00  0.00     0.026 A 
ATOM      4  C   UNL d   1      28.909 -15.430  -5.322  0.00  0.00     0.035 A 
ATOM      5 CL   UNL d   1      29.851 -15.580  -6.751  0.00  0.00    -0.084 Cl
ATOM      6  C   UNL d   1      27.654 -14.824  -5.390  0.00  0.00     0.043 A 
ATOM      7  C   UNL d   1      26.826 -14.721  -4.261  0.00  0.00     0.059 A 
ENDROOT
BRANCH   1   8
ATOM      8  N   UNL d   1      26.610 -15.308  -1.846  0.00  0.00    -0.385 N 
ATOM      9  H   UNL d   1      27.229 -15.173  -1.061  0.00  0.00     0.160 HD
BRANCH   8  10
ATOM     10  C   UNL d   1      25.177 -15.173  -1.664  0.00  0.00     0.158 C 
BRANCH  10  11
ATOM     11  C   UNL d   1      24.500 -16.430  -1.192  0.00  0.00    -0.038 A 
ATOM     12  C   UNL d   1      25.290 -17.450  -0.650  0.00  0.00     0.009 A 
ATOM     13  C   UNL d   1      24.689 -18.575  -0.098  0.00  0.00     0.003 A 
ATOM     14  C   UNL d   1      23.298 -18.717  -0.144  0.00  0.00     0.037 A 
ATOM     15  C   UNL d   1      22.504 -17.726  -0.716  0.00  0.00     0.068 A 
ATOM     16  C   UNL d   1      23.119 -16.612  -1.256  0.00  0.00     0.045 A 
BRANCH  15  17
ATOM     17  O   UNL d   1      21.144 -17.840  -0.613  0.00  0.00    -0.356 OA
ATOM     18  C   UNL d   1      20.579 -19.078  -1.053  0.00  0.00     0.210 C 
ENDBRANCH  15  17
ENDBRANCH  10  11
ENDBRANCH   8  10
ENDBRANCH   1   8
BRANCH   7  19
ATOM     19  C   UNL d   1      25.543 -13.942  -4.393  0.00  0.00     0.251 C 
ATOM     20  N   UNL d   1      25.588 -12.581  -4.473  0.00  0.00    -0.366 N 
ATOM     21  H   UNL d   1      26.292 -12.032  -4.008  0.00  0.00     0.159 HD
ATOM     22  H   UNL d   1      24.660 -12.176  -4.511  0.00  0.00     0.159 HD
ATOM     23  O   UNL d   1      24.411 -14.424  -4.391  0.00  0.00    -0.268 OA
ENDBRANCH   7  19
TORSDOF 5
ENDMDL
MODEL 2
REMARK VINA RESULT:    -7.079      3.368      6.969
REMARK INTER + INTRA:          -8.991
REMARK INTER:                  -8.570
REMARK INTRA:                  -0.421
REMARK CONF_INDEPENDENT:        1.492
REMARK UNBOUND:                -0.421
REMARK  5 active torsions:
REMARK  status: ('A' for Active; 'I' for Inactive)
REMARK    1  A    between atoms: O_2  and  C_3 
REMARK    2  A    between atoms: C_7  and  C_8 
REMARK    3  A    between atoms: C_8  and  N_9 
REMARK    4  A    between atoms: N_9  and  C_10 
REMARK    5  A    between atoms: C_16  and  C_17 
REMARK       I    between atoms: C_17  and  N_18 
ROOT
ATOM      1  C   UNL d   1      25.140 -16.607  -0.768  0.00  0.00     0.044 A 
ATOM      2  C   UNL d   1      23.853 -16.172  -1.178  0.00  0.00     0.032 A 
ATOM      3  C   UNL d   1      22.706 -16.903  -0.895  0.00  0.00     0.026 A 
ATOM      4  C   UNL d   1      22.843 -18.125  -0.261  0.00  0.00     0.035 A 
ATOM      5 CL   UNL d   1      21.462 -19.117  -0.011  0.00  0.00    -0.084 Cl
ATOM      6  C   UNL d   1      24.094 -18.575   0.159  0.00  0.00     0.043 A 
ATOM      7  C   UNL d   1      25.259 -17.824  -0.065  0.00  0.00     0.059 A 
ENDROOT
BRANCH   1   8
ATOM      8  N   UNL d   1      26.158 -15.743  -1.108  0.00  0.00    -0.385 N 
ATOM      9  H   UNL d   1      26.977 -16.228  -1.440  0.00  0.00     0.160 HD
BRANCH   8  10
ATOM     10  C   UNL d   1      26.026 -14.316  -1.334  0.00  0.00     0.158 C 
BRANCH  10  11
ATOM     11  C   UNL d   1      26.190 -13.908  -2.772  0.00  0.00    -0.038 A 
ATOM     12  C   UNL d   1      25.947 -12.574  -3.118  0.00  0.00     0.009 A 
ATOM     13  C   UNL d   1      26.200 -12.135  -4.413  0.00  0.00     0.003 A 
ATOM     14  C   UNL d   1      26.637 -13.043  -5.384  0.00  0.00     0.037 A 
ATOM     15  C   UNL d   1      26.845 -14.381  -5.061  0.00  0.00     0.068 A 
ATOM     16  C   UNL d   1      26.592 -14.798  -3.767  0.00  0.00     0.045 A 
BRANCH  15  17
ATOM     17  O   UNL d   1      27.405 -15.200  -6.003  0.00  0.00    -0.356 OA
ATOM     18  C   UNL d   1      28.824 -15.111  -6.155  0.00  0.00     0.210 C 
ENDBRANCH  15  17
ENDBRANCH  10  11
ENDBRANCH   8  10
ENDBRANCH   1   8
BRANCH   7  19
ATOM     19  C   UNL d   1      26.549 -18.322   0.530  0.00  0.00     0.251 C 
ATOM     20  N   UNL d   1      27.719 -18.132  -0.145  0.00  0.00    -0.366 N 
ATOM     21  H   UNL d   1      27.771 -18.121  -1.151  0.00  0.00     0.159 HD
ATOM     22  H   UNL d   1      28.505 -18.554   0.337  0.00  0.00     0.159 HD
ATOM     23  O   UNL d   1      26.655 -18.948   1.584  0.00  0.00    -0.268 OA
ENDBRANCH   7  19
TORSDOF 5
ENDMDL
MODEL 3
REMARK VINA RESULT:    -6.685      3.312      6.961
REMARK INTER + INTRA:          -8.733
REMARK INTER:                  -8.176
REMARK INTRA:                  -0.557
REMARK CONF_INDEPENDENT:        1.492
REMARK UNBOUND:                -0.557
REMARK  5 active torsions:
REMARK  status: ('A' for Active; 'I' for Inactive)
REMARK    1  A    between atoms: O_2  and  C_3 
REMARK    2  A    between atoms: C_7  and  C_8 
REMARK    3  A    between atoms: C_8  and  N_9 
REMARK    4  A    between atoms: N_9  and  C_10 
REMARK    5  A    between atoms: C_16  and  C_17 
REMARK       I    between atoms: C_17  and  N_18 
ROOT
ATOM      1  C   UNL d   1      24.956 -16.433  -0.590  0.00  0.00     0.044 A 
ATOM      2  C   UNL d   1      23.641 -16.078  -0.986  0.00  0.00     0.032 A 
ATOM      3  C   UNL d   1      22.562 -16.934  -0.800  0.00  0.00     0.026 A 
ATOM      4  C   UNL d   1      22.801 -18.194  -0.284  0.00  0.00     0.035 A 
ATOM      5 CL   UNL d   1      21.514 -19.327  -0.162  0.00  0.00    -0.084 Cl
ATOM      6  C   UNL d   1      24.083 -18.569   0.120  0.00  0.00     0.043 A 
ATOM      7  C   UNL d   1      25.177 -17.697  -0.005  0.00  0.00     0.059 A 
ENDROOT
BRANCH   1   8
ATOM      8  N   UNL d   1      25.895 -15.452  -0.822  0.00  0.00    -0.385 N 
ATOM      9  H   UNL d   1      26.687 -15.525  -0.202  0.00  0.00     0.160 HD
BRANCH   8  10
ATOM     10  C   UNL d   1      25.985 -14.621  -2.008  0.00  0.00     0.158 C 
BRANCH  10  11
ATOM     11  C   UNL d   1      27.098 -15.008  -2.943  0.00  0.00    -0.038 A 
ATOM     12  C   UNL d   1      28.213 -15.666  -2.414  0.00  0.00     0.009 A 
ATOM     13  C   UNL d   1      29.206 -16.140  -3.263  0.00  0.00     0.003 A 
ATOM     14  C   UNL d   1      29.120 -15.903  -4.640  0.00  0.00     0.037 A 
ATOM     15  C   UNL d   1      28.033 -15.215  -5.173  0.00  0.00     0.068 A 
ATOM     16  C   UNL d   1      27.053 -14.754  -4.313  0.00  0.00     0.045 A 
BRANCH  15  17
ATOM     17  O   UNL d   1      27.920 -15.128  -6.533  0.00  0.00    -0.356 OA
ATOM     18  C   UNL d   1      28.902 -14.331  -7.199  0.00  0.00     0.210 C 
ENDBRANCH  15  17
ENDBRANCH  10  11
ENDBRANCH   8  10
ENDBRANCH   1   8
BRANCH   7  19
ATOM     19  C   UNL d   1      26.499 -18.134   0.569  0.00  0.00     0.251 C 
ATOM     20  N   UNL d   1      27.643 -17.928  -0.146  0.00  0.00    -0.366 N 
ATOM     21  H   UNL d   1      27.667 -17.949  -1.152  0.00  0.00     0.159 HD
ATOM     22  H   UNL d   1      28.455 -18.308   0.327  0.00  0.00     0.159 HD
ATOM     23  O   UNL d   1      26.655 -18.720   1.639  0.00  0.00    -0.268 OA
ENDBRANCH   7  19
TORSDOF 5
ENDMDL
MODEL 4
REMARK VINA RESULT:    -6.679      2.607      2.957
REMARK INTER + INTRA:          -8.934
REMARK INTER:                  -8.171
REMARK INTRA:                  -0.763
REMARK CONF_INDEPENDENT:        1.492
REMARK UNBOUND:                -0.763
REMARK  5 active torsions:
REMARK  status: ('A' for Active; 'I' for Inactive)
REMARK    1  A    between atoms: O_2  and  C_3 
REMARK    2  A    between atoms: C_7  and  C_8 
REMARK    3  A    between atoms: C_8  and  N_9 
REMARK    4  A    between atoms: N_9  and  C_10 
REMARK    5  A    between atoms: C_16  and  C_17 
REMARK       I    between atoms: C_17  and  N_18 
ROOT
ATOM      1  C   UNL d   1      26.241 -13.851  -1.722  0.00  0.00     0.044 A 
ATOM      2  C   UNL d   1      26.904 -13.403  -0.551  0.00  0.00     0.032 A 
ATOM      3  C   UNL d   1      27.511 -12.155  -0.483  0.00  0.00     0.026 A 
ATOM      4  C   UNL d   1      27.529 -11.368  -1.621  0.00  0.00     0.035 A 
ATOM      5 CL   UNL d   1      28.383  -9.876  -1.615  0.00  0.00    -0.084 Cl
ATOM      6  C   UNL d   1      26.880 -11.780  -2.785  0.00  0.00     0.043 A 
ATOM      7  C   UNL d   1      26.210 -13.013  -2.855  0.00  0.00     0.059 A 
ENDROOT
BRANCH   1   8
ATOM      8  N   UNL d   1      25.670 -15.100  -1.600  0.00  0.00    -0.385 N 
ATOM      9  H   UNL d   1      25.649 -15.599  -2.476  0.00  0.00     0.160 HD
BRANCH   8  10
ATOM     10  C   UNL d   1      25.443 -15.815  -0.358  0.00  0.00     0.158 C 
BRANCH  10  11
ATOM     11  C   UNL d   1      24.472 -16.957  -0.480  0.00  0.00    -0.038 A 
ATOM     12  C   UNL d   1      24.915 -18.245  -0.159  0.00  0.00     0.009 A 
ATOM     13  C   UNL d   1      24.016 -19.306  -0.148  0.00  0.00     0.003 A 
ATOM     14  C   UNL d   1      22.684 -19.095  -0.522  0.00  0.00     0.037 A 
ATOM     15  C   UNL d   1      22.241 -17.825  -0.880  0.00  0.00     0.068 A 
ATOM     16  C   UNL d   1      23.148 -16.781  -0.881  0.00  0.00     0.045 A 
BRANCH  15  17
ATOM     17  O   UNL d   1      20.904 -17.639  -1.101  0.00  0.00    -0.356 OA
ATOM     18  C   UNL d   1      20.065 -18.778  -0.894  0.00  0.00     0.210 C 
ENDBRANCH  15  17
ENDBRANCH  10  11
ENDBRANCH   8  10
ENDBRANCH   1   8
BRANCH   7  19
ATOM     19  C   UNL d   1      25.431 -13.324  -4.106  0.00  0.00     0.251 C 
ATOM     20  N   UNL d   1      25.199 -12.335  -5.017  0.00  0.00    -0.366 N 
ATOM     21  H   UNL d   1      25.080 -11.371  -4.754  0.00  0.00     0.159 HD
ATOM     22  H   UNL d   1      24.626 -12.661  -5.787  0.00  0.00     0.159 HD
ATOM     23  O   UNL d   1      24.924 -14.411  -4.381  0.00  0.00    -0.268 OA
ENDBRANCH   7  19
TORSDOF 5
ENDMDL
MODEL 5
REMARK VINA RESULT:    -6.276      2.628      3.392
REMARK INTER + INTRA:          -8.740
REMARK INTER:                  -7.767
REMARK INTRA:                  -0.972
REMARK CONF_INDEPENDENT:        1.492
REMARK UNBOUND:                -0.972
REMARK  5 active torsions:
REMARK  status: ('A' for Active; 'I' for Inactive)
REMARK    1  A    between atoms: O_2  and  C_3 
REMARK    2  A    between atoms: C_7  and  C_8 
REMARK    3  A    between atoms: C_8  and  N_9 
REMARK    4  A    between atoms: N_9  and  C_10 
REMARK    5  A    between atoms: C_16  and  C_17 
REMARK       I    between atoms: C_17  and  N_18 
ROOT
ATOM      1  C   UNL d   1      26.524 -13.770  -4.821  0.00  0.00     0.044 A 
ATOM      2  C   UNL d   1      25.703 -12.629  -4.624  0.00  0.00     0.032 A 
ATOM      3  C   UNL d   1      25.905 -11.450  -5.330  0.00  0.00     0.026 A 
ATOM      4  C   UNL d   1      26.985 -11.373  -6.191  0.00  0.00     0.035 A 
ATOM      5 CL   UNL d   1      27.344  -9.890  -6.982  0.00  0.00    -0.084 Cl
ATOM      6  C   UNL d   1      27.805 -12.480  -6.408  0.00  0.00     0.043 A 
ATOM      7  C   UNL d   1      27.583 -13.700  -5.748  0.00  0.00     0.059 A 
ENDROOT
BRANCH   1   8
ATOM      8  N   UNL d   1      26.160 -14.859  -4.059  0.00  0.00    -0.385 N 
ATOM      9  H   UNL d   1      26.813 -15.623  -4.146  0.00  0.00     0.160 HD
BRANCH   8  10
ATOM     10  C   UNL d   1      25.195 -14.858  -2.976  0.00  0.00     0.158 C 
BRANCH  10  11
ATOM     11  C   UNL d   1      25.375 -15.985  -1.996  0.00  0.00    -0.038 A 
ATOM     12  C   UNL d   1      26.658 -16.235  -1.496  0.00  0.00     0.009 A 
ATOM     13  C   UNL d   1      26.842 -17.191  -0.503  0.00  0.00     0.003 A 
ATOM     14  C   UNL d   1      25.754 -17.947  -0.052  0.00  0.00     0.037 A 
ATOM     15  C   UNL d   1      24.479 -17.733  -0.570  0.00  0.00     0.068 A 
ATOM     16  C   UNL d   1      24.315 -16.775  -1.553  0.00  0.00     0.045 A 
BRANCH  15  17
ATOM     17  O   UNL d   1      23.425 -18.394  -0.001  0.00  0.00    -0.356 OA
ATOM     18  C   UNL d   1      22.205 -18.396  -0.745  0.00  0.00     0.210 C 
ENDBRANCH  15  17
ENDBRANCH  10  11
ENDBRANCH   8  10
ENDBRANCH   1   8
BRANCH   7  19
ATOM     19  C   UNL d   1      28.437 -14.879  -6.134  0.00  0.00     0.251 C 
ATOM     20  N   UNL d   1      29.191 -14.820  -7.270  0.00  0.00    -0.366 N 
ATOM     21  H   UNL d   1      28.905 -14.305  -8.086  0.00  0.00     0.159 HD
ATOM     22  H   UNL d   1      29.680 -15.691  -7.442  0.00  0.00     0.159 HD
ATOM     23  O   UNL d   1      28.492 -15.950  -5.531  0.00  0.00    -0.268 OA
ENDBRANCH   7  19
TORSDOF 5
ENDMDL
MODEL 6
REMARK VINA RESULT:    -6.267      4.505      6.113
REMARK INTER + INTRA:          -8.456
REMARK INTER:                  -7.759
REMARK INTRA:                  -0.697
REMARK CONF_INDEPENDENT:        1.492
REMARK UNBOUND:                -0.697
REMARK  5 active torsions:
REMARK  status: ('A' for Active; 'I' for Inactive)
REMARK    1  A    between atoms: O_2  and  C_3 
REMARK    2  A    between atoms: C_7  and  C_8 
REMARK    3  A    between atoms: C_8  and  N_9 
REMARK    4  A    between atoms: N_9  and  C_10 
REMARK    5  A    between atoms: C_16  and  C_17 
REMARK       I    between atoms: C_17  and  N_18 
ROOT
ATOM      1  C   UNL d   1      26.354 -16.499  -0.904  0.00  0.00     0.044 A 
ATOM      2  C   UNL d   1      26.099 -17.604  -0.051  0.00  0.00     0.032 A 
ATOM      3  C   UNL d   1      24.846 -18.200   0.024  0.00  0.00     0.026 A 
ATOM      4  C   UNL d   1      23.807 -17.645  -0.702  0.00  0.00     0.035 A 
ATOM      5 CL   UNL d   1      22.216 -18.273  -0.536  0.00  0.00    -0.084 Cl
ATOM      6  C   UNL d   1      24.030 -16.563  -1.554  0.00  0.00     0.043 A 
ATOM      7  C   UNL d   1      25.302 -15.983  -1.688  0.00  0.00     0.059 A 
ENDROOT
BRANCH   1   8
ATOM      8  N   UNL d   1      27.658 -16.057  -0.872  0.00  0.00    -0.385 N 
ATOM      9  H   UNL d   1      27.931 -15.607  -1.733  0.00  0.00     0.160 HD
BRANCH   8  10
ATOM     10  C   UNL d   1      28.474 -15.892   0.316  0.00  0.00     0.158 C 
BRANCH  10  11
ATOM     11  C   UNL d   1      28.030 -14.768   1.211  0.00  0.00    -0.038 A 
ATOM     12  C   UNL d   1      27.467 -13.630   0.622  0.00  0.00     0.009 A 
ATOM     13  C   UNL d   1      26.941 -12.622   1.423  0.00  0.00     0.003 A 
ATOM     14  C   UNL d   1      27.032 -12.718   2.816  0.00  0.00     0.037 A 
ATOM     15  C   UNL d   1      27.624 -13.828   3.412  0.00  0.00     0.068 A 
ATOM     16  C   UNL d   1      28.138 -14.822   2.600  0.00  0.00     0.045 A 
BRANCH  15  17
ATOM     17  O   UNL d   1      27.566 -13.946   4.774  0.00  0.00    -0.356 OA
ATOM     18  C   UNL d   1      28.520 -14.825   5.374  0.00  0.00     0.210 C 
ENDBRANCH  15  17
ENDBRANCH  10  11
ENDBRANCH   8  10
ENDBRANCH   1   8
BRANCH   7  19
ATOM     19  C   UNL d   1      25.482 -14.902  -2.721  0.00  0.00     0.251 C 
ATOM     20  N   UNL d   1      25.997 -13.695  -2.348  0.00  0.00    -0.366 N 
ATOM     21  H   UNL d   1      25.842 -13.295  -1.437  0.00  0.00     0.159 HD
ATOM     22  H   UNL d   1      26.023 -13.041  -3.123  0.00  0.00     0.159 HD
ATOM     23  O   UNL d   1      25.158 -14.983  -3.905  0.00  0.00    -0.268 OA
ENDBRANCH   7  19
TORSDOF 5
ENDMDL
MODEL 7
REMARK VINA RESULT:    -6.168      4.981      6.340
REMARK INTER + INTRA:          -8.203
REMARK INTER:                  -7.659
REMARK INTRA:                  -0.543
REMARK CONF_INDEPENDENT:        1.492
REMARK UNBOUND:                -0.543
REMARK  5 active torsions:
REMARK  status: ('A' for Active; 'I' for Inactive)
REMARK    1  A    between atoms: O_2  and  C_3 
REMARK    2  A    between atoms: C_7  and  C_8 
REMARK    3  A    between atoms: C_8  and  N_9 
REMARK    4  A    between atoms: N_9  and  C_10 
REMARK    5  A    between atoms: C_16  and  C_17 
REMARK       I    between atoms: C_17  and  N_18 
ROOT
ATOM      1  C   UNL d   1      27.830 -14.268   1.783  0.00  0.00     0.044 A 
ATOM      2  C   UNL d   1      27.511 -13.343   0.756  0.00  0.00     0.032 A 
ATOM      3  C   UNL d   1      27.166 -12.026   1.036  0.00  0.00     0.026 A 
ATOM      4  C   UNL d   1      27.060 -11.639   2.359  0.00  0.00     0.035 A 
ATOM      5 CL   UNL d   1      26.510 -10.058   2.746  0.00  0.00    -0.084 Cl
ATOM      6  C   UNL d   1      27.374 -12.525   3.390  0.00  0.00     0.043 A 
ATOM      7  C   UNL d   1      27.781 -13.844   3.127  0.00  0.00     0.059 A 
ENDROOT
BRANCH   1   8
ATOM      8  N   UNL d   1      28.177 -15.519   1.322  0.00  0.00    -0.385 N 
ATOM      9  H   UNL d   1      28.318 -16.179   2.072  0.00  0.00     0.160 HD
BRANCH   8  10
ATOM     10  C   UNL d   1      28.025 -15.999  -0.039  0.00  0.00     0.158 C 
BRANCH  10  11
ATOM     11  C   UNL d   1      26.603 -16.303  -0.424  0.00  0.00    -0.038 A 
ATOM     12  C   UNL d   1      26.036 -15.599  -1.491  0.00  0.00     0.009 A 
ATOM     13  C   UNL d   1      24.767 -15.934  -1.948  0.00  0.00     0.003 A 
ATOM     14  C   UNL d   1      24.032 -16.932  -1.299  0.00  0.00     0.037 A 
ATOM     15  C   UNL d   1      24.572 -17.614  -0.211  0.00  0.00     0.068 A 
ATOM     16  C   UNL d   1      25.837 -17.270   0.227  0.00  0.00     0.045 A 
BRANCH  15  17
ATOM     17  O   UNL d   1      23.877 -18.675   0.303  0.00  0.00    -0.356 OA
ATOM     18  C   UNL d   1      22.915 -19.280  -0.565  0.00  0.00     0.210 C 
ENDBRANCH  15  17
ENDBRANCH  10  11
ENDBRANCH   8  10
ENDBRANCH   1   8
BRANCH   7  19
ATOM     19  C   UNL d   1      28.220 -14.694   4.289  0.00  0.00     0.251 C 
ATOM     20  N   UNL d   1      29.515 -15.119   4.360  0.00  0.00    -0.366 N 
ATOM     21  H   UNL d   1      30.066 -15.322   3.542  0.00  0.00     0.159 HD
ATOM     22  H   UNL d   1      29.669 -15.721   5.162  0.00  0.00     0.159 HD
ATOM     23  O   UNL d   1      27.492 -15.098   5.195  0.00  0.00    -0.268 OA
ENDBRANCH   7  19
TORSDOF 5
ENDMDL
MODEL 8
REMARK VINA RESULT:    -5.773      3.058      6.060
REMARK INTER + INTRA:          -8.828
REMARK INTER:                  -7.265
REMARK INTRA:                  -1.563
REMARK CONF_INDEPENDENT:        1.492
REMARK UNBOUND:                -1.563
REMARK  5 active torsions:
REMARK  status: ('A' for Active; 'I' for Inactive)
REMARK    1  A    between atoms: O_2  and  C_3 
REMARK    2  A    between atoms: C_7  and  C_8 
REMARK    3  A    between atoms: C_8  and  N_9 
REMARK    4  A    between atoms: N_9  and  C_10 
REMARK    5  A    between atoms: C_16  and  C_17 
REMARK       I    between atoms: C_17  and  N_18 
ROOT
ATOM      1  C   UNL d   1      26.262 -16.328  -0.715  0.00  0.00     0.044 A 
ATOM      2  C   UNL d   1      26.093 -17.428   0.165  0.00  0.00     0.032 A 
ATOM      3  C   UNL d   1      24.958 -18.229   0.130  0.00  0.00     0.026 A 
ATOM      4  C   UNL d   1      23.938 -17.890  -0.741  0.00  0.00     0.035 A 
ATOM      5 CL   UNL d   1      22.467 -18.778  -0.722  0.00  0.00    -0.084 Cl
ATOM      6  C   UNL d   1      24.079 -16.819  -1.623  0.00  0.00     0.043 A 
ATOM      7  C   UNL d   1      25.242 -16.032  -1.644  0.00  0.00     0.059 A 
ENDROOT
BRANCH   1   8
ATOM      8  N   UNL d   1      27.459 -15.665  -0.560  0.00  0.00    -0.385 N 
ATOM      9  H   UNL d   1      27.380 -14.872   0.058  0.00  0.00     0.160 HD
BRANCH   8  10
ATOM     10  C   UNL d   1      28.770 -16.181  -0.905  0.00  0.00     0.158 C 
BRANCH  10  11
ATOM     11  C   UNL d   1      29.051 -16.196  -2.383  0.00  0.00    -0.038 A 
ATOM     12  C   UNL d   1      30.171 -16.898  -2.841  0.00  0.00     0.009 A 
ATOM     13  C   UNL d   1      30.397 -17.031  -4.206  0.00  0.00     0.003 A 
ATOM     14  C   UNL d   1      29.539 -16.407  -5.119  0.00  0.00     0.037 A 
ATOM     15  C   UNL d   1      28.442 -15.674  -4.673  0.00  0.00     0.068 A 
ATOM     16  C   UNL d   1      28.232 -15.556  -3.312  0.00  0.00     0.045 A 
BRANCH  15  17
ATOM     17  O   UNL d   1      27.554 -15.201  -5.600  0.00  0.00    -0.356 OA
ATOM     18  C   UNL d   1      27.835 -13.909  -6.144  0.00  0.00     0.210 C 
ENDBRANCH  15  17
ENDBRANCH  10  11
ENDBRANCH   8  10
ENDBRANCH   1   8
BRANCH   7  19
ATOM     19  C   UNL d   1      25.363 -14.975  -2.710  0.00  0.00     0.251 C 
ATOM     20  N   UNL d   1      25.530 -15.349  -4.011  0.00  0.00    -0.366 N 
ATOM     21  H   UNL d   1      26.027 -16.183  -4.278  0.00  0.00     0.159 HD
ATOM     22  H   UNL d   1      25.645 -14.548  -4.621  0.00  0.00     0.159 HD
ATOM     23  O   UNL d   1      25.372 -13.760  -2.515  0.00  0.00    -0.268 OA
ENDBRANCH   7  19
TORSDOF 5
ENDMDL
