MODEL 1
REMARK VINA RESULT:   -10.590      0.000      0.000
REMARK INTER + INTRA:         -14.278
REMARK INTER:                 -12.678
REMARK INTRA:                  -1.600
REMARK CONF_INDEPENDENT:        2.088
REMARK UNBOUND:                -1.600
REMARK  7 active torsions:
REMARK  status: ('A' for Active; 'I' for Inactive)
REMARK    1  A    between atoms: O_2  and  C_3 
REMARK    2  A    between atoms: C_6  and  N_7 
REMARK       I    between atoms: N_7  and  C_8 
REMARK       I    between atoms: C_8  and  N_20 
REMARK       I    between atoms: N_9  and  C_10 
REMARK    3  A    between atoms: C_10  and  C_12 
REMARK    4  A    between atoms: N_20  and  C_21 
REMARK    5  A    between atoms: C_21  and  C_22 
REMARK    6  A    between atoms: C_22  and  C_23 
REMARK    7  A    between atoms: C_33  and  O_34 
ROOT
ATOM      1  N   UNL d   1      25.160 -16.164  -3.153  0.00  0.00    -0.190 N 
ATOM      2  C   UNL d   1      25.106 -16.563  -1.797  0.00  0.00     0.704 C 
ATOM      3  N   UNL d   1      25.686 -16.074  -0.734  0.00  0.00    -0.023 NA
ATOM      4  C   UNL d   1      26.900 -15.458  -0.897  0.00  0.00     0.294 C 
ATOM      5  O   UNL d   1      27.779 -15.914  -1.586  0.00  0.00    -0.265 OA
ATOM      6  N   UNL d   1      24.293 -17.672  -1.504  0.00  0.00    -0.224 N 
ATOM      7  H   UNL d   1      24.846 -16.839  -3.837  0.00  0.00     0.184 HD
ATOM      8  H   UNL d   1      24.031 -18.317  -2.242  0.00  0.00     0.177 HD
ENDROOT
BRANCH   1   9
ATOM      9  C   UNL d   1      25.872 -15.061  -3.749  0.00  0.00     0.052 C 
ATOM     10  C   UNL d   1      25.466 -13.734  -3.737  0.00  0.00     0.033 C 
ATOM     11  C   UNL d   1      26.101 -12.760  -4.589  0.00  0.00     0.042 C 
ATOM     12  C   UNL d   1      27.084 -13.086  -5.551  0.00  0.00     0.101 C 
ATOM     13  C   UNL d   1      27.457 -14.405  -5.557  0.00  0.00     0.103 C 
ATOM     14  C   UNL d   1      27.040 -15.226  -4.470  0.00  0.00     0.069 C 
BRANCH  12  15
ATOM     15  O   UNL d   1      27.793 -12.033  -6.070  0.00  0.00    -0.353 OA
ATOM     16  C   UNL d   1      27.335 -11.213  -7.140  0.00  0.00     0.210 C 
ENDBRANCH  12  15
BRANCH  13  17
ATOM     17  O   UNL d   1      28.072 -15.143  -6.518  0.00  0.00    -0.353 OA
ATOM     18  C   UNL d   1      29.454 -15.134  -6.710  0.00  0.00     0.210 C 
ENDBRANCH  13  17
ENDBRANCH   1   9
BRANCH   6  19
ATOM     19  C   UNL d   1      24.311 -18.222  -0.118  0.00  0.00     0.142 C 
BRANCH  19  20
ATOM     20  C   UNL d   1      22.966 -18.211   0.591  0.00  0.00     0.057 C 
BRANCH  20  21
ATOM     21  C   UNL d   1      21.769 -18.773  -0.143  0.00  0.00    -0.048 A 
ATOM     22  C   UNL d   1      20.735 -19.253   0.551  0.00  0.00    -0.006 A 
ATOM     23  C   UNL d   1      20.542 -19.352   1.951  0.00  0.00     0.014 C 
ATOM     24  C   UNL d   1      19.762 -19.776  -0.415  0.00  0.00     0.038 A 
ATOM     25  C   UNL d   1      19.510 -20.072   2.398  0.00  0.00     0.001 C 
ATOM     26  C   UNL d   1      18.510 -20.597   1.485  0.00  0.00     0.002 C 
ATOM     27  C   UNL d   1      18.575 -20.468   0.141  0.00  0.00     0.030 C 
ATOM     28  N   UNL d   1      20.138 -19.550  -1.618  0.00  0.00    -0.385 N 
ATOM     29  C   UNL d   1      21.518 -18.949  -1.620  0.00  0.00     0.155 A 
ATOM     30  H   UNL d   1      19.551 -19.764  -2.424  0.00  0.00     0.160 HD
ENDBRANCH  20  21
ENDBRANCH  19  20
ENDBRANCH   6  19
BRANCH   4  31
ATOM     31  C   UNL d   1      27.268 -14.402   0.107  0.00  0.00     0.036 C 
ATOM     32  C   UNL d   1      27.203 -14.410   1.526  0.00  0.00     0.020 C 
ATOM     33  C   UNL d   1      27.048 -13.197   2.219  0.00  0.00     0.045 C 
ATOM     34  C   UNL d   1      27.131 -12.004   1.518  0.00  0.00     0.138 C 
ATOM     35  F   UNL d   1      27.047 -10.850   2.192  0.00  0.00    -0.204 F 
ATOM     36  C   UNL d   1      27.299 -12.008   0.137  0.00  0.00     0.073 C 
ATOM     37 CL   UNL d   1      27.413 -10.562  -0.773  0.00  0.00    -0.081 Cl
ATOM     38  C   UNL d   1      27.343 -13.197  -0.562  0.00  0.00     0.044 C 
ENDBRANCH   4  31
TORSDOF 7
ENDMDL
MODEL 2
REMARK VINA RESULT:   -10.012      4.404      7.928
REMARK INTER + INTRA:         -14.168
REMARK INTER:                 -12.100
REMARK INTRA:                  -2.068
REMARK CONF_INDEPENDENT:        2.088
REMARK UNBOUND:                -2.068
REMARK  7 active torsions:
REMARK  status: ('A' for Active; 'I' for Inactive)
REMARK    1  A    between atoms: O_2  and  C_3 
REMARK    2  A    between atoms: C_6  and  N_7 
REMARK       I    between atoms: N_7  and  C_8 
REMARK       I    between atoms: C_8  and  N_20 
REMARK       I    between atoms: N_9  and  C_10 
REMARK    3  A    between atoms: C_10  and  C_12 
REMARK    4  A    between atoms: N_20  and  C_21 
REMARK    5  A    between atoms: C_21  and  C_22 
REMARK    6  A    between atoms: C_22  and  C_23 
REMARK    7  A    between atoms: C_33  and  O_34 
ROOT
ATOM      1  N   UNL d   1      29.432 -14.608   3.344  0.00  0.00    -0.190 N 
ATOM      2  C   UNL d   1      28.967 -14.235   2.060  0.00  0.00     0.704 C 
ATOM      3  N   UNL d   1      28.286 -13.195   1.661  0.00  0.00    -0.023 NA
ATOM      4  C   UNL d   1      27.424 -12.617   2.555  0.00  0.00     0.294 C 
ATOM      5  O   UNL d   1      26.683 -13.259   3.260  0.00  0.00    -0.265 OA
ATOM      6  N   UNL d   1      29.278 -15.112   1.005  0.00  0.00    -0.224 N 
ATOM      7  H   UNL d   1      29.704 -15.574   3.465  0.00  0.00     0.184 HD
ATOM      8  H   UNL d   1      29.528 -16.075   1.204  0.00  0.00     0.177 HD
ENDROOT
BRANCH   1   9
ATOM      9  C   UNL d   1      29.297 -13.909   4.597  0.00  0.00     0.052 C 
ATOM     10  C   UNL d   1      28.894 -14.472   5.800  0.00  0.00     0.033 C 
ATOM     11  C   UNL d   1      28.530 -13.640   6.919  0.00  0.00     0.042 C 
ATOM     12  C   UNL d   1      28.454 -12.229   6.853  0.00  0.00     0.101 C 
ATOM     13  C   UNL d   1      28.840 -11.696   5.651  0.00  0.00     0.103 C 
ATOM     14  C   UNL d   1      29.504 -12.547   4.721  0.00  0.00     0.069 C 
BRANCH  12  15
ATOM     15  O   UNL d   1      28.382 -11.572   8.054  0.00  0.00    -0.353 OA
ATOM     16  C   UNL d   1      28.723 -12.159   9.306  0.00  0.00     0.210 C 
ENDBRANCH  12  15
BRANCH  13  17
ATOM     17  O   UNL d   1      28.580 -10.481   5.101  0.00  0.00    -0.353 OA
ATOM     18  C   UNL d   1      29.067  -9.289   5.639  0.00  0.00     0.210 C 
ENDBRANCH  13  17
ENDBRANCH   1   9
BRANCH   6  19
ATOM     19  C   UNL d   1      28.693 -14.843  -0.339  0.00  0.00     0.142 C 
BRANCH  19  20
ATOM     20  C   UNL d   1      27.196 -15.092  -0.447  0.00  0.00     0.057 C 
BRANCH  20  21
ATOM     21  C   UNL d   1      26.693 -16.505  -0.249  0.00  0.00    -0.048 A 
ATOM     22  C   UNL d   1      25.413 -16.790  -0.496  0.00  0.00    -0.006 A 
ATOM     23  C   UNL d   1      24.358 -15.950  -0.930  0.00  0.00     0.014 C 
ATOM     24  C   UNL d   1      25.206 -18.203  -0.164  0.00  0.00     0.038 A 
ATOM     25  C   UNL d   1      23.112 -16.430  -0.895  0.00  0.00     0.001 C 
ATOM     26  C   UNL d   1      22.855 -17.827  -0.589  0.00  0.00     0.002 C 
ATOM     27  C   UNL d   1      23.817 -18.714  -0.252  0.00  0.00     0.030 C 
ATOM     28  N   UNL d   1      26.305 -18.764   0.178  0.00  0.00    -0.385 N 
ATOM     29  C   UNL d   1      27.403 -17.737   0.254  0.00  0.00     0.155 A 
ATOM     30  H   UNL d   1      26.375 -19.765   0.362  0.00  0.00     0.160 HD
ENDBRANCH  20  21
ENDBRANCH  19  20
ENDBRANCH   6  19
BRANCH   4  31
ATOM     31  C   UNL d   1      27.127 -11.155   2.369  0.00  0.00     0.036 C 
ATOM     32  C   UNL d   1      26.290 -10.278   3.108  0.00  0.00     0.020 C 
ATOM     33  C   UNL d   1      25.723  -9.161   2.471  0.00  0.00     0.045 C 
ATOM     34  C   UNL d   1      26.126  -8.843   1.183  0.00  0.00     0.138 C 
ATOM     35  F   UNL d   1      25.632  -7.741   0.604  0.00  0.00    -0.204 F 
ATOM     36  C   UNL d   1      27.029  -9.656   0.505  0.00  0.00     0.073 C 
ATOM     37 CL   UNL d   1      27.562  -9.302  -1.083  0.00  0.00    -0.081 Cl
ATOM     38  C   UNL d   1      27.506 -10.813   1.086  0.00  0.00     0.044 C 
ENDBRANCH   4  31
TORSDOF 7
ENDMDL
MODEL 3
REMARK VINA RESULT:    -9.946      2.465      4.134
REMARK INTER + INTRA:         -14.032
REMARK INTER:                 -12.035
REMARK INTRA:                  -1.998
REMARK CONF_INDEPENDENT:        2.088
REMARK UNBOUND:                -1.998
REMARK  7 active torsions:
REMARK  status: ('A' for Active; 'I' for Inactive)
REMARK    1  A    between atoms: O_2  and  C_3 
REMARK    2  A    between atoms: C_6  and  N_7 
REMARK       I    between atoms: N_7  and  C_8 
REMARK       I    between atoms: C_8  and  N_20 
REMARK       I    between atoms: N_9  and  C_10 
REMARK    3  A    between atoms: C_10  and  C_12 
REMARK    4  A    between atoms: N_20  and  C_21 
REMARK    5  A    between atoms: C_21  and  C_22 
REMARK    6  A    between atoms: C_22  and  C_23 
REMARK    7  A    between atoms: C_33  and  O_34 
ROOT
ATOM      1  N   UNL d   1      27.101 -17.304   0.431  0.00  0.00    -0.190 N 
ATOM      2  C   UNL d   1      25.915 -17.462  -0.325  0.00  0.00     0.704 C 
ATOM      3  N   UNL d   1      25.475 -16.826  -1.377  0.00  0.00    -0.023 NA
ATOM      4  C   UNL d   1      25.847 -15.516  -1.531  0.00  0.00     0.294 C 
ATOM      5  O   UNL d   1      25.837 -14.720  -0.624  0.00  0.00    -0.265 OA
ATOM      6  N   UNL d   1      25.034 -18.473   0.100  0.00  0.00    -0.224 N 
ATOM      7  H   UNL d   1      27.111 -17.721   1.351  0.00  0.00     0.184 HD
ATOM      8  H   UNL d   1      25.095 -18.833   1.047  0.00  0.00     0.177 HD
ENDROOT
BRANCH   1   9
ATOM      9  C   UNL d   1      28.193 -16.386   0.226  0.00  0.00     0.052 C 
ATOM     10  C   UNL d   1      28.476 -15.276   1.010  0.00  0.00     0.033 C 
ATOM     11  C   UNL d   1      29.415 -14.277   0.563  0.00  0.00     0.042 C 
ATOM     12  C   UNL d   1      30.024 -14.292  -0.713  0.00  0.00     0.101 C 
ATOM     13  C   UNL d   1      29.717 -15.388  -1.476  0.00  0.00     0.103 C 
ATOM     14  C   UNL d   1      29.065 -16.485  -0.844  0.00  0.00     0.069 C 
BRANCH  12  15
ATOM     15  O   UNL d   1      31.097 -13.454  -0.879  0.00  0.00    -0.353 OA
ATOM     16  C   UNL d   1      31.126 -12.099  -0.443  0.00  0.00     0.210 C 
ENDBRANCH  12  15
BRANCH  13  17
ATOM     17  O   UNL d   1      29.807 -15.582  -2.818  0.00  0.00    -0.353 OA
ATOM     18  C   UNL d   1      30.837 -15.045  -3.592  0.00  0.00     0.210 C 
ENDBRANCH  13  17
ENDBRANCH   1   9
BRANCH   6  19
ATOM     19  C   UNL d   1      23.708 -18.589  -0.570  0.00  0.00     0.142 C 
BRANCH  19  20
ATOM     20  C   UNL d   1      22.512 -18.551   0.369  0.00  0.00     0.057 C 
BRANCH  20  21
ATOM     21  C   UNL d   1      21.180 -19.044  -0.152  0.00  0.00    -0.048 A 
ATOM     22  C   UNL d   1      20.283 -19.545   0.700  0.00  0.00    -0.006 A 
ATOM     23  C   UNL d   1      20.357 -19.724   2.104  0.00  0.00     0.014 C 
ATOM     24  C   UNL d   1      19.130 -19.990  -0.089  0.00  0.00     0.038 A 
ATOM     25  C   UNL d   1      19.408 -20.450   2.699  0.00  0.00     0.001 C 
ATOM     26  C   UNL d   1      18.236 -20.899   1.967  0.00  0.00     0.002 C 
ATOM     27  C   UNL d   1      18.049 -20.691   0.645  0.00  0.00     0.030 C 
ATOM     28  N   UNL d   1      19.276 -19.699  -1.328  0.00  0.00    -0.385 N 
ATOM     29  C   UNL d   1      20.648 -19.126  -1.561  0.00  0.00     0.155 A 
ATOM     30  H   UNL d   1      18.540 -19.853  -2.017  0.00  0.00     0.160 HD
ENDBRANCH  20  21
ENDBRANCH  19  20
ENDBRANCH   6  19
BRANCH   4  31
ATOM     31  C   UNL d   1      25.894 -14.982  -2.935  0.00  0.00     0.036 C 
ATOM     32  C   UNL d   1      26.358 -15.577  -4.138  0.00  0.00     0.020 C 
ATOM     33  C   UNL d   1      26.831 -14.759  -5.178  0.00  0.00     0.045 C 
ATOM     34  C   UNL d   1      26.678 -13.385  -5.078  0.00  0.00     0.138 C 
ATOM     35  F   UNL d   1      27.071 -12.614  -6.100  0.00  0.00    -0.204 F 
ATOM     36  C   UNL d   1      26.125 -12.818  -3.934  0.00  0.00     0.073 C 
ATOM     37 CL   UNL d   1      25.909 -11.128  -3.765  0.00  0.00    -0.081 Cl
ATOM     38  C   UNL d   1      25.758 -13.609  -2.865  0.00  0.00     0.044 C 
ENDBRANCH   4  31
TORSDOF 7
ENDMDL
MODEL 4
REMARK VINA RESULT:    -9.749      4.387      8.273
REMARK INTER + INTRA:         -14.048
REMARK INTER:                 -11.837
REMARK INTRA:                  -2.211
REMARK CONF_INDEPENDENT:        2.088
REMARK UNBOUND:                -2.211
REMARK  7 active torsions:
REMARK  status: ('A' for Active; 'I' for Inactive)
REMARK    1  A    between atoms: O_2  and  C_3 
REMARK    2  A    between atoms: C_6  and  N_7 
REMARK       I    between atoms: N_7  and  C_8 
REMARK       I    between atoms: C_8  and  N_20 
REMARK       I    between atoms: N_9  and  C_10 
REMARK    3  A    between atoms: C_10  and  C_12 
REMARK    4  A    between atoms: N_20  and  C_21 
REMARK    5  A    between atoms: C_21  and  C_22 
REMARK    6  A    between atoms: C_22  and  C_23 
REMARK    7  A    between atoms: C_33  and  O_34 
ROOT
ATOM      1  N   UNL d   1      29.955 -14.677   3.724  0.00  0.00    -0.190 N 
ATOM      2  C   UNL d   1      29.376 -14.393   2.464  0.00  0.00     0.704 C 
ATOM      3  N   UNL d   1      28.504 -13.491   2.102  0.00  0.00    -0.023 NA
ATOM      4  C   UNL d   1      27.591 -13.078   3.036  0.00  0.00     0.294 C 
ATOM      5  O   UNL d   1      27.007 -13.842   3.766  0.00  0.00    -0.265 OA
ATOM      6  N   UNL d   1      29.794 -15.200   1.390  0.00  0.00    -0.224 N 
ATOM      7  H   UNL d   1      30.400 -15.578   3.826  0.00  0.00     0.184 HD
ATOM      8  H   UNL d   1      30.221 -16.103   1.571  0.00  0.00     0.177 HD
ENDROOT
BRANCH   1   9
ATOM      9  C   UNL d   1      29.751 -14.012   4.987  0.00  0.00     0.052 C 
ATOM     10  C   UNL d   1      28.851 -14.400   5.970  0.00  0.00     0.033 C 
ATOM     11  C   UNL d   1      28.530 -13.519   7.065  0.00  0.00     0.042 C 
ATOM     12  C   UNL d   1      29.009 -12.193   7.168  0.00  0.00     0.101 C 
ATOM     13  C   UNL d   1      29.882 -11.826   6.178  0.00  0.00     0.103 C 
ATOM     14  C   UNL d   1      30.409 -12.847   5.335  0.00  0.00     0.069 C 
BRANCH  12  15
ATOM     15  O   UNL d   1      28.859 -11.590   8.391  0.00  0.00    -0.353 OA
ATOM     16  C   UNL d   1      28.535 -12.288   9.589  0.00  0.00     0.210 C 
ENDBRANCH  12  15
BRANCH  13  17
ATOM     17  O   UNL d   1      30.258 -10.594   5.745  0.00  0.00    -0.353 OA
ATOM     18  C   UNL d   1      31.595 -10.226   5.584  0.00  0.00     0.210 C 
ENDBRANCH  13  17
ENDBRANCH   1   9
BRANCH   6  19
ATOM     19  C   UNL d   1      29.113 -15.040   0.073  0.00  0.00     0.142 C 
BRANCH  19  20
ATOM     20  C   UNL d   1      28.253 -16.221  -0.349  0.00  0.00     0.057 C 
BRANCH  20  21
ATOM     21  C   UNL d   1      26.892 -15.935  -0.944  0.00  0.00    -0.048 A 
ATOM     22  C   UNL d   1      25.854 -16.708  -0.618  0.00  0.00    -0.006 A 
ATOM     23  C   UNL d   1      25.788 -17.837   0.235  0.00  0.00     0.014 C 
ATOM     24  C   UNL d   1      24.696 -16.233  -1.383  0.00  0.00     0.038 A 
ATOM     25  C   UNL d   1      24.674 -18.572   0.226  0.00  0.00     0.001 C 
ATOM     26  C   UNL d   1      23.493 -18.137  -0.501  0.00  0.00     0.002 C 
ATOM     27  C   UNL d   1      23.447 -17.024  -1.266  0.00  0.00     0.030 C 
ATOM     28  N   UNL d   1      24.987 -15.186  -2.061  0.00  0.00    -0.385 N 
ATOM     29  C   UNL d   1      26.459 -14.891  -1.944  0.00  0.00     0.155 A 
ATOM     30  H   UNL d   1      24.287 -14.663  -2.588  0.00  0.00     0.160 HD
ENDBRANCH  20  21
ENDBRANCH  19  20
ENDBRANCH   6  19
BRANCH   4  31
ATOM     31  C   UNL d   1      27.030 -11.693   2.873  0.00  0.00     0.036 C 
ATOM     32  C   UNL d   1      26.410 -11.069   1.758  0.00  0.00     0.020 C 
ATOM     33  C   UNL d   1      26.477  -9.673   1.619  0.00  0.00     0.045 C 
ATOM     34  C   UNL d   1      26.999  -8.916   2.657  0.00  0.00     0.138 C 
ATOM     35  F   UNL d   1      27.001  -7.581   2.548  0.00  0.00    -0.204 F 
ATOM     36  C   UNL d   1      27.510  -9.535   3.793  0.00  0.00     0.073 C 
ATOM     37 CL   UNL d   1      28.159  -8.646   5.105  0.00  0.00    -0.081 Cl
ATOM     38  C   UNL d   1      27.545 -10.911   3.888  0.00  0.00     0.044 C 
ENDBRANCH   4  31
TORSDOF 7
ENDMDL
MODEL 5
REMARK VINA RESULT:    -9.698      4.578      8.023
REMARK INTER + INTRA:         -14.147
REMARK INTER:                 -11.786
REMARK INTRA:                  -2.361
REMARK CONF_INDEPENDENT:        2.088
REMARK UNBOUND:                -2.361
REMARK  7 active torsions:
REMARK  status: ('A' for Active; 'I' for Inactive)
REMARK    1  A    between atoms: O_2  and  C_3 
REMARK    2  A    between atoms: C_6  and  N_7 
REMARK       I    between atoms: N_7  and  C_8 
REMARK       I    between atoms: C_8  and  N_20 
REMARK       I    between atoms: N_9  and  C_10 
REMARK    3  A    between atoms: C_10  and  C_12 
REMARK    4  A    between atoms: N_20  and  C_21 
REMARK    5  A    between atoms: C_21  and  C_22 
REMARK    6  A    between atoms: C_22  and  C_23 
REMARK    7  A    between atoms: C_33  and  O_34 
ROOT
ATOM      1  N   UNL d   1      29.488 -14.620   3.406  0.00  0.00    -0.190 N 
ATOM      2  C   UNL d   1      28.983 -14.243   2.139  0.00  0.00     0.704 C 
ATOM      3  N   UNL d   1      28.251 -13.225   1.774  0.00  0.00    -0.023 NA
ATOM      4  C   UNL d   1      27.382 -12.702   2.695  0.00  0.00     0.294 C 
ATOM      5  O   UNL d   1      26.683 -13.388   3.401  0.00  0.00    -0.265 OA
ATOM      6  N   UNL d   1      29.310 -15.085   1.062  0.00  0.00    -0.224 N 
ATOM      7  H   UNL d   1      29.804 -15.575   3.503  0.00  0.00     0.184 HD
ATOM      8  H   UNL d   1      29.605 -16.040   1.236  0.00  0.00     0.177 HD
ENDROOT
BRANCH   1   9
ATOM      9  C   UNL d   1      29.349 -13.951   4.675  0.00  0.00     0.052 C 
ATOM     10  C   UNL d   1      28.383 -14.225   5.634  0.00  0.00     0.033 C 
ATOM     11  C   UNL d   1      28.160 -13.323   6.736  0.00  0.00     0.042 C 
ATOM     12  C   UNL d   1      28.813 -12.075   6.870  0.00  0.00     0.101 C 
ATOM     13  C   UNL d   1      29.749 -11.818   5.904  0.00  0.00     0.103 C 
ATOM     14  C   UNL d   1      30.151 -12.890   5.056  0.00  0.00     0.069 C 
BRANCH  12  15
ATOM     15  O   UNL d   1      28.719 -11.474   8.100  0.00  0.00    -0.353 OA
ATOM     16  C   UNL d   1      28.839 -12.168   9.337  0.00  0.00     0.210 C 
ENDBRANCH  12  15
BRANCH  13  17
ATOM     17  O   UNL d   1      30.299 -10.644   5.499  0.00  0.00    -0.353 OA
ATOM     18  C   UNL d   1      31.040 -10.522   4.322  0.00  0.00     0.210 C 
ENDBRANCH  13  17
ENDBRANCH   1   9
BRANCH   6  19
ATOM     19  C   UNL d   1      28.688 -14.816  -0.266  0.00  0.00     0.142 C 
BRANCH  19  20
ATOM     20  C   UNL d   1      27.190 -15.068  -0.333  0.00  0.00     0.057 C 
BRANCH  20  21
ATOM     21  C   UNL d   1      26.698 -16.489  -0.165  0.00  0.00    -0.048 A 
ATOM     22  C   UNL d   1      25.428 -16.785  -0.446  0.00  0.00    -0.006 A 
ATOM     23  C   UNL d   1      24.373 -15.951  -0.895  0.00  0.00     0.014 C 
ATOM     24  C   UNL d   1      25.229 -18.204  -0.137  0.00  0.00     0.038 A 
ATOM     25  C   UNL d   1      23.133 -16.445  -0.895  0.00  0.00     0.001 C 
ATOM     26  C   UNL d   1      22.884 -17.848  -0.613  0.00  0.00     0.002 C 
ATOM     27  C   UNL d   1      23.848 -18.729  -0.265  0.00  0.00     0.030 C 
ATOM     28  N   UNL d   1      26.326 -18.757   0.225  0.00  0.00    -0.385 N 
ATOM     29  C   UNL d   1      27.410 -17.719   0.340  0.00  0.00     0.155 A 
ATOM     30  H   UNL d   1      26.403 -19.760   0.398  0.00  0.00     0.160 HD
ENDBRANCH  20  21
ENDBRANCH  19  20
ENDBRANCH   6  19
BRANCH   4  31
ATOM     31  C   UNL d   1      27.020 -11.251   2.543  0.00  0.00     0.036 C 
ATOM     32  C   UNL d   1      26.654 -10.503   1.393  0.00  0.00     0.020 C 
ATOM     33  C   UNL d   1      26.906  -9.121   1.356  0.00  0.00     0.045 C 
ATOM     34  C   UNL d   1      27.351  -8.486   2.505  0.00  0.00     0.138 C 
ATOM     35  F   UNL d   1      27.529  -7.159   2.484  0.00  0.00    -0.204 F 
ATOM     36  C   UNL d   1      27.609  -9.217   3.661  0.00  0.00     0.073 C 
ATOM     37 CL   UNL d   1      28.154  -8.479   5.106  0.00  0.00    -0.081 Cl
ATOM     38  C   UNL d   1      27.466 -10.589   3.670  0.00  0.00     0.044 C 
ENDBRANCH   4  31
TORSDOF 7
ENDMDL
MODEL 6
REMARK VINA RESULT:    -9.043      3.903      7.140
REMARK INTER + INTRA:         -13.670
REMARK INTER:                 -11.131
REMARK INTRA:                  -2.539
REMARK CONF_INDEPENDENT:        2.088
REMARK UNBOUND:                -2.539
REMARK  7 active torsions:
REMARK  status: ('A' for Active; 'I' for Inactive)
REMARK    1  A    between atoms: O_2  and  C_3 
REMARK    2  A    between atoms: C_6  and  N_7 
REMARK       I    between atoms: N_7  and  C_8 
REMARK       I    between atoms: C_8  and  N_20 
REMARK       I    between atoms: N_9  and  C_10 
REMARK    3  A    between atoms: C_10  and  C_12 
REMARK    4  A    between atoms: N_20  and  C_21 
REMARK    5  A    between atoms: C_21  and  C_22 
REMARK    6  A    between atoms: C_22  and  C_23 
REMARK    7  A    between atoms: C_33  and  O_34 
ROOT
ATOM      1  N   UNL d   1      29.220 -14.825   1.955  0.00  0.00    -0.190 N 
ATOM      2  C   UNL d   1      29.287 -15.176   0.585  0.00  0.00     0.704 C 
ATOM      3  N   UNL d   1      28.841 -14.568  -0.481  0.00  0.00    -0.023 NA
ATOM      4  C   UNL d   1      27.722 -13.788  -0.348  0.00  0.00     0.294 C 
ATOM      5  O   UNL d   1      26.750 -14.137   0.277  0.00  0.00    -0.265 OA
ATOM      6  N   UNL d   1      29.947 -16.380   0.281  0.00  0.00    -0.224 N 
ATOM      7  H   UNL d   1      29.396 -15.564   2.621  0.00  0.00     0.184 HD
ATOM      8  H   UNL d   1      30.074 -17.084   1.001  0.00  0.00     0.177 HD
ENDROOT
BRANCH   1   9
ATOM      9  C   UNL d   1      28.643 -13.654   2.565  0.00  0.00     0.052 C 
ATOM     10  C   UNL d   1      28.836 -12.344   2.148  0.00  0.00     0.033 C 
ATOM     11  C   UNL d   1      28.443 -11.238   2.983  0.00  0.00     0.042 C 
ATOM     12  C   UNL d   1      27.941 -11.389   4.297  0.00  0.00     0.101 C 
ATOM     13  C   UNL d   1      27.774 -12.689   4.694  0.00  0.00     0.103 C 
ATOM     14  C   UNL d   1      27.860 -13.711   3.704  0.00  0.00     0.069 C 
BRANCH  12  15
ATOM     15  O   UNL d   1      27.345 -10.283   4.846  0.00  0.00    -0.353 OA
ATOM     16  C   UNL d   1      27.030  -9.101   4.116  0.00  0.00     0.210 C 
ENDBRANCH  12  15
BRANCH  13  17
ATOM     17  O   UNL d   1      27.665 -13.225   5.938  0.00  0.00    -0.353 OA
ATOM     18  C   UNL d   1      28.735 -13.287   6.831  0.00  0.00     0.210 C 
ENDBRANCH  13  17
ENDBRANCH   1   9
BRANCH   6  19
ATOM     19  C   UNL d   1      29.924 -16.868  -1.127  0.00  0.00     0.142 C 
BRANCH  19  20
ATOM     20  C   UNL d   1      28.539 -16.959  -1.749  0.00  0.00     0.057 C 
BRANCH  20  21
ATOM     21  C   UNL d   1      27.398 -17.445  -0.881  0.00  0.00    -0.048 A 
ATOM     22  C   UNL d   1      26.152 -17.047  -1.146  0.00  0.00    -0.006 A 
ATOM     23  C   UNL d   1      25.665 -16.181  -2.156  0.00  0.00     0.014 C 
ATOM     24  C   UNL d   1      25.280 -17.622  -0.116  0.00  0.00     0.038 A 
ATOM     25  C   UNL d   1      24.399 -15.766  -2.076  0.00  0.00     0.001 C 
ATOM     26  C   UNL d   1      23.489 -16.318  -1.087  0.00  0.00     0.002 C 
ATOM     27  C   UNL d   1      23.855 -17.216  -0.145  0.00  0.00     0.030 C 
ATOM     28  N   UNL d   1      25.936 -18.391   0.670  0.00  0.00    -0.385 N 
ATOM     29  C   UNL d   1      27.405 -18.323   0.346  0.00  0.00     0.155 A 
ATOM     30  H   UNL d   1      25.484 -18.948   1.395  0.00  0.00     0.160 HD
ENDBRANCH  20  21
ENDBRANCH  19  20
ENDBRANCH   6  19
BRANCH   4  31
ATOM     31  C   UNL d   1      27.564 -12.652  -1.319  0.00  0.00     0.036 C 
ATOM     32  C   UNL d   1      27.681 -11.249  -1.132  0.00  0.00     0.020 C 
ATOM     33  C   UNL d   1      26.967 -10.376  -1.970  0.00  0.00     0.045 C 
ATOM     34  C   UNL d   1      26.297 -10.893  -3.069  0.00  0.00     0.138 C 
ATOM     35  F   UNL d   1      25.672 -10.051  -3.901  0.00  0.00    -0.204 F 
ATOM     36  C   UNL d   1      26.276 -12.265  -3.301  0.00  0.00     0.073 C 
ATOM     37 CL   UNL d   1      25.469 -12.952  -4.645  0.00  0.00    -0.081 Cl
ATOM     38  C   UNL d   1      26.884 -13.136  -2.420  0.00  0.00     0.044 C 
ENDBRANCH   4  31
TORSDOF 7
ENDMDL
MODEL 7
REMARK VINA RESULT:    -8.848      4.125      7.705
REMARK INTER + INTRA:         -13.912
REMARK INTER:                 -10.936
REMARK INTRA:                  -2.975
REMARK CONF_INDEPENDENT:        2.088
REMARK UNBOUND:                -2.975
REMARK  7 active torsions:
REMARK  status: ('A' for Active; 'I' for Inactive)
REMARK    1  A    between atoms: O_2  and  C_3 
REMARK    2  A    between atoms: C_6  and  N_7 
REMARK       I    between atoms: N_7  and  C_8 
REMARK       I    between atoms: C_8  and  N_20 
REMARK       I    between atoms: N_9  and  C_10 
REMARK    3  A    between atoms: C_10  and  C_12 
REMARK    4  A    between atoms: N_20  and  C_21 
REMARK    5  A    between atoms: C_21  and  C_22 
REMARK    6  A    between atoms: C_22  and  C_23 
REMARK    7  A    between atoms: C_33  and  O_34 
ROOT
ATOM      1  N   UNL d   1      30.146 -14.825   3.166  0.00  0.00    -0.190 N 
ATOM      2  C   UNL d   1      29.780 -14.775   1.800  0.00  0.00     0.704 C 
ATOM      3  N   UNL d   1      28.968 -13.980   1.156  0.00  0.00    -0.023 NA
ATOM      4  C   UNL d   1      27.909 -13.454   1.849  0.00  0.00     0.294 C 
ATOM      5  O   UNL d   1      27.222 -14.111   2.594  0.00  0.00    -0.265 OA
ATOM      6  N   UNL d   1      30.378 -15.730   0.959  0.00  0.00    -0.224 N 
ATOM      7  H   UNL d   1      30.579 -15.679   3.489  0.00  0.00     0.184 HD
ATOM      8  H   UNL d   1      30.780 -16.573   1.355  0.00  0.00     0.177 HD
ENDROOT
BRANCH   1   9
ATOM      9  C   UNL d   1      29.729 -13.971   4.250  0.00  0.00     0.052 C 
ATOM     10  C   UNL d   1      28.842 -14.318   5.260  0.00  0.00     0.033 C 
ATOM     11  C   UNL d   1      28.284 -13.313   6.129  0.00  0.00     0.042 C 
ATOM     12  C   UNL d   1      28.505 -11.926   5.965  0.00  0.00     0.101 C 
ATOM     13  C   UNL d   1      29.371 -11.606   4.952  0.00  0.00     0.103 C 
ATOM     14  C   UNL d   1      30.137 -12.654   4.366  0.00  0.00     0.069 C 
BRANCH  12  15
ATOM     15  O   UNL d   1      28.155 -11.129   7.025  0.00  0.00    -0.353 OA
ATOM     16  C   UNL d   1      28.950 -10.965   8.195  0.00  0.00     0.210 C 
ENDBRANCH  12  15
BRANCH  13  17
ATOM     17  O   UNL d   1      29.550 -10.438   4.281  0.00  0.00    -0.353 OA
ATOM     18  C   UNL d   1      30.617 -10.224   3.408  0.00  0.00     0.210 C 
ENDBRANCH  13  17
ENDBRANCH   1   9
BRANCH   6  19
ATOM     19  C   UNL d   1      29.922 -15.815  -0.458  0.00  0.00     0.142 C 
BRANCH  19  20
ATOM     20  C   UNL d   1      28.741 -16.744  -0.695  0.00  0.00     0.057 C 
BRANCH  20  21
ATOM     21  C   UNL d   1      27.435 -16.134  -1.156  0.00  0.00    -0.048 A 
ATOM     22  C   UNL d   1      26.280 -16.648  -0.729  0.00  0.00    -0.006 A 
ATOM     23  C   UNL d   1      26.031 -17.747   0.129  0.00  0.00     0.014 C 
ATOM     24  C   UNL d   1      25.200 -15.899  -1.380  0.00  0.00     0.038 A 
ATOM     25  C   UNL d   1      24.779 -18.200   0.231  0.00  0.00     0.001 C 
ATOM     26  C   UNL d   1      23.671 -17.485  -0.380  0.00  0.00     0.002 C 
ATOM     27  C   UNL d   1      23.817 -16.377  -1.140  0.00  0.00     0.030 C 
ATOM     28  N   UNL d   1      25.664 -14.937  -2.086  0.00  0.00    -0.385 N 
ATOM     29  C   UNL d   1      27.168 -14.999  -2.113  0.00  0.00     0.155 A 
ATOM     30  H   UNL d   1      25.060 -14.254  -2.544  0.00  0.00     0.160 HD
ENDBRANCH  20  21
ENDBRANCH  19  20
ENDBRANCH   6  19
BRANCH   4  31
ATOM     31  C   UNL d   1      27.366 -12.138   1.368  0.00  0.00     0.036 C 
ATOM     32  C   UNL d   1      27.405 -11.534   0.083  0.00  0.00     0.020 C 
ATOM     33  C   UNL d   1      27.362 -10.133  -0.025  0.00  0.00     0.045 C 
ATOM     34  C   UNL d   1      27.111  -9.377   1.109  0.00  0.00     0.138 C 
ATOM     35  F   UNL d   1      27.006  -8.047   0.990  0.00  0.00    -0.204 F 
ATOM     36  C   UNL d   1      26.971  -9.990   2.350  0.00  0.00     0.073 C 
ATOM     37 CL   UNL d   1      26.655  -9.101   3.778  0.00  0.00    -0.081 Cl
ATOM     38  C   UNL d   1      27.121 -11.356   2.479  0.00  0.00     0.044 C 
ENDBRANCH   4  31
TORSDOF 7
ENDMDL
MODEL 8
REMARK VINA RESULT:    -8.281      3.446      8.277
REMARK INTER + INTRA:         -13.769
REMARK INTER:                 -10.369
REMARK INTRA:                  -3.400
REMARK CONF_INDEPENDENT:        2.088
REMARK UNBOUND:                -3.400
REMARK  7 active torsions:
REMARK  status: ('A' for Active; 'I' for Inactive)
REMARK    1  A    between atoms: O_2  and  C_3 
REMARK    2  A    between atoms: C_6  and  N_7 
REMARK       I    between atoms: N_7  and  C_8 
REMARK       I    between atoms: C_8  and  N_20 
REMARK       I    between atoms: N_9  and  C_10 
REMARK    3  A    between atoms: C_10  and  C_12 
REMARK    4  A    between atoms: N_20  and  C_21 
REMARK    5  A    between atoms: C_21  and  C_22 
REMARK    6  A    between atoms: C_22  and  C_23 
REMARK    7  A    between atoms: C_33  and  O_34 
ROOT
ATOM      1  N   UNL d   1      27.864 -16.394   0.595  0.00  0.00    -0.190 N 
ATOM      2  C   UNL d   1      28.845 -15.682  -0.134  0.00  0.00     0.704 C 
ATOM      3  N   UNL d   1      28.838 -15.212  -1.353  0.00  0.00    -0.023 NA
ATOM      4  C   UNL d   1      28.082 -15.872  -2.286  0.00  0.00     0.294 C 
ATOM      5  O   UNL d   1      28.067 -17.075  -2.385  0.00  0.00    -0.265 OA
ATOM      6  N   UNL d   1      30.049 -15.412   0.540  0.00  0.00    -0.224 N 
ATOM      7  H   UNL d   1      28.179 -16.885   1.421  0.00  0.00     0.184 HD
ATOM      8  H   UNL d   1      30.307 -15.958   1.355  0.00  0.00     0.177 HD
ENDROOT
BRANCH   1   9
ATOM      9  C   UNL d   1      26.538 -16.787   0.189  0.00  0.00     0.052 C 
ATOM     10  C   UNL d   1      25.907 -17.978   0.525  0.00  0.00     0.033 C 
ATOM     11  C   UNL d   1      24.703 -18.391  -0.152  0.00  0.00     0.042 C 
ATOM     12  C   UNL d   1      24.143 -17.695  -1.247  0.00  0.00     0.101 C 
ATOM     13  C   UNL d   1      24.791 -16.532  -1.572  0.00  0.00     0.103 C 
ATOM     14  C   UNL d   1      25.754 -16.021  -0.654  0.00  0.00     0.069 C 
BRANCH  12  15
ATOM     15  O   UNL d   1      22.860 -18.039  -1.589  0.00  0.00    -0.353 OA
ATOM     16  C   UNL d   1      21.921 -18.612  -0.686  0.00  0.00     0.210 C 
ENDBRANCH  12  15
BRANCH  13  17
ATOM     17  O   UNL d   1      24.781 -15.807  -2.721  0.00  0.00    -0.353 OA
ATOM     18  C   UNL d   1      24.373 -14.474  -2.770  0.00  0.00     0.210 C 
ENDBRANCH  13  17
ENDBRANCH   1   9
BRANCH   6  19
ATOM     19  C   UNL d   1      31.169 -14.792  -0.225  0.00  0.00     0.142 C 
BRANCH  19  20
ATOM     20  C   UNL d   1      31.727 -15.650  -1.349  0.00  0.00     0.057 C 
BRANCH  20  21
ATOM     21  C   UNL d   1      31.419 -15.247  -2.774  0.00  0.00    -0.048 A 
ATOM     22  C   UNL d   1      31.006 -16.170  -3.646  0.00  0.00    -0.006 A 
ATOM     23  C   UNL d   1      30.799 -17.561  -3.475  0.00  0.00     0.014 C 
ATOM     24  C   UNL d   1      30.845 -15.506  -4.944  0.00  0.00     0.038 A 
ATOM     25  C   UNL d   1      30.592 -18.308  -4.561  0.00  0.00     0.001 C 
ATOM     26  C   UNL d   1      30.407 -17.698  -5.867  0.00  0.00     0.002 C 
ATOM     27  C   UNL d   1      30.500 -16.370  -6.098  0.00  0.00     0.030 C 
ATOM     28  N   UNL d   1      31.059 -14.247  -4.850  0.00  0.00    -0.385 N 
ATOM     29  C   UNL d   1      31.540 -13.910  -3.463  0.00  0.00     0.155 A 
ATOM     30  H   UNL d   1      30.910 -13.606  -5.630  0.00  0.00     0.160 HD
ENDBRANCH  20  21
ENDBRANCH  19  20
ENDBRANCH   6  19
BRANCH   4  31
ATOM     31  C   UNL d   1      27.572 -15.063  -3.445  0.00  0.00     0.036 C 
ATOM     32  C   UNL d   1      27.519 -15.364  -4.832  0.00  0.00     0.020 C 
ATOM     33  C   UNL d   1      27.547 -14.318  -5.770  0.00  0.00     0.045 C 
ATOM     34  C   UNL d   1      27.456 -13.009  -5.322  0.00  0.00     0.138 C 
ATOM     35  F   UNL d   1      27.417 -12.018  -6.222  0.00  0.00    -0.204 F 
ATOM     36  C   UNL d   1      27.404 -12.731  -3.960  0.00  0.00     0.073 C 
ATOM     37 CL   UNL d   1      27.285 -11.133  -3.357  0.00  0.00    -0.081 Cl
ATOM     38  C   UNL d   1      27.485 -13.749  -3.032  0.00  0.00     0.044 C 
ENDBRANCH   4  31
TORSDOF 7
ENDMDL
