MODEL 1
REMARK VINA RESULT:   -10.122      0.000      0.000
REMARK INTER + INTRA:         -15.136
REMARK INTER:                 -13.702
REMARK INTRA:                  -1.434
REMARK CONF_INDEPENDENT:        3.580
REMARK UNBOUND:                -1.434
REMARK  12 active torsions:
REMARK  status: ('A' for Active; 'I' for Inactive)
REMARK    1  A    between atoms: C_2  and  O_3 
REMARK    2  A    between atoms: O_3  and  C_4 
REMARK    3  A    between atoms: C_4  and  C_5 
REMARK    4  A    between atoms: C_5  and  O_6 
REMARK    5  A    between atoms: O_6  and  C_7 
REMARK    6  A    between atoms: C_10  and  C_11 
REMARK       I    between atoms: C_11  and  N_13 
REMARK    7  A    between atoms: N_13  and  C_14 
REMARK    8  A    between atoms: C_14  and  N_16 
REMARK    9  A    between atoms: N_16  and  N_17 
REMARK       I    between atoms: N_17  and  C_18 
REMARK   10  A    between atoms: C_18  and  C_20 
REMARK   11  A    between atoms: C_23  and  N_24 
REMARK       I    between atoms: N_24  and  C_25 
REMARK   12  A    between atoms: C_25  and  C_27 
ROOT
ATOM      1  N   UNL d   1      28.852 -14.962   0.156  0.00  0.00    -0.273 N 
ATOM      2  H   UNL d   1      29.106 -14.133  -0.378  0.00  0.00     0.189 HD
ENDROOT
BRANCH   1   3
ATOM      3  C   UNL d   1      28.374 -16.182  -0.362  0.00  0.00     0.193 C 
ATOM      4  S   UNL d   1      29.484 -17.375  -0.809  0.00  0.00    -0.039 SA
BRANCH   3   5
ATOM      5  N   UNL d   1      26.962 -16.301  -0.455  0.00  0.00    -0.298 N 
ATOM      6  C   UNL d   1      26.194 -17.458  -0.150  0.00  0.00     0.257 C 
ATOM      7  O   UNL d   1      26.688 -18.508   0.258  0.00  0.00    -0.267 OA
ATOM      8  H   UNL d   1      26.464 -15.494  -0.795  0.00  0.00     0.171 HD
BRANCH   6   9
ATOM      9  C   UNL d   1      24.696 -17.504  -0.336  0.00  0.00     0.032 A 
ATOM     10  C   UNL d   1      24.077 -18.779  -0.340  0.00  0.00     0.020 A 
ATOM     11  C   UNL d   1      22.712 -18.939  -0.615  0.00  0.00     0.038 A 
ATOM     12  C   UNL d   1      21.904 -17.824  -0.810  0.00  0.00     0.068 A 
ATOM     13  C   UNL d   1      22.492 -16.558  -0.777  0.00  0.00     0.038 A 
ATOM     14  C   UNL d   1      23.877 -16.396  -0.542  0.00  0.00     0.020 A 
BRANCH  12  15
ATOM     15  O   UNL d   1      20.564 -18.081  -0.894  0.00  0.00    -0.349 OA
BRANCH  15  16
ATOM     16  C   UNL d   1      20.164 -19.384  -1.322  0.00  0.00     0.201 C 
BRANCH  16  17
ATOM     17  C   UNL d   1      19.568 -20.128  -0.126  0.00  0.00     0.194 C 
BRANCH  17  18
ATOM     18  O   UNL d   1      20.531 -20.222   0.927  0.00  0.00    -0.389 OA
BRANCH  18  19
ATOM     19  C   UNL d   1      19.905 -20.080   2.203  0.00  0.00     0.163 C 
ATOM     20  C   UNL d   1      18.418 -19.858   2.011  0.00  0.00     0.033 C 
ENDBRANCH  18  19
ENDBRANCH  17  18
ENDBRANCH  16  17
ENDBRANCH  15  16
ENDBRANCH  12  15
ENDBRANCH   6   9
ENDBRANCH   3   5
ENDBRANCH   1   3
BRANCH   1  21
ATOM     21  N   UNL d   1      29.037 -14.835   1.597  0.00  0.00    -0.264 N 
ATOM     22  C   UNL d   1      28.331 -13.904   2.347  0.00  0.00     0.270 C 
ATOM     23  O   UNL d   1      27.530 -13.119   1.845  0.00  0.00    -0.266 OA
ATOM     24  H   UNL d   1      29.644 -15.539   2.018  0.00  0.00     0.190 HD
BRANCH  22  25
ATOM     25  C   UNL d   1      28.596 -13.845   3.831  0.00  0.00     0.033 A 
ATOM     26  C   UNL d   1      29.548 -14.698   4.423  0.00  0.00     0.019 A 
ATOM     27  C   UNL d   1      29.652 -14.826   5.831  0.00  0.00     0.030 A 
ATOM     28  C   UNL d   1      28.856 -14.043   6.674  0.00  0.00     0.034 A 
ATOM     29  C   UNL d   1      27.921 -13.197   6.070  0.00  0.00     0.030 A 
ATOM     30  C   UNL d   1      27.792 -13.084   4.677  0.00  0.00     0.019 A 
BRANCH  28  31
ATOM     31  N   UNL d   1      29.027 -14.099   8.087  0.00  0.00    -0.327 N 
ATOM     32  C   UNL d   1      28.698 -13.082   8.972  0.00  0.00     0.226 C 
ATOM     33  O   UNL d   1      28.164 -12.011   8.691  0.00  0.00    -0.273 OA
ATOM     34  H   UNL d   1      29.497 -14.914   8.462  0.00  0.00     0.169 HD
BRANCH  32  35
ATOM     35  C   UNL d   1      29.014 -13.276  10.413  0.00  0.00     0.078 A 
ATOM     36  C   UNL d   1      28.153 -12.895  11.581  0.00  0.00     0.015 A 
ATOM     37  C   UNL d   1      28.245 -14.338  11.173  0.00  0.00     0.015 A 
ENDBRANCH  32  35
ENDBRANCH  28  31
ENDBRANCH  22  25
ENDBRANCH   1  21
TORSDOF 12
ENDMDL
MODEL 2
REMARK VINA RESULT:    -9.709      1.742     10.425
REMARK INTER + INTRA:         -15.193
REMARK INTER:                 -13.288
REMARK INTRA:                  -1.905
REMARK CONF_INDEPENDENT:        3.580
REMARK UNBOUND:                -1.905
REMARK  12 active torsions:
REMARK  status: ('A' for Active; 'I' for Inactive)
REMARK    1  A    between atoms: C_2  and  O_3 
REMARK    2  A    between atoms: O_3  and  C_4 
REMARK    3  A    between atoms: C_4  and  C_5 
REMARK    4  A    between atoms: C_5  and  O_6 
REMARK    5  A    between atoms: O_6  and  C_7 
REMARK    6  A    between atoms: C_10  and  C_11 
REMARK       I    between atoms: C_11  and  N_13 
REMARK    7  A    between atoms: N_13  and  C_14 
REMARK    8  A    between atoms: C_14  and  N_16 
REMARK    9  A    between atoms: N_16  and  N_17 
REMARK       I    between atoms: N_17  and  C_18 
REMARK   10  A    between atoms: C_18  and  C_20 
REMARK   11  A    between atoms: C_23  and  N_24 
REMARK       I    between atoms: N_24  and  C_25 
REMARK   12  A    between atoms: C_25  and  C_27 
ROOT
ATOM      1  N   UNL d   1      28.035 -15.065  -0.926  0.00  0.00    -0.273 N 
ATOM      2  H   UNL d   1      27.919 -14.431  -1.714  0.00  0.00     0.189 HD
ENDROOT
BRANCH   1   3
ATOM      3  C   UNL d   1      29.233 -15.341  -0.238  0.00  0.00     0.193 C 
ATOM      4  S   UNL d   1      30.584 -15.854  -1.114  0.00  0.00    -0.039 SA
BRANCH   3   5
ATOM      5  N   UNL d   1      29.193 -15.151   1.169  0.00  0.00    -0.298 N 
ATOM      6  C   UNL d   1      28.222 -14.402   1.888  0.00  0.00     0.257 C 
ATOM      7  O   UNL d   1      27.272 -13.835   1.350  0.00  0.00    -0.267 OA
ATOM      8  H   UNL d   1      29.940 -15.567   1.701  0.00  0.00     0.171 HD
BRANCH   6   9
ATOM      9  C   UNL d   1      28.296 -14.211   3.384  0.00  0.00     0.032 A 
ATOM     10  C   UNL d   1      29.519 -14.536   4.023  0.00  0.00     0.020 A 
ATOM     11  C   UNL d   1      29.658 -14.501   5.418  0.00  0.00     0.038 A 
ATOM     12  C   UNL d   1      28.607 -14.056   6.213  0.00  0.00     0.068 A 
ATOM     13  C   UNL d   1      27.405 -13.701   5.596  0.00  0.00     0.038 A 
ATOM     14  C   UNL d   1      27.248 -13.776   4.193  0.00  0.00     0.020 A 
BRANCH  12  15
ATOM     15  O   UNL d   1      28.903 -13.893   7.538  0.00  0.00    -0.349 OA
BRANCH  15  16
ATOM     16  C   UNL d   1      29.558 -12.683   7.926  0.00  0.00     0.201 C 
BRANCH  16  17
ATOM     17  C   UNL d   1      28.527 -11.757   8.572  0.00  0.00     0.194 C 
BRANCH  17  18
ATOM     18  O   UNL d   1      27.907 -12.406   9.684  0.00  0.00    -0.389 OA
BRANCH  18  19
ATOM     19  C   UNL d   1      28.842 -12.600  10.746  0.00  0.00     0.163 C 
ATOM     20  C   UNL d   1      28.145 -13.270  11.913  0.00  0.00     0.033 C 
ENDBRANCH  18  19
ENDBRANCH  17  18
ENDBRANCH  16  17
ENDBRANCH  15  16
ENDBRANCH  12  15
ENDBRANCH   6   9
ENDBRANCH   3   5
ENDBRANCH   1   3
BRANCH   1  21
ATOM     21  N   UNL d   1      26.806 -15.714  -0.485  0.00  0.00    -0.264 N 
ATOM     22  C   UNL d   1      25.933 -16.316  -1.380  0.00  0.00     0.270 C 
ATOM     23  O   UNL d   1      26.126 -16.319  -2.594  0.00  0.00    -0.266 OA
ATOM     24  H   UNL d   1      26.690 -15.776   0.528  0.00  0.00     0.190 HD
BRANCH  22  25
ATOM     25  C   UNL d   1      24.684 -16.957  -0.827  0.00  0.00     0.033 A 
ATOM     26  C   UNL d   1      24.684 -18.312  -0.442  0.00  0.00     0.019 A 
ATOM     27  C   UNL d   1      23.480 -18.996  -0.139  0.00  0.00     0.030 A 
ATOM     28  C   UNL d   1      22.258 -18.313  -0.142  0.00  0.00     0.034 A 
ATOM     29  C   UNL d   1      22.277 -16.966  -0.520  0.00  0.00     0.030 A 
ATOM     30  C   UNL d   1      23.462 -16.289  -0.848  0.00  0.00     0.019 A 
BRANCH  28  31
ATOM     31  N   UNL d   1      21.060 -18.973   0.256  0.00  0.00    -0.327 N 
ATOM     32  C   UNL d   1      20.161 -19.583  -0.607  0.00  0.00     0.226 C 
ATOM     33  O   UNL d   1      20.277 -19.699  -1.825  0.00  0.00    -0.273 OA
ATOM     34  H   UNL d   1      20.811 -18.923   1.236  0.00  0.00     0.169 HD
BRANCH  32  35
ATOM     35  C   UNL d   1      18.917 -20.161  -0.030  0.00  0.00     0.078 A 
ATOM     36  C   UNL d   1      18.818 -21.338   0.895  0.00  0.00     0.015 A 
ATOM     37  C   UNL d   1      18.655 -19.950   1.449  0.00  0.00     0.015 A 
ENDBRANCH  32  35
ENDBRANCH  28  31
ENDBRANCH  22  25
ENDBRANCH   1  21
TORSDOF 12
ENDMDL
MODEL 3
REMARK VINA RESULT:    -9.377      6.850     11.107
REMARK INTER + INTRA:         -14.172
REMARK INTER:                 -12.957
REMARK INTRA:                  -1.215
REMARK CONF_INDEPENDENT:        3.580
REMARK UNBOUND:                -1.215
REMARK  12 active torsions:
REMARK  status: ('A' for Active; 'I' for Inactive)
REMARK    1  A    between atoms: C_2  and  O_3 
REMARK    2  A    between atoms: O_3  and  C_4 
REMARK    3  A    between atoms: C_4  and  C_5 
REMARK    4  A    between atoms: C_5  and  O_6 
REMARK    5  A    between atoms: O_6  and  C_7 
REMARK    6  A    between atoms: C_10  and  C_11 
REMARK       I    between atoms: C_11  and  N_13 
REMARK    7  A    between atoms: N_13  and  C_14 
REMARK    8  A    between atoms: C_14  and  N_16 
REMARK    9  A    between atoms: N_16  and  N_17 
REMARK       I    between atoms: N_17  and  C_18 
REMARK   10  A    between atoms: C_18  and  C_20 
REMARK   11  A    between atoms: C_23  and  N_24 
REMARK       I    between atoms: N_24  and  C_25 
REMARK   12  A    between atoms: C_25  and  C_27 
ROOT
ATOM      1  N   UNL d   1      26.857 -13.714  -2.077  0.00  0.00    -0.273 N 
ATOM      2  H   UNL d   1      27.579 -13.327  -1.471  0.00  0.00     0.189 HD
ENDROOT
BRANCH   1   3
ATOM      3  C   UNL d   1      26.691 -13.463  -3.454  0.00  0.00     0.193 C 
ATOM      4  S   UNL d   1      25.209 -12.869  -4.007  0.00  0.00    -0.039 SA
BRANCH   3   5
ATOM      5  N   UNL d   1      27.820 -13.736  -4.270  0.00  0.00    -0.298 N 
ATOM      6  C   UNL d   1      27.925 -14.769  -5.241  0.00  0.00     0.257 C 
ATOM      7  O   UNL d   1      27.010 -15.551  -5.497  0.00  0.00    -0.267 OA
ATOM      8  H   UNL d   1      28.630 -13.156  -4.126  0.00  0.00     0.171 HD
BRANCH   6   9
ATOM      9  C   UNL d   1      29.193 -15.016  -6.023  0.00  0.00     0.032 A 
ATOM     10  C   UNL d   1      29.790 -16.296  -5.912  0.00  0.00     0.020 A 
ATOM     11  C   UNL d   1      31.025 -16.592  -6.506  0.00  0.00     0.038 A 
ATOM     12  C   UNL d   1      31.661 -15.646  -7.302  0.00  0.00     0.068 A 
ATOM     13  C   UNL d   1      31.070 -14.389  -7.448  0.00  0.00     0.038 A 
ATOM     14  C   UNL d   1      29.846 -14.073  -6.815  0.00  0.00     0.020 A 
BRANCH  12  15
ATOM     15  O   UNL d   1      32.765 -16.093  -7.974  0.00  0.00    -0.349 OA
BRANCH  15  16
ATOM     16  C   UNL d   1      33.341 -17.331  -7.553  0.00  0.00     0.201 C 
BRANCH  16  17
ATOM     17  C   UNL d   1      32.921 -18.423  -8.538  0.00  0.00     0.194 C 
BRANCH  17  18
ATOM     18  O   UNL d   1      31.533 -18.297  -8.854  0.00  0.00    -0.389 OA
BRANCH  18  19
ATOM     19  C   UNL d   1      30.891 -19.573  -8.846  0.00  0.00     0.163 C 
ATOM     20  C   UNL d   1      30.754 -20.075 -10.269  0.00  0.00     0.033 C 
ENDBRANCH  18  19
ENDBRANCH  17  18
ENDBRANCH  16  17
ENDBRANCH  15  16
ENDBRANCH  12  15
ENDBRANCH   6   9
ENDBRANCH   3   5
ENDBRANCH   1   3
BRANCH   1  21
ATOM     21  N   UNL d   1      25.939 -14.632  -1.415  0.00  0.00    -0.264 N 
ATOM     22  C   UNL d   1      25.343 -15.688  -2.092  0.00  0.00     0.270 C 
ATOM     23  O   UNL d   1      25.532 -15.900  -3.287  0.00  0.00    -0.266 OA
ATOM     24  H   UNL d   1      25.846 -14.499  -0.407  0.00  0.00     0.190 HD
BRANCH  22  25
ATOM     25  C   UNL d   1      24.402 -16.581  -1.320  0.00  0.00     0.033 A 
ATOM     26  C   UNL d   1      24.810 -17.863  -0.904  0.00  0.00     0.019 A 
ATOM     27  C   UNL d   1      23.884 -18.803  -0.386  0.00  0.00     0.030 A 
ATOM     28  C   UNL d   1      22.543 -18.448  -0.204  0.00  0.00     0.034 A 
ATOM     29  C   UNL d   1      22.156 -17.169  -0.616  0.00  0.00     0.030 A 
ATOM     30  C   UNL d   1      23.061 -16.242  -1.155  0.00  0.00     0.019 A 
BRANCH  28  31
ATOM     31  N   UNL d   1      21.631 -19.357   0.406  0.00  0.00    -0.327 N 
ATOM     32  C   UNL d   1      20.504 -19.887  -0.205  0.00  0.00     0.226 C 
ATOM     33  O   UNL d   1      20.146 -19.706  -1.367  0.00  0.00    -0.273 OA
ATOM     34  H   UNL d   1      21.778 -19.568   1.385  0.00  0.00     0.169 HD
BRANCH  32  35
ATOM     35  C   UNL d   1      19.615 -20.764   0.603  0.00  0.00     0.078 A 
ATOM     36  C   UNL d   1      18.569 -20.324   1.585  0.00  0.00     0.015 A 
ATOM     37  C   UNL d   1      18.146 -20.824   0.232  0.00  0.00     0.015 A 
ENDBRANCH  32  35
ENDBRANCH  28  31
ENDBRANCH  22  25
ENDBRANCH   1  21
TORSDOF 12
ENDMDL
MODEL 4
REMARK VINA RESULT:    -9.277      1.947     10.451
REMARK INTER + INTRA:         -14.685
REMARK INTER:                 -12.856
REMARK INTRA:                  -1.829
REMARK CONF_INDEPENDENT:        3.580
REMARK UNBOUND:                -1.829
REMARK  12 active torsions:
REMARK  status: ('A' for Active; 'I' for Inactive)
REMARK    1  A    between atoms: C_2  and  O_3 
REMARK    2  A    between atoms: O_3  and  C_4 
REMARK    3  A    between atoms: C_4  and  C_5 
REMARK    4  A    between atoms: C_5  and  O_6 
REMARK    5  A    between atoms: O_6  and  C_7 
REMARK    6  A    between atoms: C_10  and  C_11 
REMARK       I    between atoms: C_11  and  N_13 
REMARK    7  A    between atoms: N_13  and  C_14 
REMARK    8  A    between atoms: C_14  and  N_16 
REMARK    9  A    between atoms: N_16  and  N_17 
REMARK       I    between atoms: N_17  and  C_18 
REMARK   10  A    between atoms: C_18  and  C_20 
REMARK   11  A    between atoms: C_23  and  N_24 
REMARK       I    between atoms: N_24  and  C_25 
REMARK   12  A    between atoms: C_25  and  C_27 
ROOT
ATOM      1  N   UNL d   1      28.324 -15.206  -0.904  0.00  0.00    -0.273 N 
ATOM      2  H   UNL d   1      28.282 -14.541  -1.674  0.00  0.00     0.189 HD
ENDROOT
BRANCH   1   3
ATOM      3  C   UNL d   1      29.448 -15.497  -0.105  0.00  0.00     0.193 C 
ATOM      4  S   UNL d   1      30.830 -16.139  -0.834  0.00  0.00    -0.039 SA
BRANCH   3   5
ATOM      5  N   UNL d   1      29.310 -15.210   1.279  0.00  0.00    -0.298 N 
ATOM      6  C   UNL d   1      28.203 -14.566   1.897  0.00  0.00     0.257 C 
ATOM      7  O   UNL d   1      27.207 -14.193   1.279  0.00  0.00    -0.267 OA
ATOM      8  H   UNL d   1      30.083 -15.466   1.871  0.00  0.00     0.171 HD
BRANCH   6   9
ATOM      9  C   UNL d   1      28.174 -14.254   3.374  0.00  0.00     0.032 A 
ATOM     10  C   UNL d   1      28.207 -12.888   3.753  0.00  0.00     0.020 A 
ATOM     11  C   UNL d   1      28.296 -12.494   5.096  0.00  0.00     0.038 A 
ATOM     12  C   UNL d   1      28.267 -13.449   6.107  0.00  0.00     0.068 A 
ATOM     13  C   UNL d   1      28.202 -14.798   5.751  0.00  0.00     0.038 A 
ATOM     14  C   UNL d   1      28.155 -15.200   4.396  0.00  0.00     0.020 A 
BRANCH  12  15
ATOM     15  O   UNL d   1      28.181 -12.952   7.378  0.00  0.00    -0.349 OA
BRANCH  15  16
ATOM     16  C   UNL d   1      28.871 -13.656   8.413  0.00  0.00     0.201 C 
BRANCH  16  17
ATOM     17  C   UNL d   1      30.342 -13.787   8.016  0.00  0.00     0.194 C 
BRANCH  17  18
ATOM     18  O   UNL d   1      31.183 -13.346   9.084  0.00  0.00    -0.389 OA
BRANCH  18  19
ATOM     19  C   UNL d   1      32.125 -14.359   9.440  0.00  0.00     0.163 C 
ATOM     20  C   UNL d   1      31.453 -15.376  10.340  0.00  0.00     0.033 C 
ENDBRANCH  18  19
ENDBRANCH  17  18
ENDBRANCH  16  17
ENDBRANCH  15  16
ENDBRANCH  12  15
ENDBRANCH   6   9
ENDBRANCH   3   5
ENDBRANCH   1   3
BRANCH   1  21
ATOM     21  N   UNL d   1      27.066 -15.886  -0.621  0.00  0.00    -0.264 N 
ATOM     22  C   UNL d   1      26.174 -16.226  -1.630  0.00  0.00     0.270 C 
ATOM     23  O   UNL d   1      26.375 -15.955  -2.811  0.00  0.00    -0.266 OA
ATOM     24  H   UNL d   1      26.941 -16.177   0.349  0.00  0.00     0.190 HD
BRANCH  22  25
ATOM     25  C   UNL d   1      24.895 -16.924  -1.236  0.00  0.00     0.033 A 
ATOM     26  C   UNL d   1      23.664 -16.241  -1.278  0.00  0.00     0.019 A 
ATOM     27  C   UNL d   1      22.492 -16.791  -0.701  0.00  0.00     0.030 A 
ATOM     28  C   UNL d   1      22.514 -18.072  -0.139  0.00  0.00     0.034 A 
ATOM     29  C   UNL d   1      23.743 -18.740  -0.111  0.00  0.00     0.030 A 
ATOM     30  C   UNL d   1      24.915 -18.190  -0.656  0.00  0.00     0.019 A 
BRANCH  28  31
ATOM     31  N   UNL d   1      21.317 -18.667   0.353  0.00  0.00    -0.327 N 
ATOM     32  C   UNL d   1      20.391 -19.355  -0.419  0.00  0.00     0.226 C 
ATOM     33  O   UNL d   1      20.480 -19.606  -1.619  0.00  0.00    -0.273 OA
ATOM     34  H   UNL d   1      21.090 -18.505   1.326  0.00  0.00     0.169 HD
BRANCH  32  35
ATOM     35  C   UNL d   1      19.154 -19.847   0.244  0.00  0.00     0.078 A 
ATOM     36  C   UNL d   1      18.930 -21.210   0.831  0.00  0.00     0.015 A 
ATOM     37  C   UNL d   1      19.182 -20.045   1.746  0.00  0.00     0.015 A 
ENDBRANCH  32  35
ENDBRANCH  28  31
ENDBRANCH  22  25
ENDBRANCH   1  21
TORSDOF 12
ENDMDL
MODEL 5
REMARK VINA RESULT:    -9.166      2.099     10.001
REMARK INTER + INTRA:         -14.402
REMARK INTER:                 -12.746
REMARK INTRA:                  -1.657
REMARK CONF_INDEPENDENT:        3.580
REMARK UNBOUND:                -1.657
REMARK  12 active torsions:
REMARK  status: ('A' for Active; 'I' for Inactive)
REMARK    1  A    between atoms: C_2  and  O_3 
REMARK    2  A    between atoms: O_3  and  C_4 
REMARK    3  A    between atoms: C_4  and  C_5 
REMARK    4  A    between atoms: C_5  and  O_6 
REMARK    5  A    between atoms: O_6  and  C_7 
REMARK    6  A    between atoms: C_10  and  C_11 
REMARK       I    between atoms: C_11  and  N_13 
REMARK    7  A    between atoms: N_13  and  C_14 
REMARK    8  A    between atoms: C_14  and  N_16 
REMARK    9  A    between atoms: N_16  and  N_17 
REMARK       I    between atoms: N_17  and  C_18 
REMARK   10  A    between atoms: C_18  and  C_20 
REMARK   11  A    between atoms: C_23  and  N_24 
REMARK       I    between atoms: N_24  and  C_25 
REMARK   12  A    between atoms: C_25  and  C_27 
ROOT
ATOM      1  N   UNL d   1      29.360 -16.293  -1.572  0.00  0.00    -0.273 N 
ATOM      2  H   UNL d   1      29.408 -16.253  -2.588  0.00  0.00     0.189 HD
ENDROOT
BRANCH   1   3
ATOM      3  C   UNL d   1      30.405 -16.017  -0.667  0.00  0.00     0.193 C 
ATOM      4  S   UNL d   1      32.001 -16.062  -1.218  0.00  0.00    -0.039 SA
BRANCH   3   5
ATOM      5  N   UNL d   1      30.005 -15.711   0.660  0.00  0.00    -0.298 N 
ATOM      6  C   UNL d   1      29.422 -14.491   1.102  0.00  0.00     0.257 C 
ATOM      7  O   UNL d   1      29.178 -13.548   0.351  0.00  0.00    -0.267 OA
ATOM      8  H   UNL d   1      30.176 -16.418   1.357  0.00  0.00     0.171 HD
BRANCH   6   9
ATOM      9  C   UNL d   1      29.081 -14.239   2.552  0.00  0.00     0.032 A 
ATOM     10  C   UNL d   1      27.784 -13.747   2.841  0.00  0.00     0.020 A 
ATOM     11  C   UNL d   1      27.404 -13.375   4.139  0.00  0.00     0.038 A 
ATOM     12  C   UNL d   1      28.280 -13.564   5.203  0.00  0.00     0.068 A 
ATOM     13  C   UNL d   1      29.552 -14.077   4.939  0.00  0.00     0.038 A 
ATOM     14  C   UNL d   1      29.952 -14.413   3.625  0.00  0.00     0.020 A 
BRANCH  12  15
ATOM     15  O   UNL d   1      27.752 -13.336   6.443  0.00  0.00    -0.349 OA
BRANCH  15  16
ATOM     16  C   UNL d   1      28.324 -12.285   7.224  0.00  0.00     0.201 C 
BRANCH  16  17
ATOM     17  C   UNL d   1      29.200 -12.907   8.312  0.00  0.00     0.194 C 
BRANCH  17  18
ATOM     18  O   UNL d   1      28.384 -13.477   9.338  0.00  0.00    -0.389 OA
BRANCH  18  19
ATOM     19  C   UNL d   1      28.815 -14.802   9.654  0.00  0.00     0.163 C 
ATOM     20  C   UNL d   1      30.326 -14.826   9.764  0.00  0.00     0.033 C 
ENDBRANCH  18  19
ENDBRANCH  17  18
ENDBRANCH  16  17
ENDBRANCH  15  16
ENDBRANCH  12  15
ENDBRANCH   6   9
ENDBRANCH   3   5
ENDBRANCH   1   3
BRANCH   1  21
ATOM     21  N   UNL d   1      28.051 -16.657  -1.042  0.00  0.00    -0.264 N 
ATOM     22  C   UNL d   1      26.881 -16.423  -1.753  0.00  0.00     0.270 C 
ATOM     23  O   UNL d   1      26.874 -15.878  -2.854  0.00  0.00    -0.266 OA
ATOM     24  H   UNL d   1      28.070 -17.177  -0.164  0.00  0.00     0.190 HD
BRANCH  22  25
ATOM     25  C   UNL d   1      25.575 -16.830  -1.117  0.00  0.00     0.033 A 
ATOM     26  C   UNL d   1      25.455 -18.067  -0.454  0.00  0.00     0.019 A 
ATOM     27  C   UNL d   1      24.193 -18.573  -0.053  0.00  0.00     0.030 A 
ATOM     28  C   UNL d   1      23.034 -17.812  -0.240  0.00  0.00     0.034 A 
ATOM     29  C   UNL d   1      23.171 -16.584  -0.895  0.00  0.00     0.030 A 
ATOM     30  C   UNL d   1      24.414 -16.088  -1.319  0.00  0.00     0.019 A 
BRANCH  28  31
ATOM     31  N   UNL d   1      21.779 -18.275   0.249  0.00  0.00    -0.327 N 
ATOM     32  C   UNL d   1      20.846 -18.986  -0.493  0.00  0.00     0.226 C 
ATOM     33  O   UNL d   1      20.972 -19.373  -1.653  0.00  0.00    -0.273 OA
ATOM     34  H   UNL d   1      21.518 -17.994   1.186  0.00  0.00     0.169 HD
BRANCH  32  35
ATOM     35  C   UNL d   1      19.549 -19.326   0.152  0.00  0.00     0.078 A 
ATOM     36  C   UNL d   1      18.916 -20.684   0.236  0.00  0.00     0.015 A 
ATOM     37  C   UNL d   1      19.584 -20.106   1.451  0.00  0.00     0.015 A 
ENDBRANCH  32  35
ENDBRANCH  28  31
ENDBRANCH  22  25
ENDBRANCH   1  21
TORSDOF 12
ENDMDL
MODEL 6
REMARK VINA RESULT:    -8.915      5.420      6.014
REMARK INTER + INTRA:         -14.460
REMARK INTER:                 -12.495
REMARK INTRA:                  -1.966
REMARK CONF_INDEPENDENT:        3.580
REMARK UNBOUND:                -1.966
REMARK  12 active torsions:
REMARK  status: ('A' for Active; 'I' for Inactive)
REMARK    1  A    between atoms: C_2  and  O_3 
REMARK    2  A    between atoms: O_3  and  C_4 
REMARK    3  A    between atoms: C_4  and  C_5 
REMARK    4  A    between atoms: C_5  and  O_6 
REMARK    5  A    between atoms: O_6  and  C_7 
REMARK    6  A    between atoms: C_10  and  C_11 
REMARK       I    between atoms: C_11  and  N_13 
REMARK    7  A    between atoms: N_13  and  C_14 
REMARK    8  A    between atoms: C_14  and  N_16 
REMARK    9  A    between atoms: N_16  and  N_17 
REMARK       I    between atoms: N_17  and  C_18 
REMARK   10  A    between atoms: C_18  and  C_20 
REMARK   11  A    between atoms: C_23  and  N_24 
REMARK       I    between atoms: N_24  and  C_25 
REMARK   12  A    between atoms: C_25  and  C_27 
ROOT
ATOM      1  N   UNL d   1      30.023 -17.585  -1.669  0.00  0.00    -0.273 N 
ATOM      2  H   UNL d   1      30.166 -18.085  -2.544  0.00  0.00     0.189 HD
ENDROOT
BRANCH   1   3
ATOM      3  C   UNL d   1      29.374 -16.345  -1.505  0.00  0.00     0.193 C 
ATOM      4  S   UNL d   1      30.302 -14.934  -1.443  0.00  0.00    -0.039 SA
BRANCH   3   5
ATOM      5  N   UNL d   1      27.958 -16.398  -1.411  0.00  0.00    -0.298 N 
ATOM      6  C   UNL d   1      27.204 -17.279  -0.588  0.00  0.00     0.257 C 
ATOM      7  O   UNL d   1      27.717 -18.103   0.168  0.00  0.00    -0.267 OA
ATOM      8  H   UNL d   1      27.443 -15.768  -2.004  0.00  0.00     0.171 HD
BRANCH   6   9
ATOM      9  C   UNL d   1      25.693 -17.298  -0.599  0.00  0.00     0.032 A 
ATOM     10  C   UNL d   1      25.052 -18.474  -0.137  0.00  0.00     0.020 A 
ATOM     11  C   UNL d   1      23.661 -18.638  -0.209  0.00  0.00     0.038 A 
ATOM     12  C   UNL d   1      22.860 -17.597  -0.666  0.00  0.00     0.068 A 
ATOM     13  C   UNL d   1      23.474 -16.419  -1.096  0.00  0.00     0.038 A 
ATOM     14  C   UNL d   1      24.879 -16.267  -1.064  0.00  0.00     0.020 A 
BRANCH  12  15
ATOM     15  O   UNL d   1      21.514 -17.793  -0.531  0.00  0.00    -0.349 OA
BRANCH  15  16
ATOM     16  C   UNL d   1      20.954 -18.975  -1.109  0.00  0.00     0.201 C 
BRANCH  16  17
ATOM     17  C   UNL d   1      19.525 -19.139  -0.593  0.00  0.00     0.194 C 
BRANCH  17  18
ATOM     18  O   UNL d   1      19.258 -20.514  -0.303  0.00  0.00    -0.389 OA
BRANCH  18  19
ATOM     19  C   UNL d   1      18.860 -20.679   1.058  0.00  0.00     0.163 C 
ATOM     20  C   UNL d   1      19.790 -19.885   1.953  0.00  0.00     0.033 C 
ENDBRANCH  18  19
ENDBRANCH  17  18
ENDBRANCH  16  17
ENDBRANCH  15  16
ENDBRANCH  12  15
ENDBRANCH   6   9
ENDBRANCH   3   5
ENDBRANCH   1   3
BRANCH   1  21
ATOM     21  N   UNL d   1      30.538 -18.269  -0.489  0.00  0.00    -0.264 N 
ATOM     22  C   UNL d   1      31.792 -18.866  -0.477  0.00  0.00     0.270 C 
ATOM     23  O   UNL d   1      32.529 -18.877  -1.459  0.00  0.00    -0.266 OA
ATOM     24  H   UNL d   1      29.955 -18.190   0.346  0.00  0.00     0.190 HD
BRANCH  22  25
ATOM     25  C   UNL d   1      32.234 -19.555   0.791  0.00  0.00     0.033 A 
ATOM     26  C   UNL d   1      31.787 -20.856   1.093  0.00  0.00     0.019 A 
ATOM     27  C   UNL d   1      31.998 -21.432   2.371  0.00  0.00     0.030 A 
ATOM     28  C   UNL d   1      32.728 -20.745   3.346  0.00  0.00     0.034 A 
ATOM     29  C   UNL d   1      33.170 -19.456   3.028  0.00  0.00     0.030 A 
ATOM     30  C   UNL d   1      32.943 -18.867   1.774  0.00  0.00     0.019 A 
BRANCH  28  31
ATOM     31  N   UNL d   1      33.024 -21.361   4.596  0.00  0.00    -0.327 N 
ATOM     32  C   UNL d   1      32.131 -21.497   5.650  0.00  0.00     0.226 C 
ATOM     33  O   UNL d   1      30.948 -21.165   5.655  0.00  0.00    -0.273 OA
ATOM     34  H   UNL d   1      33.982 -21.649   4.752  0.00  0.00     0.169 HD
BRANCH  32  35
ATOM     35  C   UNL d   1      32.628 -22.098   6.917  0.00  0.00     0.078 A 
ATOM     36  C   UNL d   1      33.780 -23.047   7.070  0.00  0.00     0.015 A 
ATOM     37  C   UNL d   1      33.954 -21.607   7.465  0.00  0.00     0.015 A 
ENDBRANCH  32  35
ENDBRANCH  28  31
ENDBRANCH  22  25
ENDBRANCH   1  21
TORSDOF 12
ENDMDL
MODEL 7
REMARK VINA RESULT:    -8.811      2.129     10.401
REMARK INTER + INTRA:         -14.693
REMARK INTER:                 -12.390
REMARK INTRA:                  -2.303
REMARK CONF_INDEPENDENT:        3.580
REMARK UNBOUND:                -2.303
REMARK  12 active torsions:
REMARK  status: ('A' for Active; 'I' for Inactive)
REMARK    1  A    between atoms: C_2  and  O_3 
REMARK    2  A    between atoms: O_3  and  C_4 
REMARK    3  A    between atoms: C_4  and  C_5 
REMARK    4  A    between atoms: C_5  and  O_6 
REMARK    5  A    between atoms: O_6  and  C_7 
REMARK    6  A    between atoms: C_10  and  C_11 
REMARK       I    between atoms: C_11  and  N_13 
REMARK    7  A    between atoms: N_13  and  C_14 
REMARK    8  A    between atoms: C_14  and  N_16 
REMARK    9  A    between atoms: N_16  and  N_17 
REMARK       I    between atoms: N_17  and  C_18 
REMARK   10  A    between atoms: C_18  and  C_20 
REMARK   11  A    between atoms: C_23  and  N_24 
REMARK       I    between atoms: N_24  and  C_25 
REMARK   12  A    between atoms: C_25  and  C_27 
ROOT
ATOM      1  N   UNL d   1      27.844 -14.202  -0.930  0.00  0.00    -0.273 N 
ATOM      2  H   UNL d   1      28.327 -14.558  -1.752  0.00  0.00     0.189 HD
ENDROOT
BRANCH   1   3
ATOM      3  C   UNL d   1      28.175 -13.047  -0.193  0.00  0.00     0.193 C 
ATOM      4  S   UNL d   1      28.211 -11.553  -0.981  0.00  0.00    -0.039 SA
BRANCH   3   5
ATOM      5  N   UNL d   1      28.449 -13.253   1.185  0.00  0.00    -0.298 N 
ATOM      6  C   UNL d   1      27.486 -13.371   2.224  0.00  0.00     0.257 C 
ATOM      7  O   UNL d   1      26.272 -13.324   2.030  0.00  0.00    -0.267 OA
ATOM      8  H   UNL d   1      29.420 -13.293   1.450  0.00  0.00     0.171 HD
BRANCH   6   9
ATOM      9  C   UNL d   1      27.880 -13.534   3.674  0.00  0.00     0.032 A 
ATOM     10  C   UNL d   1      28.300 -14.820   4.095  0.00  0.00     0.020 A 
ATOM     11  C   UNL d   1      28.579 -15.104   5.440  0.00  0.00     0.038 A 
ATOM     12  C   UNL d   1      28.531 -14.092   6.392  0.00  0.00     0.068 A 
ATOM     13  C   UNL d   1      28.150 -12.811   5.987  0.00  0.00     0.038 A 
ATOM     14  C   UNL d   1      27.826 -12.531   4.639  0.00  0.00     0.020 A 
BRANCH  12  15
ATOM     15  O   UNL d   1      28.991 -14.434   7.633  0.00  0.00    -0.349 OA
BRANCH  15  16
ATOM     16  C   UNL d   1      30.328 -14.059   7.971  0.00  0.00     0.201 C 
BRANCH  16  17
ATOM     17  C   UNL d   1      30.420 -13.901   9.490  0.00  0.00     0.194 C 
BRANCH  17  18
ATOM     18  O   UNL d   1      29.294 -14.516  10.120  0.00  0.00    -0.389 OA
BRANCH  18  19
ATOM     19  C   UNL d   1      28.850 -13.743  11.236  0.00  0.00     0.163 C 
ATOM     20  C   UNL d   1      27.412 -13.321  11.014  0.00  0.00     0.033 C 
ENDBRANCH  18  19
ENDBRANCH  17  18
ENDBRANCH  16  17
ENDBRANCH  15  16
ENDBRANCH  12  15
ENDBRANCH   6   9
ENDBRANCH   3   5
ENDBRANCH   1   3
BRANCH   1  21
ATOM     21  N   UNL d   1      26.686 -14.987  -0.520  0.00  0.00    -0.264 N 
ATOM     22  C   UNL d   1      26.242 -16.077  -1.257  0.00  0.00     0.270 C 
ATOM     23  O   UNL d   1      26.777 -16.431  -2.304  0.00  0.00    -0.266 OA
ATOM     24  H   UNL d   1      26.293 -14.736   0.388  0.00  0.00     0.190 HD
BRANCH  22  25
ATOM     25  C   UNL d   1      25.030 -16.823  -0.755  0.00  0.00     0.033 A 
ATOM     26  C   UNL d   1      25.123 -18.183  -0.397  0.00  0.00     0.019 A 
ATOM     27  C   UNL d   1      23.967 -18.962  -0.145  0.00  0.00     0.030 A 
ATOM     28  C   UNL d   1      22.697 -18.374  -0.170  0.00  0.00     0.034 A 
ATOM     29  C   UNL d   1      22.623 -17.022  -0.520  0.00  0.00     0.030 A 
ATOM     30  C   UNL d   1      23.762 -16.250  -0.798  0.00  0.00     0.019 A 
BRANCH  28  31
ATOM     31  N   UNL d   1      21.542 -19.132   0.178  0.00  0.00    -0.327 N 
ATOM     32  C   UNL d   1      20.546 -19.520  -0.706  0.00  0.00     0.226 C 
ATOM     33  O   UNL d   1      20.526 -19.326  -1.920  0.00  0.00    -0.273 OA
ATOM     34  H   UNL d   1      21.403 -19.333   1.160  0.00  0.00     0.169 HD
BRANCH  32  35
ATOM     35  C   UNL d   1      19.366 -20.244  -0.160  0.00  0.00     0.078 A 
ATOM     36  C   UNL d   1      19.343 -21.151   1.035  0.00  0.00     0.015 A 
ATOM     37  C   UNL d   1      18.782 -19.762   1.153  0.00  0.00     0.015 A 
ENDBRANCH  32  35
ENDBRANCH  28  31
ENDBRANCH  22  25
ENDBRANCH   1  21
TORSDOF 12
ENDMDL
MODEL 8
REMARK VINA RESULT:    -8.223      6.470     10.864
REMARK INTER + INTRA:         -14.006
REMARK INTER:                 -11.803
REMARK INTRA:                  -2.203
REMARK CONF_INDEPENDENT:        3.580
REMARK UNBOUND:                -2.203
REMARK  12 active torsions:
REMARK  status: ('A' for Active; 'I' for Inactive)
REMARK    1  A    between atoms: C_2  and  O_3 
REMARK    2  A    between atoms: O_3  and  C_4 
REMARK    3  A    between atoms: C_4  and  C_5 
REMARK    4  A    between atoms: C_5  and  O_6 
REMARK    5  A    between atoms: O_6  and  C_7 
REMARK    6  A    between atoms: C_10  and  C_11 
REMARK       I    between atoms: C_11  and  N_13 
REMARK    7  A    between atoms: N_13  and  C_14 
REMARK    8  A    between atoms: C_14  and  N_16 
REMARK    9  A    between atoms: N_16  and  N_17 
REMARK       I    between atoms: N_17  and  C_18 
REMARK   10  A    between atoms: C_18  and  C_20 
REMARK   11  A    between atoms: C_23  and  N_24 
REMARK       I    between atoms: N_24  and  C_25 
REMARK   12  A    between atoms: C_25  and  C_27 
ROOT
ATOM      1  N   UNL d   1      27.908 -15.080  -2.980  0.00  0.00    -0.273 N 
ATOM      2  H   UNL d   1      28.612 -15.058  -2.244  0.00  0.00     0.189 HD
ENDROOT
BRANCH   1   3
ATOM      3  C   UNL d   1      28.049 -14.592  -4.294  0.00  0.00     0.193 C 
ATOM      4  S   UNL d   1      28.736 -15.590  -5.472  0.00  0.00    -0.039 SA
BRANCH   3   5
ATOM      5  N   UNL d   1      27.580 -13.270  -4.513  0.00  0.00    -0.298 N 
ATOM      6  C   UNL d   1      26.241 -12.817  -4.360  0.00  0.00     0.257 C 
ATOM      7  O   UNL d   1      25.320 -13.544  -3.990  0.00  0.00    -0.267 OA
ATOM      8  H   UNL d   1      28.259 -12.598  -4.832  0.00  0.00     0.171 HD
BRANCH   6   9
ATOM      9  C   UNL d   1      25.828 -11.398  -4.672  0.00  0.00     0.032 A 
ATOM     10  C   UNL d   1      25.625 -10.522  -3.577  0.00  0.00     0.020 A 
ATOM     11  C   UNL d   1      25.134  -9.219  -3.751  0.00  0.00     0.038 A 
ATOM     12  C   UNL d   1      24.913  -8.723  -5.031  0.00  0.00     0.068 A 
ATOM     13  C   UNL d   1      25.139  -9.563  -6.123  0.00  0.00     0.038 A 
ATOM     14  C   UNL d   1      25.593 -10.891  -5.948  0.00  0.00     0.020 A 
BRANCH  12  15
ATOM     15  O   UNL d   1      24.606  -7.392  -5.097  0.00  0.00    -0.349 OA
BRANCH  15  16
ATOM     16  C   UNL d   1      24.891  -6.706  -6.319  0.00  0.00     0.201 C 
BRANCH  16  17
ATOM     17  C   UNL d   1      23.712  -6.901  -7.273  0.00  0.00     0.194 C 
BRANCH  17  18
ATOM     18  O   UNL d   1      22.783  -5.823  -7.139  0.00  0.00    -0.389 OA
BRANCH  18  19
ATOM     19  C   UNL d   1      21.638  -6.227  -6.388  0.00  0.00     0.163 C 
ATOM     20  C   UNL d   1      21.505  -5.347  -5.162  0.00  0.00     0.033 C 
ENDBRANCH  18  19
ENDBRANCH  17  18
ENDBRANCH  16  17
ENDBRANCH  15  16
ENDBRANCH  12  15
ENDBRANCH   6   9
ENDBRANCH   3   5
ENDBRANCH   1   3
BRANCH   1  21
ATOM     21  N   UNL d   1      26.649 -15.709  -2.596  0.00  0.00    -0.264 N 
ATOM     22  C   UNL d   1      26.528 -16.455  -1.431  0.00  0.00     0.270 C 
ATOM     23  O   UNL d   1      27.472 -16.651  -0.669  0.00  0.00    -0.266 OA
ATOM     24  H   UNL d   1      25.852 -15.479  -3.191  0.00  0.00     0.190 HD
BRANCH  22  25
ATOM     25  C   UNL d   1      25.186 -17.071  -1.123  0.00  0.00     0.033 A 
ATOM     26  C   UNL d   1      24.003 -16.320  -1.265  0.00  0.00     0.019 A 
ATOM     27  C   UNL d   1      22.762 -16.792  -0.769  0.00  0.00     0.030 A 
ATOM     28  C   UNL d   1      22.669 -18.061  -0.188  0.00  0.00     0.034 A 
ATOM     29  C   UNL d   1      23.851 -18.797  -0.061  0.00  0.00     0.030 A 
ATOM     30  C   UNL d   1      25.089 -18.325  -0.525  0.00  0.00     0.019 A 
BRANCH  28  31
ATOM     31  N   UNL d   1      21.406 -18.577   0.223  0.00  0.00    -0.327 N 
ATOM     32  C   UNL d   1      20.536 -19.295  -0.585  0.00  0.00     0.226 C 
ATOM     33  O   UNL d   1      20.734 -19.644  -1.747  0.00  0.00    -0.273 OA
ATOM     34  H   UNL d   1      21.089 -18.331   1.153  0.00  0.00     0.169 HD
BRANCH  32  35
ATOM     35  C   UNL d   1      19.220 -19.694  -0.017  0.00  0.00     0.078 A 
ATOM     36  C   UNL d   1      18.872 -21.016   0.603  0.00  0.00     0.015 A 
ATOM     37  C   UNL d   1      19.106 -19.825   1.489  0.00  0.00     0.015 A 
ENDBRANCH  32  35
ENDBRANCH  28  31
ENDBRANCH  22  25
ENDBRANCH   1  21
TORSDOF 12
ENDMDL
MODEL 9
REMARK VINA RESULT:    -8.106      6.217     10.549
REMARK INTER + INTRA:         -13.996
REMARK INTER:                 -11.686
REMARK INTRA:                  -2.310
REMARK CONF_INDEPENDENT:        3.580
REMARK UNBOUND:                -2.310
REMARK  12 active torsions:
REMARK  status: ('A' for Active; 'I' for Inactive)
REMARK    1  A    between atoms: C_2  and  O_3 
REMARK    2  A    between atoms: O_3  and  C_4 
REMARK    3  A    between atoms: C_4  and  C_5 
REMARK    4  A    between atoms: C_5  and  O_6 
REMARK    5  A    between atoms: O_6  and  C_7 
REMARK    6  A    between atoms: C_10  and  C_11 
REMARK       I    between atoms: C_11  and  N_13 
REMARK    7  A    between atoms: N_13  and  C_14 
REMARK    8  A    between atoms: C_14  and  N_16 
REMARK    9  A    between atoms: N_16  and  N_17 
REMARK       I    between atoms: N_17  and  C_18 
REMARK   10  A    between atoms: C_18  and  C_20 
REMARK   11  A    between atoms: C_23  and  N_24 
REMARK       I    between atoms: N_24  and  C_25 
REMARK   12  A    between atoms: C_25  and  C_27 
ROOT
ATOM      1  N   UNL d   1      28.400 -15.503  -3.169  0.00  0.00    -0.273 N 
ATOM      2  H   UNL d   1      29.206 -15.670  -2.570  0.00  0.00     0.189 HD
ENDROOT
BRANCH   1   3
ATOM      3  C   UNL d   1      28.413 -14.953  -4.466  0.00  0.00     0.193 C 
ATOM      4  S   UNL d   1      29.079 -15.851  -5.732  0.00  0.00    -0.039 SA
BRANCH   3   5
ATOM      5  N   UNL d   1      27.843 -13.659  -4.592  0.00  0.00    -0.298 N 
ATOM      6  C   UNL d   1      26.455 -13.351  -4.613  0.00  0.00     0.257 C 
ATOM      7  O   UNL d   1      25.573 -14.200  -4.503  0.00  0.00    -0.267 OA
ATOM      8  H   UNL d   1      28.486 -12.892  -4.702  0.00  0.00     0.171 HD
BRANCH   6   9
ATOM      9  C   UNL d   1      25.944 -11.943  -4.808  0.00  0.00     0.032 A 
ATOM     10  C   UNL d   1      25.898 -11.443  -6.134  0.00  0.00     0.020 A 
ATOM     11  C   UNL d   1      25.547 -10.114  -6.413  0.00  0.00     0.038 A 
ATOM     12  C   UNL d   1      25.147  -9.268  -5.384  0.00  0.00     0.068 A 
ATOM     13  C   UNL d   1      25.155  -9.754  -4.076  0.00  0.00     0.038 A 
ATOM     14  C   UNL d   1      25.550 -11.081  -3.787  0.00  0.00     0.020 A 
BRANCH  12  15
ATOM     15  O   UNL d   1      24.658  -8.055  -5.783  0.00  0.00    -0.349 OA
BRANCH  15  16
ATOM     16  C   UNL d   1      23.322  -7.720  -5.400  0.00  0.00     0.201 C 
BRANCH  16  17
ATOM     17  C   UNL d   1      23.338  -6.350  -4.722  0.00  0.00     0.194 C 
BRANCH  17  18
ATOM     18  O   UNL d   1      24.424  -6.269  -3.797  0.00  0.00    -0.389 OA
BRANCH  18  19
ATOM     19  C   UNL d   1      24.462  -4.988  -3.167  0.00  0.00     0.163 C 
ATOM     20  C   UNL d   1      25.606  -4.949  -2.175  0.00  0.00     0.033 C 
ENDBRANCH  18  19
ENDBRANCH  17  18
ENDBRANCH  16  17
ENDBRANCH  15  16
ENDBRANCH  12  15
ENDBRANCH   6   9
ENDBRANCH   3   5
ENDBRANCH   1   3
BRANCH   1  21
ATOM     21  N   UNL d   1      27.123 -15.909  -2.592  0.00  0.00    -0.264 N 
ATOM     22  C   UNL d   1      27.041 -16.511  -1.343  0.00  0.00     0.270 C 
ATOM     23  O   UNL d   1      28.033 -16.759  -0.661  0.00  0.00    -0.266 OA
ATOM     24  H   UNL d   1      26.299 -15.631  -3.127  0.00  0.00     0.190 HD
BRANCH  22  25
ATOM     25  C   UNL d   1      25.675 -16.900  -0.835  0.00  0.00     0.033 A 
ATOM     26  C   UNL d   1      25.503 -18.065  -0.062  0.00  0.00     0.019 A 
ATOM     27  C   UNL d   1      24.214 -18.575   0.231  0.00  0.00     0.030 A 
ATOM     28  C   UNL d   1      23.069 -17.883  -0.179  0.00  0.00     0.034 A 
ATOM     29  C   UNL d   1      23.257 -16.725  -0.939  0.00  0.00     0.030 A 
ATOM     30  C   UNL d   1      24.531 -16.228  -1.258  0.00  0.00     0.019 A 
BRANCH  28  31
ATOM     31  N   UNL d   1      21.773 -18.341   0.198  0.00  0.00    -0.327 N 
ATOM     32  C   UNL d   1      20.882 -18.993  -0.642  0.00  0.00     0.226 C 
ATOM     33  O   UNL d   1      21.082 -19.325  -1.809  0.00  0.00    -0.273 OA
ATOM     34  H   UNL d   1      21.453 -18.101   1.127  0.00  0.00     0.169 HD
BRANCH  32  35
ATOM     35  C   UNL d   1      19.536 -19.335  -0.107  0.00  0.00     0.078 A 
ATOM     36  C   UNL d   1      19.042 -20.699   0.276  0.00  0.00     0.015 A 
ATOM     37  C   UNL d   1      19.431 -19.726   1.354  0.00  0.00     0.015 A 
ENDBRANCH  32  35
ENDBRANCH  28  31
ENDBRANCH  22  25
ENDBRANCH   1  21
TORSDOF 12
ENDMDL
