MODEL 1
REMARK VINA RESULT:   -32.557      0.000      0.000
REMARK INTER + INTRA:         -34.429
REMARK INTER:                 -33.750
REMARK INTRA:                  -0.679
REMARK CONF_INDEPENDENT:        1.193
REMARK UNBOUND:                -0.679
REMARK  4 active torsions:
REMARK  status: ('A' for Active; 'I' for Inactive)
REMARK    1  A    between atoms: C_5  and  N_6 
REMARK    2  A    between atoms: N_6  and  C_7 
REMARK    3  A    between atoms: C_10  and  N_11 
REMARK       I    between atoms: N_11  and  C_12 
REMARK    4  A    between atoms: C_12  and  C_14 
ROOT
ATOM      1  C   UNL d   1      23.168 -17.799  -0.810  0.00  0.00     0.033 C 
ATOM      2  C   UNL d   1      24.018 -18.627  -0.077  0.00  0.00     0.032 C 
ATOM      3  C   UNL d   1      25.323 -18.200   0.239  0.00  0.00     0.032 C 
ATOM      4  C   UNL d   1      25.693 -16.857   0.080  0.00  0.00     0.035 C 
ATOM      5  C   UNL d   1      24.765 -16.002  -0.513  0.00  0.00     0.032 C 
ATOM      6  C   UNL d   1      23.546 -16.473  -0.999  0.00  0.00     0.032 C 
ENDROOT
BRANCH   4   7
ATOM      7  N   UNL d   1      26.958 -16.387   0.541  0.00  0.00    -0.323 N 
ATOM      8  C   UNL d   1      27.243 -15.061   0.850  0.00  0.00     0.256 C 
ATOM      9  O   UNL d   1      26.485 -14.088   0.743  0.00  0.00    -0.267 OA
ATOM     10  H   UNL d   1      27.646 -17.096   0.777  0.00  0.00     0.169 HD
BRANCH   8  11
ATOM     11  C   UNL d   1      28.556 -14.754   1.450  0.00  0.00     0.034 C 
ATOM     12  C   UNL d   1      29.709 -15.134   0.745  0.00  0.00     0.017 C 
ATOM     13  C   UNL d   1      30.969 -14.773   1.215  0.00  0.00     0.003 C 
ATOM     14  C   UNL d   1      31.089 -14.248   2.498  0.00  0.00     0.024 C 
ATOM     15  C   UNL d   1      29.943 -14.005   3.258  0.00  0.00     0.035 C 
ATOM     16 CL   UNL d   1      30.105 -13.505   4.897  0.00  0.00    -0.084 Cl
ATOM     17  C   UNL d   1      28.669 -14.181   2.714  0.00  0.00     0.041 C 
ENDBRANCH   8  11
ENDBRANCH   4   7
BRANCH   1  18
ATOM     18  N   UNL d   1      22.008 -18.326  -1.403  0.00  0.00    -0.340 N 
ATOM     19  H   UNL d   1      22.073 -18.535  -2.389  0.00  0.00     0.167 HD
BRANCH  18  20
ATOM     20  C   UNL d   1      20.998 -18.981  -0.670  0.00  0.00     0.150 C 
ATOM     21  C   UNL d   1      21.194 -19.326   0.656  0.00  0.00     0.054 C 
ATOM     22  C   UNL d   1      20.141 -19.886   1.380  0.00  0.00     0.032 C 
ATOM     23  C   UNL d   1      18.996 -20.277   0.709  0.00  0.00     0.053 C 
ATOM     24  C   UNL d   1      17.941 -21.106   1.370  0.00  0.00     0.072 C 
ATOM     25  N   UNL d   1      18.848 -20.013  -0.598  0.00  0.00    -0.153 NA
ATOM     26  N   UNL d   1      19.835 -19.325  -1.270  0.00  0.00    -0.132 NA
ENDBRANCH  18  20
ENDBRANCH   1  18
TORSDOF 4
ENDMDL
MODEL 2
REMARK VINA RESULT:   -32.379      1.083      1.463
REMARK INTER + INTRA:         -34.250
REMARK INTER:                 -33.572
REMARK INTRA:                  -0.678
REMARK CONF_INDEPENDENT:        1.193
REMARK UNBOUND:                -0.678
REMARK  4 active torsions:
REMARK  status: ('A' for Active; 'I' for Inactive)
REMARK    1  A    between atoms: C_5  and  N_6 
REMARK    2  A    between atoms: N_6  and  C_7 
REMARK    3  A    between atoms: C_10  and  N_11 
REMARK       I    between atoms: N_11  and  C_12 
REMARK    4  A    between atoms: C_12  and  C_14 
ROOT
ATOM      1  C   UNL d   1      23.254 -17.822  -0.862  0.00  0.00     0.033 C 
ATOM      2  C   UNL d   1      24.091 -18.633  -0.096  0.00  0.00     0.032 C 
ATOM      3  C   UNL d   1      25.401 -18.211   0.209  0.00  0.00     0.032 C 
ATOM      4  C   UNL d   1      25.789 -16.880   0.001  0.00  0.00     0.035 C 
ATOM      5  C   UNL d   1      24.874 -16.036  -0.627  0.00  0.00     0.032 C 
ATOM      6  C   UNL d   1      23.650 -16.509  -1.099  0.00  0.00     0.032 C 
ENDROOT
BRANCH   4   7
ATOM      7  N   UNL d   1      27.058 -16.410   0.449  0.00  0.00    -0.323 N 
ATOM      8  C   UNL d   1      27.316 -15.108   0.866  0.00  0.00     0.256 C 
ATOM      9  O   UNL d   1      26.524 -14.156   0.880  0.00  0.00    -0.267 OA
ATOM     10  H   UNL d   1      27.778 -17.113   0.589  0.00  0.00     0.169 HD
BRANCH   8  11
ATOM     11  C   UNL d   1      28.644 -14.810   1.435  0.00  0.00     0.034 C 
ATOM     12  C   UNL d   1      28.704 -14.030   2.601  0.00  0.00     0.017 C 
ATOM     13  C   UNL d   1      29.923 -13.811   3.236  0.00  0.00     0.003 C 
ATOM     14  C   UNL d   1      31.101 -14.165   2.584  0.00  0.00     0.024 C 
ATOM     15  C   UNL d   1      31.042 -14.815   1.349  0.00  0.00     0.035 C 
ATOM     16 CL   UNL d   1      32.496 -15.107   0.477  0.00  0.00    -0.084 Cl
ATOM     17  C   UNL d   1      29.819 -15.212   0.804  0.00  0.00     0.041 C 
ENDBRANCH   8  11
ENDBRANCH   4   7
BRANCH   1  18
ATOM     18  N   UNL d   1      22.089 -18.356  -1.439  0.00  0.00    -0.340 N 
ATOM     19  H   UNL d   1      22.149 -18.582  -2.422  0.00  0.00     0.167 HD
BRANCH  18  20
ATOM     20  C   UNL d   1      21.083 -18.996  -0.690  0.00  0.00     0.150 C 
ATOM     21  C   UNL d   1      21.296 -19.344   0.633  0.00  0.00     0.054 C 
ATOM     22  C   UNL d   1      20.247 -19.889   1.375  0.00  0.00     0.032 C 
ATOM     23  C   UNL d   1      19.084 -20.262   0.723  0.00  0.00     0.053 C 
ATOM     24  C   UNL d   1      18.029 -21.076   1.402  0.00  0.00     0.072 C 
ATOM     25  N   UNL d   1      18.919 -19.996  -0.582  0.00  0.00    -0.153 NA
ATOM     26  N   UNL d   1      19.905 -19.323  -1.270  0.00  0.00    -0.132 NA
ENDBRANCH  18  20
ENDBRANCH   1  18
TORSDOF 4
ENDMDL
MODEL 3
REMARK VINA RESULT:   -32.358      1.679      1.998
REMARK INTER + INTRA:         -34.244
REMARK INTER:                 -33.551
REMARK INTRA:                  -0.692
REMARK CONF_INDEPENDENT:        1.193
REMARK UNBOUND:                -0.692
REMARK  4 active torsions:
REMARK  status: ('A' for Active; 'I' for Inactive)
REMARK    1  A    between atoms: C_5  and  N_6 
REMARK    2  A    between atoms: N_6  and  C_7 
REMARK    3  A    between atoms: C_10  and  N_11 
REMARK       I    between atoms: N_11  and  C_12 
REMARK    4  A    between atoms: C_12  and  C_14 
ROOT
ATOM      1  C   UNL d   1      22.734 -17.662  -0.667  0.00  0.00     0.033 C 
ATOM      2  C   UNL d   1      23.482 -18.755  -0.230  0.00  0.00     0.032 C 
ATOM      3  C   UNL d   1      24.886 -18.665  -0.147  0.00  0.00     0.032 C 
ATOM      4  C   UNL d   1      25.527 -17.420  -0.223  0.00  0.00     0.035 C 
ATOM      5  C   UNL d   1      24.736 -16.307  -0.505  0.00  0.00     0.032 C 
ATOM      6  C   UNL d   1      23.373 -16.430  -0.775  0.00  0.00     0.032 C 
ENDROOT
BRANCH   4   7
ATOM      7  N   UNL d   1      26.928 -17.304   0.014  0.00  0.00    -0.323 N 
ATOM      8  C   UNL d   1      27.858 -16.889  -0.934  0.00  0.00     0.256 C 
ATOM      9  O   UNL d   1      27.641 -16.599  -2.118  0.00  0.00    -0.267 OA
ATOM     10  H   UNL d   1      27.235 -17.410   0.977  0.00  0.00     0.169 HD
BRANCH   8  11
ATOM     11  C   UNL d   1      29.252 -16.684  -0.496  0.00  0.00     0.034 C 
ATOM     12  C   UNL d   1      30.199 -17.669  -0.823  0.00  0.00     0.017 C 
ATOM     13  C   UNL d   1      31.545 -17.473  -0.528  0.00  0.00     0.003 C 
ATOM     14  C   UNL d   1      31.911 -16.415   0.300  0.00  0.00     0.024 C 
ATOM     15  C   UNL d   1      30.940 -15.515   0.745  0.00  0.00     0.035 C 
ATOM     16 CL   UNL d   1      31.370 -14.306   1.891  0.00  0.00    -0.084 Cl
ATOM     17  C   UNL d   1      29.623 -15.595   0.290  0.00  0.00     0.041 C 
ENDBRANCH   8  11
ENDBRANCH   4   7
BRANCH   1  18
ATOM     18  N   UNL d   1      21.396 -17.834  -1.060  0.00  0.00    -0.340 N 
ATOM     19  H   UNL d   1      21.159 -17.484  -1.978  0.00  0.00     0.167 HD
BRANCH  18  20
ATOM     20  C   UNL d   1      20.550 -18.814  -0.505  0.00  0.00     0.150 C 
ATOM     21  C   UNL d   1      20.774 -19.305   0.769  0.00  0.00     0.054 C 
ATOM     22  C   UNL d   1      19.863 -20.203   1.327  0.00  0.00     0.032 C 
ATOM     23  C   UNL d   1      18.874 -20.744   0.524  0.00  0.00     0.053 C 
ATOM     24  C   UNL d   1      18.030 -21.891   0.981  0.00  0.00     0.072 C 
ATOM     25  N   UNL d   1      18.716 -20.322  -0.741  0.00  0.00    -0.153 NA
ATOM     26  N   UNL d   1      19.530 -19.325  -1.233  0.00  0.00    -0.132 NA
ENDBRANCH  18  20
ENDBRANCH   1  18
TORSDOF 4
ENDMDL
MODEL 4
REMARK VINA RESULT:   -32.323      2.203      2.589
REMARK INTER + INTRA:         -34.183
REMARK INTER:                 -33.516
REMARK INTRA:                  -0.667
REMARK CONF_INDEPENDENT:        1.193
REMARK UNBOUND:                -0.667
REMARK  4 active torsions:
REMARK  status: ('A' for Active; 'I' for Inactive)
REMARK    1  A    between atoms: C_5  and  N_6 
REMARK    2  A    between atoms: N_6  and  C_7 
REMARK    3  A    between atoms: C_10  and  N_11 
REMARK       I    between atoms: N_11  and  C_12 
REMARK    4  A    between atoms: C_12  and  C_14 
ROOT
ATOM      1  C   UNL d   1      22.751 -17.677  -0.676  0.00  0.00     0.033 C 
ATOM      2  C   UNL d   1      23.492 -18.761  -0.209  0.00  0.00     0.032 C 
ATOM      3  C   UNL d   1      24.896 -18.673  -0.114  0.00  0.00     0.032 C 
ATOM      4  C   UNL d   1      25.540 -17.431  -0.210  0.00  0.00     0.035 C 
ATOM      5  C   UNL d   1      24.755 -16.323  -0.522  0.00  0.00     0.032 C 
ATOM      6  C   UNL d   1      23.395 -16.449  -0.804  0.00  0.00     0.032 C 
ENDROOT
BRANCH   4   7
ATOM      7  N   UNL d   1      26.940 -17.313   0.040  0.00  0.00    -0.323 N 
ATOM      8  C   UNL d   1      27.874 -16.876  -0.894  0.00  0.00     0.256 C 
ATOM      9  O   UNL d   1      27.663 -16.565  -2.074  0.00  0.00    -0.267 OA
ATOM     10  H   UNL d   1      27.240 -17.436   1.002  0.00  0.00     0.169 HD
BRANCH   8  11
ATOM     11  C   UNL d   1      29.264 -16.674  -0.443  0.00  0.00     0.034 C 
ATOM     12  C   UNL d   1      29.584 -15.459   0.185  0.00  0.00     0.017 C 
ATOM     13  C   UNL d   1      30.853 -15.262   0.723  0.00  0.00     0.003 C 
ATOM     14  C   UNL d   1      31.864 -16.170   0.427  0.00  0.00     0.024 C 
ATOM     15  C   UNL d   1      31.574 -17.311  -0.325  0.00  0.00     0.035 C 
ATOM     16 CL   UNL d   1      32.856 -18.346  -0.821  0.00  0.00    -0.084 Cl
ATOM     17  C   UNL d   1      30.262 -17.611  -0.698  0.00  0.00     0.041 C 
ENDBRANCH   8  11
ENDBRANCH   4   7
BRANCH   1  18
ATOM     18  N   UNL d   1      21.417 -17.854  -1.080  0.00  0.00    -0.340 N 
ATOM     19  H   UNL d   1      21.188 -17.516  -2.004  0.00  0.00     0.167 HD
BRANCH  18  20
ATOM     20  C   UNL d   1      20.566 -18.827  -0.520  0.00  0.00     0.150 C 
ATOM     21  C   UNL d   1      20.798 -19.325   0.751  0.00  0.00     0.054 C 
ATOM     22  C   UNL d   1      19.883 -20.215   1.314  0.00  0.00     0.032 C 
ATOM     23  C   UNL d   1      18.880 -20.743   0.519  0.00  0.00     0.053 C 
ATOM     24  C   UNL d   1      18.028 -21.882   0.980  0.00  0.00     0.072 C 
ATOM     25  N   UNL d   1      18.715 -20.315  -0.742  0.00  0.00    -0.153 NA
ATOM     26  N   UNL d   1      19.534 -19.325  -1.239  0.00  0.00    -0.132 NA
ENDBRANCH  18  20
ENDBRANCH   1  18
TORSDOF 4
ENDMDL
MODEL 5
REMARK VINA RESULT:   -31.734      4.439      5.312
REMARK INTER + INTRA:         -33.741
REMARK INTER:                 -32.927
REMARK INTRA:                  -0.814
REMARK CONF_INDEPENDENT:        1.193
REMARK UNBOUND:                -0.814
REMARK  4 active torsions:
REMARK  status: ('A' for Active; 'I' for Inactive)
REMARK    1  A    between atoms: C_5  and  N_6 
REMARK    2  A    between atoms: N_6  and  C_7 
REMARK    3  A    between atoms: C_10  and  N_11 
REMARK       I    between atoms: N_11  and  C_12 
REMARK    4  A    between atoms: C_12  and  C_14 
ROOT
ATOM      1  C   UNL d   1      23.371 -17.637  -0.342  0.00  0.00     0.033 C 
ATOM      2  C   UNL d   1      22.834 -16.487  -0.919  0.00  0.00     0.032 C 
ATOM      3  C   UNL d   1      23.661 -15.605  -1.644  0.00  0.00     0.032 C 
ATOM      4  C   UNL d   1      24.949 -15.996  -2.037  0.00  0.00     0.035 C 
ATOM      5  C   UNL d   1      25.413 -17.229  -1.580  0.00  0.00     0.032 C 
ATOM      6  C   UNL d   1      24.662 -18.012  -0.705  0.00  0.00     0.032 C 
ENDROOT
BRANCH   4   7
ATOM      7  N   UNL d   1      25.731 -15.173  -2.901  0.00  0.00    -0.323 N 
ATOM      8  C   UNL d   1      25.205 -14.288  -3.837  0.00  0.00     0.256 C 
ATOM      9  O   UNL d   1      24.010 -14.099  -4.100  0.00  0.00    -0.267 OA
ATOM     10  H   UNL d   1      26.729 -15.148  -2.720  0.00  0.00     0.169 HD
BRANCH   8  11
ATOM     11  C   UNL d   1      26.141 -13.403  -4.557  0.00  0.00     0.034 C 
ATOM     12  C   UNL d   1      25.899 -12.020  -4.524  0.00  0.00     0.017 C 
ATOM     13  C   UNL d   1      26.809 -11.135  -5.096  0.00  0.00     0.003 C 
ATOM     14  C   UNL d   1      27.827 -11.637  -5.902  0.00  0.00     0.024 C 
ATOM     15  C   UNL d   1      27.978 -13.017  -6.051  0.00  0.00     0.035 C 
ATOM     16 CL   UNL d   1      29.135 -13.626  -7.169  0.00  0.00    -0.084 Cl
ATOM     17  C   UNL d   1      27.189 -13.909  -5.321  0.00  0.00     0.041 C 
ENDBRANCH   8  11
ENDBRANCH   4   7
BRANCH   1  18
ATOM     18  N   UNL d   1      22.649 -18.340   0.637  0.00  0.00    -0.340 N 
ATOM     19  H   UNL d   1      22.885 -18.128   1.596  0.00  0.00     0.167 HD
BRANCH  18  20
ATOM     20  C   UNL d   1      21.385 -18.914   0.397  0.00  0.00     0.150 C 
ATOM     21  C   UNL d   1      20.773 -19.708   1.352  0.00  0.00     0.054 C 
ATOM     22  C   UNL d   1      19.481 -20.182   1.123  0.00  0.00     0.032 C 
ATOM     23  C   UNL d   1      18.919 -20.026  -0.132  0.00  0.00     0.053 C 
ATOM     24  C   UNL d   1      17.655 -20.724  -0.520  0.00  0.00     0.072 C 
ATOM     25  N   UNL d   1      19.558 -19.325  -1.082  0.00  0.00    -0.153 NA
ATOM     26  N   UNL d   1      20.770 -18.735  -0.795  0.00  0.00    -0.132 NA
ENDBRANCH  18  20
ENDBRANCH   1  18
TORSDOF 4
ENDMDL
MODEL 6
REMARK VINA RESULT:   -31.696      4.579      5.333
REMARK INTER + INTRA:         -33.720
REMARK INTER:                 -32.889
REMARK INTRA:                  -0.832
REMARK CONF_INDEPENDENT:        1.193
REMARK UNBOUND:                -0.832
REMARK  4 active torsions:
REMARK  status: ('A' for Active; 'I' for Inactive)
REMARK    1  A    between atoms: C_5  and  N_6 
REMARK    2  A    between atoms: N_6  and  C_7 
REMARK    3  A    between atoms: C_10  and  N_11 
REMARK       I    between atoms: N_11  and  C_12 
REMARK    4  A    between atoms: C_12  and  C_14 
ROOT
ATOM      1  C   UNL d   1      23.390 -17.371  -0.588  0.00  0.00     0.033 C 
ATOM      2  C   UNL d   1      23.061 -16.166  -1.207  0.00  0.00     0.032 C 
ATOM      3  C   UNL d   1      24.002 -15.508  -2.025  0.00  0.00     0.032 C 
ATOM      4  C   UNL d   1      25.158 -16.173  -2.458  0.00  0.00     0.035 C 
ATOM      5  C   UNL d   1      25.392 -17.450  -1.950  0.00  0.00     0.032 C 
ATOM      6  C   UNL d   1      24.554 -18.019  -0.992  0.00  0.00     0.032 C 
ENDROOT
BRANCH   4   7
ATOM      7  N   UNL d   1      26.035 -15.571  -3.408  0.00  0.00    -0.323 N 
ATOM      8  C   UNL d   1      25.656 -14.595  -4.325  0.00  0.00     0.256 C 
ATOM      9  O   UNL d   1      24.522 -14.127  -4.494  0.00  0.00    -0.267 OA
ATOM     10  H   UNL d   1      27.023 -15.785  -3.312  0.00  0.00     0.169 HD
BRANCH   8  11
ATOM     11  C   UNL d   1      26.708 -13.968  -5.147  0.00  0.00     0.034 C 
ATOM     12  C   UNL d   1      27.734 -14.788  -5.644  0.00  0.00     0.017 C 
ATOM     13  C   UNL d   1      28.690 -14.267  -6.512  0.00  0.00     0.003 C 
ATOM     14  C   UNL d   1      28.763 -12.889  -6.691  0.00  0.00     0.024 C 
ATOM     15  C   UNL d   1      27.823 -12.058  -6.076  0.00  0.00     0.035 C 
ATOM     16 CL   UNL d   1      28.012 -10.351  -6.173  0.00  0.00    -0.084 Cl
ATOM     17  C   UNL d   1      26.747 -12.593  -5.366  0.00  0.00     0.041 C 
ENDBRANCH   8  11
ENDBRANCH   4   7
BRANCH   1  18
ATOM     18  N   UNL d   1      22.603 -17.861   0.467  0.00  0.00    -0.340 N 
ATOM     19  H   UNL d   1      22.720 -17.398   1.356  0.00  0.00     0.167 HD
BRANCH  18  20
ATOM     20  C   UNL d   1      21.406 -18.576   0.266  0.00  0.00     0.150 C 
ATOM     21  C   UNL d   1      20.838 -19.311   1.293  0.00  0.00     0.054 C 
ATOM     22  C   UNL d   1      19.602 -19.928   1.091  0.00  0.00     0.032 C 
ATOM     23  C   UNL d   1      19.072 -19.971  -0.187  0.00  0.00     0.053 C 
ATOM     24  C   UNL d   1      17.891 -20.826  -0.520  0.00  0.00     0.072 C 
ATOM     25  N   UNL d   1      19.676 -19.325  -1.197  0.00  0.00    -0.153 NA
ATOM     26  N   UNL d   1      20.818 -18.594  -0.952  0.00  0.00    -0.132 NA
ENDBRANCH  18  20
ENDBRANCH   1  18
TORSDOF 4
ENDMDL
MODEL 7
REMARK VINA RESULT:   -30.507      1.229      1.301
REMARK INTER + INTRA:         -32.488
REMARK INTER:                 -31.700
REMARK INTRA:                  -0.788
REMARK CONF_INDEPENDENT:        1.193
REMARK UNBOUND:                -0.788
REMARK  4 active torsions:
REMARK  status: ('A' for Active; 'I' for Inactive)
REMARK    1  A    between atoms: C_5  and  N_6 
REMARK    2  A    between atoms: N_6  and  C_7 
REMARK    3  A    between atoms: C_10  and  N_11 
REMARK       I    between atoms: N_11  and  C_12 
REMARK    4  A    between atoms: C_12  and  C_14 
ROOT
ATOM      1  C   UNL d   1      24.089 -17.551  -1.271  0.00  0.00     0.033 C 
ATOM      2  C   UNL d   1      25.035 -18.146  -0.437  0.00  0.00     0.032 C 
ATOM      3  C   UNL d   1      26.252 -17.489  -0.164  0.00  0.00     0.032 C 
ATOM      4  C   UNL d   1      26.418 -16.134  -0.482  0.00  0.00     0.035 C 
ATOM      5  C   UNL d   1      25.387 -15.508  -1.181  0.00  0.00     0.032 C 
ATOM      6  C   UNL d   1      24.267 -16.214  -1.616  0.00  0.00     0.032 C 
ENDROOT
BRANCH   4   7
ATOM      7  N   UNL d   1      27.585 -15.424  -0.070  0.00  0.00    -0.323 N 
ATOM      8  C   UNL d   1      27.621 -14.064   0.218  0.00  0.00     0.256 C 
ATOM      9  O   UNL d   1      26.687 -13.255   0.130  0.00  0.00    -0.267 OA
ATOM     10  H   UNL d   1      28.403 -15.985   0.147  0.00  0.00     0.169 HD
BRANCH   8  11
ATOM     11  C   UNL d   1      28.870 -13.503   0.768  0.00  0.00     0.034 C 
ATOM     12  C   UNL d   1      29.952 -13.317  -0.108  0.00  0.00     0.017 C 
ATOM     13  C   UNL d   1      31.114 -12.693   0.336  0.00  0.00     0.003 C 
ATOM     14  C   UNL d   1      31.287 -12.474   1.700  0.00  0.00     0.024 C 
ATOM     15  C   UNL d   1      30.260 -12.795   2.590  0.00  0.00     0.035 C 
ATOM     16 CL   UNL d   1      30.539 -12.669   4.283  0.00  0.00    -0.084 Cl
ATOM     17  C   UNL d   1      29.020 -13.237   2.127  0.00  0.00     0.041 C 
ENDBRANCH   8  11
ENDBRANCH   4   7
BRANCH   1  18
ATOM     18  N   UNL d   1      23.039 -18.316  -1.805  0.00  0.00    -0.340 N 
ATOM     19  H   UNL d   1      23.259 -18.848  -2.635  0.00  0.00     0.167 HD
BRANCH  18  20
ATOM     20  C   UNL d   1      21.929 -18.736  -1.046  0.00  0.00     0.150 C 
ATOM     21  C   UNL d   1      22.068 -19.067   0.290  0.00  0.00     0.054 C 
ATOM     22  C   UNL d   1      20.934 -19.386   1.038  0.00  0.00     0.032 C 
ATOM     23  C   UNL d   1      19.727 -19.569   0.386  0.00  0.00     0.053 C 
ATOM     24  C   UNL d   1      18.538 -20.153   1.080  0.00  0.00     0.072 C 
ATOM     25  N   UNL d   1      19.620 -19.326  -0.930  0.00  0.00    -0.153 NA
ATOM     26  N   UNL d   1      20.715 -18.867  -1.629  0.00  0.00    -0.132 NA
ENDBRANCH  18  20
ENDBRANCH   1  18
TORSDOF 4
ENDMDL
