MODEL 1
REMARK VINA RESULT:    -7.793      0.000      0.000
REMARK INTER + INTRA:         -12.475
REMARK INTER:                 -10.477
REMARK INTRA:                  -1.998
REMARK CONF_INDEPENDENT:        2.685
REMARK UNBOUND:                -1.998
REMARK  9 active torsions:
REMARK  status: ('A' for Active; 'I' for Inactive)
REMARK    1  A    between atoms: C_2  and  C_3 
REMARK    2  A    between atoms: C_3  and  C_4 
REMARK    3  A    between atoms: C_4  and  N_5 
REMARK       I    between atoms: N_5  and  C_6 
REMARK       I    between atoms: C_6  and  N_8 
REMARK    4  A    between atoms: N_8  and  N_9 
REMARK       I    between atoms: N_9  and  C_10 
REMARK    5  A    between atoms: C_10  and  C_12 
REMARK    6  A    between atoms: C_12  and  O_14 
REMARK    7  A    between atoms: O_14  and  C_15 
REMARK    8  A    between atoms: C_18  and  O_19 
REMARK    9  A    between atoms: O_19  and  C_20 
ROOT
ATOM      1  N   UNL d   1      24.545 -17.462  -0.129  0.00  0.00    -0.264 N 
ATOM      2  C   UNL d   1      25.842 -17.570   0.390  0.00  0.00     0.265 C 
ATOM      3  O   UNL d   1      26.184 -18.576   1.016  0.00  0.00    -0.269 OA
ATOM      4  H   UNL d   1      24.193 -16.652  -0.638  0.00  0.00     0.190 HD
ENDROOT
BRANCH   2   5
ATOM      5  C   UNL d   1      26.809 -16.344   0.125  0.00  0.00     0.218 C 
ATOM      6  C   UNL d   1      28.143 -16.928  -0.348  0.00  0.00     0.050 C 
BRANCH   5   7
ATOM      7  O   UNL d   1      26.196 -15.397  -0.798  0.00  0.00    -0.337 OA
BRANCH   7   8
ATOM      8  C   UNL d   1      26.487 -15.410  -2.141  0.00  0.00     0.070 A 
ATOM      9  C   UNL d   1      27.770 -15.040  -2.566  0.00  0.00     0.039 A 
ATOM     10  C   UNL d   1      28.065 -14.897  -3.944  0.00  0.00     0.039 A 
ATOM     11  C   UNL d   1      27.112 -15.209  -4.918  0.00  0.00     0.068 A 
ATOM     12  C   UNL d   1      25.839 -15.547  -4.493  0.00  0.00     0.039 A 
ATOM     13  C   UNL d   1      25.531 -15.578  -3.134  0.00  0.00     0.039 A 
BRANCH  11  14
ATOM     14  O   UNL d   1      27.483 -15.137  -6.236  0.00  0.00    -0.352 OA
BRANCH  14  15
ATOM     15  C   UNL d   1      28.599 -14.276  -6.514  0.00  0.00     0.171 C 
ATOM     16  C   UNL d   1      29.855 -15.110  -6.663  0.00  0.00     0.034 C 
ENDBRANCH  14  15
ENDBRANCH  11  14
ENDBRANCH   7   8
ENDBRANCH   5   7
ENDBRANCH   2   5
BRANCH   1  17
ATOM     17  N   UNL d   1      23.575 -18.492   0.116  0.00  0.00    -0.249 N 
ATOM     18  C   UNL d   1      22.270 -18.317  -0.321  0.00  0.00     0.334 C 
ATOM     19  N   UNL d   1      21.419 -19.376  -0.069  0.00  0.00    -0.342 N 
ATOM     20  O   UNL d   1      21.907 -17.286  -0.894  0.00  0.00    -0.246 OA
ATOM     21  H   UNL d   1      21.770 -20.198   0.400  0.00  0.00     0.164 HD
ATOM     22  H   UNL d   1      23.912 -19.322   0.594  0.00  0.00     0.192 HD
BRANCH  19  23
ATOM     23  C   UNL d   1      20.010 -19.345  -0.481  0.00  0.00     0.124 C 
BRANCH  23  24
ATOM     24  C   UNL d   1      19.148 -20.458   0.137  0.00  0.00     0.019 C 
BRANCH  24  25
ATOM     25  C   UNL d   1      18.711 -20.128   1.575  0.00  0.00    -0.003 C 
ATOM     26  C   UNL d   1      19.900 -20.075   2.528  0.00  0.00     0.005 C 
ENDBRANCH  24  25
ENDBRANCH  23  24
ENDBRANCH  19  23
ENDBRANCH   1  17
TORSDOF 9
ENDMDL
MODEL 2
REMARK VINA RESULT:    -7.635      1.949      2.226
REMARK INTER + INTRA:         -12.323
REMARK INTER:                 -10.320
REMARK INTRA:                  -2.003
REMARK CONF_INDEPENDENT:        2.685
REMARK UNBOUND:                -2.003
REMARK  9 active torsions:
REMARK  status: ('A' for Active; 'I' for Inactive)
REMARK    1  A    between atoms: C_2  and  C_3 
REMARK    2  A    between atoms: C_3  and  C_4 
REMARK    3  A    between atoms: C_4  and  N_5 
REMARK       I    between atoms: N_5  and  C_6 
REMARK       I    between atoms: C_6  and  N_8 
REMARK    4  A    between atoms: N_8  and  N_9 
REMARK       I    between atoms: N_9  and  C_10 
REMARK    5  A    between atoms: C_10  and  C_12 
REMARK    6  A    between atoms: C_12  and  O_14 
REMARK    7  A    between atoms: O_14  and  C_15 
REMARK    8  A    between atoms: C_18  and  O_19 
REMARK    9  A    between atoms: O_19  and  C_20 
ROOT
ATOM      1  N   UNL d   1      23.465 -17.857  -0.774  0.00  0.00    -0.264 N 
ATOM      2  C   UNL d   1      24.738 -17.561  -0.268  0.00  0.00     0.265 C 
ATOM      3  O   UNL d   1      25.219 -18.229   0.649  0.00  0.00    -0.269 OA
ATOM      4  H   UNL d   1      23.004 -17.332  -1.516  0.00  0.00     0.190 HD
ENDROOT
BRANCH   2   5
ATOM      5  C   UNL d   1      25.494 -16.340  -0.938  0.00  0.00     0.218 C 
ATOM      6  C   UNL d   1      26.961 -16.753  -1.080  0.00  0.00     0.050 C 
BRANCH   5   7
ATOM      7  O   UNL d   1      24.844 -15.957  -2.186  0.00  0.00    -0.337 OA
BRANCH   7   8
ATOM      8  C   UNL d   1      25.413 -15.045  -3.043  0.00  0.00     0.070 A 
ATOM      9  C   UNL d   1      25.286 -13.678  -2.768  0.00  0.00     0.039 A 
ATOM     10  C   UNL d   1      25.726 -12.706  -3.700  0.00  0.00     0.039 A 
ATOM     11  C   UNL d   1      26.381 -13.085  -4.875  0.00  0.00     0.068 A 
ATOM     12  C   UNL d   1      26.479 -14.436  -5.155  0.00  0.00     0.039 A 
ATOM     13  C   UNL d   1      25.944 -15.381  -4.281  0.00  0.00     0.039 A 
BRANCH  11  14
ATOM     14  O   UNL d   1      26.864 -12.097  -5.695  0.00  0.00    -0.352 OA
BRANCH  14  15
ATOM     15  C   UNL d   1      25.904 -11.107  -6.097  0.00  0.00     0.171 C 
ATOM     16  C   UNL d   1      26.297 -10.540  -7.446  0.00  0.00     0.034 C 
ENDBRANCH  14  15
ENDBRANCH  11  14
ENDBRANCH   7   8
ENDBRANCH   5   7
ENDBRANCH   2   5
BRANCH   1  17
ATOM     17  N   UNL d   1      22.675 -18.902  -0.188  0.00  0.00    -0.249 N 
ATOM     18  C   UNL d   1      21.325 -18.988  -0.494  0.00  0.00     0.334 C 
ATOM     19  N   UNL d   1      20.656 -20.046   0.092  0.00  0.00    -0.342 N 
ATOM     20  O   UNL d   1      20.771 -18.174  -1.238  0.00  0.00    -0.246 OA
ATOM     21  H   UNL d   1      21.159 -20.685   0.690  0.00  0.00     0.164 HD
ATOM     22  H   UNL d   1      23.166 -19.547   0.423  0.00  0.00     0.192 HD
BRANCH  19  23
ATOM     23  C   UNL d   1      19.226 -20.277  -0.145  0.00  0.00     0.124 C 
BRANCH  23  24
ATOM     24  C   UNL d   1      18.540 -21.141   0.927  0.00  0.00     0.019 C 
BRANCH  24  25
ATOM     25  C   UNL d   1      18.498 -20.446   2.298  0.00  0.00    -0.003 C 
ATOM     26  C   UNL d   1      19.865 -20.449   2.974  0.00  0.00     0.005 C 
ENDBRANCH  24  25
ENDBRANCH  23  24
ENDBRANCH  19  23
ENDBRANCH   1  17
TORSDOF 9
ENDMDL
MODEL 3
REMARK VINA RESULT:    -7.575      1.326      1.442
REMARK INTER + INTRA:         -12.329
REMARK INTER:                 -10.260
REMARK INTRA:                  -2.069
REMARK CONF_INDEPENDENT:        2.685
REMARK UNBOUND:                -2.069
REMARK  9 active torsions:
REMARK  status: ('A' for Active; 'I' for Inactive)
REMARK    1  A    between atoms: C_2  and  C_3 
REMARK    2  A    between atoms: C_3  and  C_4 
REMARK    3  A    between atoms: C_4  and  N_5 
REMARK       I    between atoms: N_5  and  C_6 
REMARK       I    between atoms: C_6  and  N_8 
REMARK    4  A    between atoms: N_8  and  N_9 
REMARK       I    between atoms: N_9  and  C_10 
REMARK    5  A    between atoms: C_10  and  C_12 
REMARK    6  A    between atoms: C_12  and  O_14 
REMARK    7  A    between atoms: O_14  and  C_15 
REMARK    8  A    between atoms: C_18  and  O_19 
REMARK    9  A    between atoms: O_19  and  C_20 
ROOT
ATOM      1  N   UNL d   1      23.739 -17.628  -0.584  0.00  0.00    -0.264 N 
ATOM      2  C   UNL d   1      25.059 -17.470  -0.140  0.00  0.00     0.265 C 
ATOM      3  O   UNL d   1      25.562 -18.290   0.631  0.00  0.00    -0.269 OA
ATOM      4  H   UNL d   1      23.258 -16.977  -1.204  0.00  0.00     0.190 HD
ENDROOT
BRANCH   2   5
ATOM      5  C   UNL d   1      25.835 -16.200  -0.681  0.00  0.00     0.218 C 
ATOM      6  C   UNL d   1      27.178 -16.699  -1.220  0.00  0.00     0.050 C 
BRANCH   5   7
ATOM      7  O   UNL d   1      25.021 -15.474  -1.647  0.00  0.00    -0.337 OA
BRANCH   7   8
ATOM      8  C   UNL d   1      25.582 -14.842  -2.731  0.00  0.00     0.070 A 
ATOM      9  C   UNL d   1      25.660 -13.444  -2.742  0.00  0.00     0.039 A 
ATOM     10  C   UNL d   1      26.094 -12.750  -3.899  0.00  0.00     0.039 A 
ATOM     11  C   UNL d   1      26.541 -13.445  -5.026  0.00  0.00     0.068 A 
ATOM     12  C   UNL d   1      26.436 -14.825  -5.020  0.00  0.00     0.039 A 
ATOM     13  C   UNL d   1      25.905 -15.490  -3.916  0.00  0.00     0.039 A 
BRANCH  11  14
ATOM     14  O   UNL d   1      27.032 -12.720  -6.082  0.00  0.00    -0.352 OA
BRANCH  14  15
ATOM     15  C   UNL d   1      28.464 -12.675  -6.184  0.00  0.00     0.171 C 
ATOM     16  C   UNL d   1      28.917 -13.554  -7.331  0.00  0.00     0.034 C 
ENDBRANCH  14  15
ENDBRANCH  11  14
ENDBRANCH   7   8
ENDBRANCH   5   7
ENDBRANCH   2   5
BRANCH   1  17
ATOM     17  N   UNL d   1      22.932 -18.711  -0.098  0.00  0.00    -0.249 N 
ATOM     18  C   UNL d   1      21.590 -18.770  -0.445  0.00  0.00     0.334 C 
ATOM     19  N   UNL d   1      20.905 -19.866   0.043  0.00  0.00    -0.342 N 
ATOM     20  O   UNL d   1      21.058 -17.902  -1.141  0.00  0.00    -0.246 OA
ATOM     21  H   UNL d   1      21.391 -20.550   0.605  0.00  0.00     0.164 HD
ATOM     22  H   UNL d   1      23.406 -19.401   0.476  0.00  0.00     0.192 HD
BRANCH  19  23
ATOM     23  C   UNL d   1      19.481 -20.075  -0.248  0.00  0.00     0.124 C 
BRANCH  23  24
ATOM     24  C   UNL d   1      18.778 -21.051   0.710  0.00  0.00     0.019 C 
BRANCH  24  25
ATOM     25  C   UNL d   1      18.575 -20.450   2.111  0.00  0.00    -0.003 C 
ATOM     26  C   UNL d   1      19.905 -20.148   2.794  0.00  0.00     0.005 C 
ENDBRANCH  24  25
ENDBRANCH  23  24
ENDBRANCH  19  23
ENDBRANCH   1  17
TORSDOF 9
ENDMDL
MODEL 4
REMARK VINA RESULT:    -7.283      4.683      9.089
REMARK INTER + INTRA:         -11.646
REMARK INTER:                  -9.968
REMARK INTRA:                  -1.678
REMARK CONF_INDEPENDENT:        2.685
REMARK UNBOUND:                -1.678
REMARK  9 active torsions:
REMARK  status: ('A' for Active; 'I' for Inactive)
REMARK    1  A    between atoms: C_2  and  C_3 
REMARK    2  A    between atoms: C_3  and  C_4 
REMARK    3  A    between atoms: C_4  and  N_5 
REMARK       I    between atoms: N_5  and  C_6 
REMARK       I    between atoms: C_6  and  N_8 
REMARK    4  A    between atoms: N_8  and  N_9 
REMARK       I    between atoms: N_9  and  C_10 
REMARK    5  A    between atoms: C_10  and  C_12 
REMARK    6  A    between atoms: C_12  and  O_14 
REMARK    7  A    between atoms: O_14  and  C_15 
REMARK    8  A    between atoms: C_18  and  O_19 
REMARK    9  A    between atoms: O_19  and  C_20 
ROOT
ATOM      1  N   UNL d   1      25.863 -13.137  -3.149  0.00  0.00    -0.264 N 
ATOM      2  C   UNL d   1      25.565 -14.457  -3.510  0.00  0.00     0.265 C 
ATOM      3  O   UNL d   1      24.953 -14.699  -4.552  0.00  0.00    -0.269 OA
ATOM      4  H   UNL d   1      26.348 -12.868  -2.293  0.00  0.00     0.190 HD
ENDROOT
BRANCH   2   5
ATOM      5  C   UNL d   1      26.053 -15.586  -2.511  0.00  0.00     0.218 C 
ATOM      6  C   UNL d   1      27.567 -15.418  -2.361  0.00  0.00     0.050 C 
BRANCH   5   7
ATOM      7  O   UNL d   1      25.305 -15.524  -1.262  0.00  0.00    -0.337 OA
BRANCH   7   8
ATOM      8  C   UNL d   1      24.414 -16.509  -0.907  0.00  0.00     0.070 A 
ATOM      9  C   UNL d   1      24.877 -17.819  -0.734  0.00  0.00     0.039 A 
ATOM     10  C   UNL d   1      23.971 -18.887  -0.515  0.00  0.00     0.039 A 
ATOM     11  C   UNL d   1      22.601 -18.647  -0.376  0.00  0.00     0.068 A 
ATOM     12  C   UNL d   1      22.146 -17.355  -0.575  0.00  0.00     0.039 A 
ATOM     13  C   UNL d   1      23.037 -16.332  -0.898  0.00  0.00     0.039 A 
BRANCH  11  14
ATOM     14  O   UNL d   1      21.785 -19.707  -0.077  0.00  0.00    -0.352 OA
BRANCH  14  15
ATOM     15  C   UNL d   1      20.515 -19.362   0.500  0.00  0.00     0.171 C 
ATOM     16  C   UNL d   1      19.430 -19.499  -0.548  0.00  0.00     0.034 C 
ENDBRANCH  14  15
ENDBRANCH  11  14
ENDBRANCH   7   8
ENDBRANCH   5   7
ENDBRANCH   2   5
BRANCH   1  17
ATOM     17  N   UNL d   1      25.404 -12.041  -3.956  0.00  0.00    -0.249 N 
ATOM     18  C   UNL d   1      25.863 -10.760  -3.688  0.00  0.00     0.334 C 
ATOM     19  N   UNL d   1      25.391  -9.778  -4.539  0.00  0.00    -0.342 N 
ATOM     20  O   UNL d   1      26.638 -10.525  -2.757  0.00  0.00    -0.246 OA
ATOM     21  H   UNL d   1      24.762 -10.026  -5.288  0.00  0.00     0.164 HD
ATOM     22  H   UNL d   1      24.764 -12.275  -4.708  0.00  0.00     0.192 HD
BRANCH  19  23
ATOM     23  C   UNL d   1      25.795  -8.374  -4.391  0.00  0.00     0.124 C 
BRANCH  23  24
ATOM     24  C   UNL d   1      24.665  -7.362  -4.641  0.00  0.00     0.019 C 
BRANCH  24  25
ATOM     25  C   UNL d   1      23.507  -7.969  -5.451  0.00  0.00    -0.003 C 
ATOM     26  C   UNL d   1      22.890  -6.951  -6.405  0.00  0.00     0.005 C 
ENDBRANCH  24  25
ENDBRANCH  23  24
ENDBRANCH  19  23
ENDBRANCH   1  17
TORSDOF 9
ENDMDL
MODEL 5
REMARK VINA RESULT:    -7.145      4.180      8.222
REMARK INTER + INTRA:         -11.338
REMARK INTER:                  -9.829
REMARK INTRA:                  -1.509
REMARK CONF_INDEPENDENT:        2.685
REMARK UNBOUND:                -1.509
REMARK  9 active torsions:
REMARK  status: ('A' for Active; 'I' for Inactive)
REMARK    1  A    between atoms: C_2  and  C_3 
REMARK    2  A    between atoms: C_3  and  C_4 
REMARK    3  A    between atoms: C_4  and  N_5 
REMARK       I    between atoms: N_5  and  C_6 
REMARK       I    between atoms: C_6  and  N_8 
REMARK    4  A    between atoms: N_8  and  N_9 
REMARK       I    between atoms: N_9  and  C_10 
REMARK    5  A    between atoms: C_10  and  C_12 
REMARK    6  A    between atoms: C_12  and  O_14 
REMARK    7  A    between atoms: O_14  and  C_15 
REMARK    8  A    between atoms: C_18  and  O_19 
REMARK    9  A    between atoms: O_19  and  C_20 
ROOT
ATOM      1  N   UNL d   1      27.247 -14.729   1.166  0.00  0.00    -0.264 N 
ATOM      2  C   UNL d   1      27.177 -15.571   0.048  0.00  0.00     0.265 C 
ATOM      3  O   UNL d   1      27.792 -16.639   0.029  0.00  0.00    -0.269 OA
ATOM      4  H   UNL d   1      26.780 -13.826   1.237  0.00  0.00     0.190 HD
ENDROOT
BRANCH   2   5
ATOM      5  C   UNL d   1      26.279 -15.067  -1.157  0.00  0.00     0.218 C 
ATOM      6  C   UNL d   1      27.190 -14.247  -2.073  0.00  0.00     0.050 C 
BRANCH   5   7
ATOM      7  O   UNL d   1      25.613 -16.190  -1.804  0.00  0.00    -0.337 OA
BRANCH   7   8
ATOM      8  C   UNL d   1      24.568 -16.850  -1.203  0.00  0.00     0.070 A 
ATOM      9  C   UNL d   1      24.724 -18.196  -0.848  0.00  0.00     0.039 A 
ATOM     10  C   UNL d   1      23.627 -18.951  -0.364  0.00  0.00     0.039 A 
ATOM     11  C   UNL d   1      22.385 -18.350  -0.143  0.00  0.00     0.068 A 
ATOM     12  C   UNL d   1      22.229 -17.028  -0.520  0.00  0.00     0.039 A 
ATOM     13  C   UNL d   1      23.286 -16.326  -1.097  0.00  0.00     0.039 A 
BRANCH  11  14
ATOM     14  O   UNL d   1      21.386 -19.110   0.410  0.00  0.00    -0.352 OA
BRANCH  14  15
ATOM     15  C   UNL d   1      20.241 -19.327  -0.430  0.00  0.00     0.171 C 
ATOM     16  C   UNL d   1      19.317 -20.332   0.226  0.00  0.00     0.034 C 
ENDBRANCH  14  15
ENDBRANCH  11  14
ENDBRANCH   7   8
ENDBRANCH   5   7
ENDBRANCH   2   5
BRANCH   1  17
ATOM     17  N   UNL d   1      28.087 -15.067   2.280  0.00  0.00    -0.249 N 
ATOM     18  C   UNL d   1      27.868 -14.459   3.507  0.00  0.00     0.334 C 
ATOM     19  N   UNL d   1      28.706 -14.874   4.525  0.00  0.00    -0.342 N 
ATOM     20  O   UNL d   1      26.986 -13.612   3.667  0.00  0.00    -0.246 OA
ATOM     21  H   UNL d   1      29.409 -15.574   4.340  0.00  0.00     0.164 HD
ATOM     22  H   UNL d   1      28.804 -15.764   2.105  0.00  0.00     0.192 HD
BRANCH  19  23
ATOM     23  C   UNL d   1      28.591 -14.331   5.884  0.00  0.00     0.124 C 
BRANCH  23  24
ATOM     24  C   UNL d   1      28.437 -12.802   5.942  0.00  0.00     0.019 C 
BRANCH  24  25
ATOM     25  C   UNL d   1      28.333 -12.280   7.385  0.00  0.00    -0.003 C 
ATOM     26  C   UNL d   1      28.901 -13.279   8.389  0.00  0.00     0.005 C 
ENDBRANCH  24  25
ENDBRANCH  23  24
ENDBRANCH  19  23
ENDBRANCH   1  17
TORSDOF 9
ENDMDL
MODEL 6
REMARK VINA RESULT:    -6.288      4.764      8.545
REMARK INTER + INTRA:         -10.836
REMARK INTER:                  -8.973
REMARK INTRA:                  -1.863
REMARK CONF_INDEPENDENT:        2.685
REMARK UNBOUND:                -1.863
REMARK  9 active torsions:
REMARK  status: ('A' for Active; 'I' for Inactive)
REMARK    1  A    between atoms: C_2  and  C_3 
REMARK    2  A    between atoms: C_3  and  C_4 
REMARK    3  A    between atoms: C_4  and  N_5 
REMARK       I    between atoms: N_5  and  C_6 
REMARK       I    between atoms: C_6  and  N_8 
REMARK    4  A    between atoms: N_8  and  N_9 
REMARK       I    between atoms: N_9  and  C_10 
REMARK    5  A    between atoms: C_10  and  C_12 
REMARK    6  A    between atoms: C_12  and  O_14 
REMARK    7  A    between atoms: O_14  and  C_15 
REMARK    8  A    between atoms: C_18  and  O_19 
REMARK    9  A    between atoms: O_19  and  C_20 
ROOT
ATOM      1  N   UNL d   1      27.797 -14.991   2.025  0.00  0.00    -0.264 N 
ATOM      2  C   UNL d   1      27.504 -14.620   0.705  0.00  0.00     0.265 C 
ATOM      3  O   UNL d   1      27.457 -13.431   0.385  0.00  0.00    -0.269 OA
ATOM      4  H   UNL d   1      27.831 -15.953   2.359  0.00  0.00     0.190 HD
ENDROOT
BRANCH   2   5
ATOM      5  C   UNL d   1      27.243 -15.803  -0.316  0.00  0.00     0.218 C 
ATOM      6  C   UNL d   1      28.603 -16.190  -0.900  0.00  0.00     0.050 C 
BRANCH   5   7
ATOM      7  O   UNL d   1      26.526 -16.892   0.335  0.00  0.00    -0.337 OA
BRANCH   7   8
ATOM      8  C   UNL d   1      25.231 -17.204  -0.004  0.00  0.00     0.070 A 
ATOM      9  C   UNL d   1      24.457 -16.259  -0.690  0.00  0.00     0.039 A 
ATOM     10  C   UNL d   1      23.078 -16.482  -0.925  0.00  0.00     0.039 A 
ATOM     11  C   UNL d   1      22.474 -17.689  -0.559  0.00  0.00     0.068 A 
ATOM     12  C   UNL d   1      23.236 -18.607   0.143  0.00  0.00     0.039 A 
ATOM     13  C   UNL d   1      24.563 -18.329   0.464  0.00  0.00     0.039 A 
BRANCH  11  14
ATOM     14  O   UNL d   1      21.158 -17.882  -0.892  0.00  0.00    -0.352 OA
BRANCH  14  15
ATOM     15  C   UNL d   1      20.735 -19.254  -0.955  0.00  0.00     0.171 C 
ATOM     16  C   UNL d   1      19.225 -19.321  -0.857  0.00  0.00     0.034 C 
ENDBRANCH  14  15
ENDBRANCH  11  14
ENDBRANCH   7   8
ENDBRANCH   5   7
ENDBRANCH   2   5
BRANCH   1  17
ATOM     17  N   UNL d   1      27.983 -13.990   3.037  0.00  0.00    -0.249 N 
ATOM     18  C   UNL d   1      28.132 -14.380   4.360  0.00  0.00     0.334 C 
ATOM     19  N   UNL d   1      28.339 -13.348   5.256  0.00  0.00    -0.342 N 
ATOM     20  O   UNL d   1      28.084 -15.565   4.701  0.00  0.00    -0.246 OA
ATOM     21  H   UNL d   1      28.374 -12.396   4.922  0.00  0.00     0.164 HD
ATOM     22  H   UNL d   1      28.011 -13.027   2.717  0.00  0.00     0.192 HD
BRANCH  19  23
ATOM     23  C   UNL d   1      28.526 -13.601   6.690  0.00  0.00     0.124 C 
BRANCH  23  24
ATOM     24  C   UNL d   1      29.713 -12.849   7.314  0.00  0.00     0.019 C 
BRANCH  24  25
ATOM     25  C   UNL d   1      29.267 -11.834   8.380  0.00  0.00    -0.003 C 
ATOM     26  C   UNL d   1      28.390 -12.483   9.446  0.00  0.00     0.005 C 
ENDBRANCH  24  25
ENDBRANCH  23  24
ENDBRANCH  19  23
ENDBRANCH   1  17
TORSDOF 9
ENDMDL
MODEL 7
REMARK VINA RESULT:    -6.004      5.897      8.680
REMARK INTER + INTRA:         -10.682
REMARK INTER:                  -8.688
REMARK INTRA:                  -1.993
REMARK CONF_INDEPENDENT:        2.685
REMARK UNBOUND:                -1.993
REMARK  9 active torsions:
REMARK  status: ('A' for Active; 'I' for Inactive)
REMARK    1  A    between atoms: C_2  and  C_3 
REMARK    2  A    between atoms: C_3  and  C_4 
REMARK    3  A    between atoms: C_4  and  N_5 
REMARK       I    between atoms: N_5  and  C_6 
REMARK       I    between atoms: C_6  and  N_8 
REMARK    4  A    between atoms: N_8  and  N_9 
REMARK       I    between atoms: N_9  and  C_10 
REMARK    5  A    between atoms: C_10  and  C_12 
REMARK    6  A    between atoms: C_12  and  O_14 
REMARK    7  A    between atoms: O_14  and  C_15 
REMARK    8  A    between atoms: C_18  and  O_19 
REMARK    9  A    between atoms: O_19  and  C_20 
ROOT
ATOM      1  N   UNL d   1      29.713 -14.755   3.467  0.00  0.00    -0.264 N 
ATOM      2  C   UNL d   1      30.187 -14.359   2.209  0.00  0.00     0.265 C 
ATOM      3  O   UNL d   1      31.226 -13.705   2.108  0.00  0.00    -0.269 OA
ATOM      4  H   UNL d   1      28.852 -15.279   3.620  0.00  0.00     0.190 HD
ENDROOT
BRANCH   2   5
ATOM      5  C   UNL d   1      29.316 -14.799   0.960  0.00  0.00     0.218 C 
ATOM      6  C   UNL d   1      30.108 -15.886   0.230  0.00  0.00     0.050 C 
BRANCH   5   7
ATOM      7  O   UNL d   1      27.979 -15.197   1.382  0.00  0.00    -0.337 OA
BRANCH   7   8
ATOM      8  C   UNL d   1      27.131 -15.877   0.541  0.00  0.00     0.070 A 
ATOM      9  C   UNL d   1      26.284 -15.152  -0.307  0.00  0.00     0.039 A 
ATOM     10  C   UNL d   1      25.294 -15.810  -1.079  0.00  0.00     0.039 A 
ATOM     11  C   UNL d   1      25.198 -17.204  -1.084  0.00  0.00     0.068 A 
ATOM     12  C   UNL d   1      26.018 -17.913  -0.224  0.00  0.00     0.039 A 
ATOM     13  C   UNL d   1      26.913 -17.246   0.612  0.00  0.00     0.039 A 
BRANCH  11  14
ATOM     14  O   UNL d   1      24.279 -17.788  -1.918  0.00  0.00    -0.352 OA
BRANCH  14  15
ATOM     15  C   UNL d   1      23.289 -18.603  -1.270  0.00  0.00     0.171 C 
ATOM     16  C   UNL d   1      22.552 -17.775  -0.238  0.00  0.00     0.034 C 
ENDBRANCH  14  15
ENDBRANCH  11  14
ENDBRANCH   7   8
ENDBRANCH   5   7
ENDBRANCH   2   5
BRANCH   1  17
ATOM     17  N   UNL d   1      30.396 -14.348   4.662  0.00  0.00    -0.249 N 
ATOM     18  C   UNL d   1      29.725 -14.381   5.875  0.00  0.00     0.334 C 
ATOM     19  N   UNL d   1      30.476 -14.004   6.972  0.00  0.00    -0.342 N 
ATOM     20  O   UNL d   1      28.544 -14.727   5.958  0.00  0.00    -0.246 OA
ATOM     21  H   UNL d   1      31.441 -13.735   6.849  0.00  0.00     0.164 HD
ATOM     22  H   UNL d   1      31.366 -14.066   4.551  0.00  0.00     0.192 HD
BRANCH  19  23
ATOM     23  C   UNL d   1      29.910 -13.998   8.327  0.00  0.00     0.124 C 
BRANCH  23  24
ATOM     24  C   UNL d   1      28.726 -13.034   8.512  0.00  0.00     0.019 C 
BRANCH  24  25
ATOM     25  C   UNL d   1      28.582 -12.559   9.967  0.00  0.00    -0.003 C 
ATOM     26  C   UNL d   1      27.799 -13.558  10.813  0.00  0.00     0.005 C 
ENDBRANCH  24  25
ENDBRANCH  23  24
ENDBRANCH  19  23
ENDBRANCH   1  17
TORSDOF 9
ENDMDL
MODEL 8
REMARK VINA RESULT:    -5.749      3.225      9.215
REMARK INTER + INTRA:         -10.113
REMARK INTER:                  -8.434
REMARK INTRA:                  -1.679
REMARK CONF_INDEPENDENT:        2.685
REMARK UNBOUND:                -1.679
REMARK  9 active torsions:
REMARK  status: ('A' for Active; 'I' for Inactive)
REMARK    1  A    between atoms: C_2  and  C_3 
REMARK    2  A    between atoms: C_3  and  C_4 
REMARK    3  A    between atoms: C_4  and  N_5 
REMARK       I    between atoms: N_5  and  C_6 
REMARK       I    between atoms: C_6  and  N_8 
REMARK    4  A    between atoms: N_8  and  N_9 
REMARK       I    between atoms: N_9  and  C_10 
REMARK    5  A    between atoms: C_10  and  C_12 
REMARK    6  A    between atoms: C_12  and  O_14 
REMARK    7  A    between atoms: O_14  and  C_15 
REMARK    8  A    between atoms: C_18  and  O_19 
REMARK    9  A    between atoms: O_19  and  C_20 
ROOT
ATOM      1  N   UNL d   1      27.676 -15.326  -4.222  0.00  0.00    -0.264 N 
ATOM      2  C   UNL d   1      26.298 -15.264  -3.972  0.00  0.00     0.265 C 
ATOM      3  O   UNL d   1      25.494 -15.209  -4.905  0.00  0.00    -0.269 OA
ATOM      4  H   UNL d   1      28.392 -15.354  -3.498  0.00  0.00     0.190 HD
ENDROOT
BRANCH   2   5
ATOM      5  C   UNL d   1      25.859 -15.269  -2.450  0.00  0.00     0.218 C 
ATOM      6  C   UNL d   1      24.395 -14.826  -2.412  0.00  0.00     0.050 C 
BRANCH   5   7
ATOM      7  O   UNL d   1      26.121 -16.568  -1.845  0.00  0.00    -0.337 OA
BRANCH   7   8
ATOM      8  C   UNL d   1      25.111 -17.323  -1.297  0.00  0.00     0.070 A 
ATOM      9  C   UNL d   1      24.105 -17.827  -2.132  0.00  0.00     0.039 A 
ATOM     10  C   UNL d   1      22.971 -18.481  -1.589  0.00  0.00     0.039 A 
ATOM     11  C   UNL d   1      22.871 -18.721  -0.216  0.00  0.00     0.068 A 
ATOM     12  C   UNL d   1      23.853 -18.197   0.606  0.00  0.00     0.039 A 
ATOM     13  C   UNL d   1      24.908 -17.460   0.069  0.00  0.00     0.039 A 
BRANCH  11  14
ATOM     14  O   UNL d   1      21.794 -19.436   0.240  0.00  0.00    -0.352 OA
BRANCH  14  15
ATOM     15  C   UNL d   1      20.518 -19.026  -0.277  0.00  0.00     0.171 C 
ATOM     16  C   UNL d   1      19.504 -20.129  -0.056  0.00  0.00     0.034 C 
ENDBRANCH  14  15
ENDBRANCH  11  14
ENDBRANCH   7   8
ENDBRANCH   5   7
ENDBRANCH   2   5
BRANCH   1  17
ATOM     17  N   UNL d   1      28.175 -15.261  -5.567  0.00  0.00    -0.249 N 
ATOM     18  C   UNL d   1      29.543 -15.302  -5.788  0.00  0.00     0.334 C 
ATOM     19  N   UNL d   1      29.925 -15.267  -7.116  0.00  0.00    -0.342 N 
ATOM     20  O   UNL d   1      30.353 -15.368  -4.859  0.00  0.00    -0.246 OA
ATOM     21  H   UNL d   1      29.220 -15.218  -7.837  0.00  0.00     0.164 HD
ATOM     22  H   UNL d   1      27.477 -15.203  -6.302  0.00  0.00     0.192 HD
BRANCH  19  23
ATOM     23  C   UNL d   1      31.338 -15.315  -7.512  0.00  0.00     0.124 C 
BRANCH  23  24
ATOM     24  C   UNL d   1      32.044 -16.638  -7.170  0.00  0.00     0.019 C 
BRANCH  24  25
ATOM     25  C   UNL d   1      31.158 -17.863  -7.455  0.00  0.00    -0.003 C 
ATOM     26  C   UNL d   1      30.436 -18.341  -6.199  0.00  0.00     0.005 C 
ENDBRANCH  24  25
ENDBRANCH  23  24
ENDBRANCH  19  23
ENDBRANCH   1  17
TORSDOF 9
ENDMDL
MODEL 9
REMARK VINA RESULT:    -5.731      3.108      6.010
REMARK INTER + INTRA:         -10.658
REMARK INTER:                  -8.416
REMARK INTRA:                  -2.242
REMARK CONF_INDEPENDENT:        2.685
REMARK UNBOUND:                -2.242
REMARK  9 active torsions:
REMARK  status: ('A' for Active; 'I' for Inactive)
REMARK    1  A    between atoms: C_2  and  C_3 
REMARK    2  A    between atoms: C_3  and  C_4 
REMARK    3  A    between atoms: C_4  and  N_5 
REMARK       I    between atoms: N_5  and  C_6 
REMARK       I    between atoms: C_6  and  N_8 
REMARK    4  A    between atoms: N_8  and  N_9 
REMARK       I    between atoms: N_9  and  C_10 
REMARK    5  A    between atoms: C_10  and  C_12 
REMARK    6  A    between atoms: C_12  and  O_14 
REMARK    7  A    between atoms: O_14  and  C_15 
REMARK    8  A    between atoms: C_18  and  O_19 
REMARK    9  A    between atoms: O_19  and  C_20 
ROOT
ATOM      1  N   UNL d   1      26.459 -16.043   0.313  0.00  0.00    -0.264 N 
ATOM      2  C   UNL d   1      26.018 -17.342   0.028  0.00  0.00     0.265 C 
ATOM      3  O   UNL d   1      26.549 -18.317   0.564  0.00  0.00    -0.269 OA
ATOM      4  H   UNL d   1      26.077 -15.198  -0.110  0.00  0.00     0.190 HD
ENDROOT
BRANCH   2   5
ATOM      5  C   UNL d   1      24.822 -17.467  -1.005  0.00  0.00     0.218 C 
ATOM      6  C   UNL d   1      23.722 -18.274  -0.311  0.00  0.00     0.050 C 
BRANCH   5   7
ATOM      7  O   UNL d   1      24.410 -16.150  -1.473  0.00  0.00    -0.337 OA
BRANCH   7   8
ATOM      8  C   UNL d   1      25.122 -15.473  -2.435  0.00  0.00     0.070 A 
ATOM      9  C   UNL d   1      24.498 -14.439  -3.145  0.00  0.00     0.039 A 
ATOM     10  C   UNL d   1      25.146 -13.818  -4.242  0.00  0.00     0.039 A 
ATOM     11  C   UNL d   1      26.457 -14.159  -4.587  0.00  0.00     0.068 A 
ATOM     12  C   UNL d   1      27.058 -15.200  -3.900  0.00  0.00     0.039 A 
ATOM     13  C   UNL d   1      26.369 -15.876  -2.894  0.00  0.00     0.039 A 
BRANCH  11  14
ATOM     14  O   UNL d   1      27.063 -13.462  -5.601  0.00  0.00    -0.352 OA
BRANCH  14  15
ATOM     15  C   UNL d   1      28.157 -14.136  -6.243  0.00  0.00     0.171 C 
ATOM     16  C   UNL d   1      28.769 -13.225  -7.286  0.00  0.00     0.034 C 
ENDBRANCH  14  15
ENDBRANCH  11  14
ENDBRANCH   7   8
ENDBRANCH   5   7
ENDBRANCH   2   5
BRANCH   1  17
ATOM     17  N   UNL d   1      27.581 -15.831   1.184  0.00  0.00    -0.249 N 
ATOM     18  C   UNL d   1      27.859 -14.550   1.636  0.00  0.00     0.334 C 
ATOM     19  N   UNL d   1      28.937 -14.452   2.496  0.00  0.00    -0.342 N 
ATOM     20  O   UNL d   1      27.186 -13.575   1.290  0.00  0.00    -0.246 OA
ATOM     21  H   UNL d   1      29.450 -15.283   2.750  0.00  0.00     0.164 HD
ATOM     22  H   UNL d   1      28.112 -16.658   1.441  0.00  0.00     0.192 HD
BRANCH  19  23
ATOM     23  C   UNL d   1      29.349 -13.164   3.068  0.00  0.00     0.124 C 
BRANCH  23  24
ATOM     24  C   UNL d   1      28.608 -12.782   4.361  0.00  0.00     0.019 C 
BRANCH  24  25
ATOM     25  C   UNL d   1      27.748 -13.936   4.903  0.00  0.00    -0.003 C 
ATOM     26  C   UNL d   1      28.535 -14.828   5.857  0.00  0.00     0.005 C 
ENDBRANCH  24  25
ENDBRANCH  23  24
ENDBRANCH  19  23
ENDBRANCH   1  17
TORSDOF 9
ENDMDL
