MODEL 1
REMARK VINA RESULT:   -11.597      0.000      0.000
REMARK INTER + INTRA:         -15.012
REMARK INTER:                 -13.088
REMARK INTRA:                  -1.924
REMARK CONF_INDEPENDENT:        1.492
REMARK UNBOUND:                -1.924
REMARK  5 active torsions:
REMARK  status: ('A' for Active; 'I' for Inactive)
REMARK    1  A    between atoms: C_8  and  N_9 
REMARK       I    between atoms: N_9  and  C_10 
REMARK       I    between atoms: C_10  and  N_12 
REMARK    2  A    between atoms: N_12  and  C_13 
REMARK    3  A    between atoms: C_15  and  N_16 
REMARK       I    between atoms: N_16  and  C_17 
REMARK    4  A    between atoms: C_17  and  C_19 
REMARK    5  A    between atoms: C_28  and  N_29 
ROOT
ATOM      1  C   UNL d   1      24.669 -15.947  -1.559  0.00  0.00     0.065 C 
ATOM      2  C   UNL d   1      23.615 -16.875  -1.272  0.00  0.00     0.061 C 
ATOM      3  C   UNL d   1      23.835 -17.994  -0.428  0.00  0.00     0.037 C 
ATOM      4  C   UNL d   1      25.140 -18.254  -0.029  0.00  0.00     0.032 C 
ATOM      5  C   UNL d   1      26.180 -17.390  -0.340  0.00  0.00     0.034 C 
ATOM      6  C   UNL d   1      25.990 -16.218  -1.082  0.00  0.00     0.057 C 
ENDROOT
BRANCH   1   7
ATOM      7  N   UNL d   1      24.408 -14.761  -2.379  0.00  0.00    -0.306 N 
ATOM      8  C   UNL d   1      25.234 -14.595  -3.486  0.00  0.00     0.325 C 
ATOM      9  N   UNL d   1      25.262 -13.344  -4.103  0.00  0.00    -0.308 N 
ATOM     10  O   UNL d   1      25.869 -15.577  -3.868  0.00  0.00    -0.247 OA
ATOM     11  H   UNL d   1      24.469 -12.735  -3.942  0.00  0.00     0.170 HD
ATOM     12  H   UNL d   1      23.437 -14.520  -2.524  0.00  0.00     0.170 HD
BRANCH   9  13
ATOM     13  C   UNL d   1      26.273 -12.847  -5.047  0.00  0.00     0.043 A 
ATOM     14  C   UNL d   1      27.226 -13.759  -5.555  0.00  0.00     0.054 A 
ATOM     15  C   UNL d   1      28.200 -13.355  -6.503  0.00  0.00     0.036 A 
ATOM     16  C   UNL d   1      28.215 -12.073  -7.031  0.00  0.00     0.024 A 
ATOM     17 CL   UNL d   1      29.424 -14.448  -7.034  0.00  0.00    -0.084 Cl
ATOM     18  C   UNL d   1      27.274 -11.176  -6.586  0.00  0.00     0.011 A 
ATOM     19  C   UNL d   1      26.356 -11.526  -5.574  0.00  0.00    -0.035 A 
ATOM     20  C   UNL d   1      25.530 -10.357  -5.161  0.00  0.00     0.050 C 
ENDBRANCH   9  13
ENDBRANCH   1   7
BRANCH   6  21
ATOM     21  N   UNL d   1      27.113 -15.431  -1.253  0.00  0.00    -0.379 N 
ATOM     22  C   UNL d   1      27.249 -14.045  -0.857  0.00  0.00     0.123 C 
ATOM     23  C   UNL d   1      28.092 -13.432  -1.961  0.00  0.00     0.021 C 
ATOM     24  C   UNL d   1      29.009 -14.578  -2.396  0.00  0.00     0.021 C 
ATOM     25  C   UNL d   1      28.209 -15.867  -2.124  0.00  0.00     0.123 C 
ENDBRANCH   6  21
BRANCH   3  26
ATOM     26  N   UNL d   1      22.758 -18.800   0.068  0.00  0.00    -0.323 N 
ATOM     27  C   UNL d   1      21.406 -18.576  -0.235  0.00  0.00     0.256 C 
ATOM     28  O   UNL d   1      20.938 -17.655  -0.900  0.00  0.00    -0.267 OA
ATOM     29  H   UNL d   1      23.006 -19.677   0.510  0.00  0.00     0.169 HD
BRANCH  27  30
ATOM     30  C   UNL d   1      20.389 -19.523   0.286  0.00  0.00     0.032 A 
ATOM     31  C   UNL d   1      19.410 -20.020  -0.603  0.00  0.00     0.020 A 
ATOM     32  C   UNL d   1      18.288 -20.690  -0.113  0.00  0.00     0.043 A 
ATOM     33  C   UNL d   1      18.181 -20.913   1.252  0.00  0.00     0.116 A 
ATOM     34  F   UNL d   1      17.121 -21.580   1.730  0.00  0.00    -0.206 F 
ATOM     35  C   UNL d   1      19.153 -20.449   2.137  0.00  0.00     0.043 A 
ATOM     36  C   UNL d   1      20.258 -19.744   1.656  0.00  0.00     0.020 A 
ENDBRANCH  27  30
ENDBRANCH   3  26
TORSDOF 5
ENDMDL
MODEL 2
REMARK VINA RESULT:   -11.025      1.240      2.084
REMARK INTER + INTRA:         -14.298
REMARK INTER:                 -12.516
REMARK INTRA:                  -1.782
REMARK CONF_INDEPENDENT:        1.492
REMARK UNBOUND:                -1.782
REMARK  5 active torsions:
REMARK  status: ('A' for Active; 'I' for Inactive)
REMARK    1  A    between atoms: C_8  and  N_9 
REMARK       I    between atoms: N_9  and  C_10 
REMARK       I    between atoms: C_10  and  N_12 
REMARK    2  A    between atoms: N_12  and  C_13 
REMARK    3  A    between atoms: C_15  and  N_16 
REMARK       I    between atoms: N_16  and  C_17 
REMARK    4  A    between atoms: C_17  and  C_19 
REMARK    5  A    between atoms: C_28  and  N_29 
ROOT
ATOM      1  C   UNL d   1      25.133 -15.666  -1.523  0.00  0.00     0.065 C 
ATOM      2  C   UNL d   1      23.861 -16.264  -1.242  0.00  0.00     0.061 C 
ATOM      3  C   UNL d   1      23.769 -17.485  -0.524  0.00  0.00     0.037 C 
ATOM      4  C   UNL d   1      24.950 -18.165  -0.255  0.00  0.00     0.032 C 
ATOM      5  C   UNL d   1      26.188 -17.620  -0.565  0.00  0.00     0.034 C 
ATOM      6  C   UNL d   1      26.330 -16.369  -1.178  0.00  0.00     0.057 C 
ENDROOT
BRANCH   1   7
ATOM      7  N   UNL d   1      25.208 -14.371  -2.207  0.00  0.00    -0.306 N 
ATOM      8  C   UNL d   1      25.654 -14.406  -3.524  0.00  0.00     0.325 C 
ATOM      9  N   UNL d   1      26.061 -13.208  -4.111  0.00  0.00    -0.308 N 
ATOM     10  O   UNL d   1      25.634 -15.494  -4.097  0.00  0.00    -0.247 OA
ATOM     11  H   UNL d   1      25.714 -12.352  -3.695  0.00  0.00     0.170 HD
ATOM     12  H   UNL d   1      24.455 -13.723  -2.022  0.00  0.00     0.170 HD
BRANCH   9  13
ATOM     13  C   UNL d   1      26.861 -13.051  -5.335  0.00  0.00     0.043 A 
ATOM     14  C   UNL d   1      26.638 -11.913  -6.144  0.00  0.00     0.054 A 
ATOM     15  C   UNL d   1      27.405 -11.678  -7.312  0.00  0.00     0.036 A 
ATOM     16  C   UNL d   1      28.456 -12.509  -7.673  0.00  0.00     0.024 A 
ATOM     17 CL   UNL d   1      27.053 -10.346  -8.349  0.00  0.00    -0.084 Cl
ATOM     18  C   UNL d   1      28.722 -13.600  -6.882  0.00  0.00     0.011 A 
ATOM     19  C   UNL d   1      27.913 -13.908  -5.769  0.00  0.00    -0.035 A 
ATOM     20  C   UNL d   1      28.308 -15.204  -5.151  0.00  0.00     0.050 C 
ENDBRANCH   9  13
ENDBRANCH   1   7
BRANCH   6  21
ATOM     21  N   UNL d   1      27.629 -15.939  -1.363  0.00  0.00    -0.379 N 
ATOM     22  C   UNL d   1      28.713 -16.722  -1.920  0.00  0.00     0.123 C 
ATOM     23  C   UNL d   1      29.927 -16.283  -1.121  0.00  0.00     0.021 C 
ATOM     24  C   UNL d   1      29.642 -14.812  -0.806  0.00  0.00     0.021 C 
ATOM     25  C   UNL d   1      28.106 -14.699  -0.744  0.00  0.00     0.123 C 
ENDBRANCH   6  21
BRANCH   3  26
ATOM     26  N   UNL d   1      22.522 -17.983  -0.022  0.00  0.00    -0.323 N 
ATOM     27  C   UNL d   1      21.694 -18.875  -0.723  0.00  0.00     0.256 C 
ATOM     28  O   UNL d   1      21.868 -19.311  -1.858  0.00  0.00    -0.267 OA
ATOM     29  H   UNL d   1      22.323 -17.821   0.957  0.00  0.00     0.169 HD
BRANCH  27  30
ATOM     30  C   UNL d   1      20.460 -19.370  -0.067  0.00  0.00     0.032 A 
ATOM     31  C   UNL d   1      20.494 -19.646   1.319  0.00  0.00     0.020 A 
ATOM     32  C   UNL d   1      19.457 -20.359   1.922  0.00  0.00     0.043 A 
ATOM     33  C   UNL d   1      18.365 -20.738   1.154  0.00  0.00     0.116 A 
ATOM     34  F   UNL d   1      17.351 -21.398   1.729  0.00  0.00    -0.206 F 
ATOM     35  C   UNL d   1      18.308 -20.450  -0.209  0.00  0.00     0.043 A 
ATOM     36  C   UNL d   1      19.361 -19.771  -0.826  0.00  0.00     0.020 A 
ENDBRANCH  27  30
ENDBRANCH   3  26
TORSDOF 5
ENDMDL
MODEL 3
REMARK VINA RESULT:   -10.228      2.787      4.821
REMARK INTER + INTRA:         -13.404
REMARK INTER:                 -11.720
REMARK INTRA:                  -1.684
REMARK CONF_INDEPENDENT:        1.492
REMARK UNBOUND:                -1.684
REMARK  5 active torsions:
REMARK  status: ('A' for Active; 'I' for Inactive)
REMARK    1  A    between atoms: C_8  and  N_9 
REMARK       I    between atoms: N_9  and  C_10 
REMARK       I    between atoms: C_10  and  N_12 
REMARK    2  A    between atoms: N_12  and  C_13 
REMARK    3  A    between atoms: C_15  and  N_16 
REMARK       I    between atoms: N_16  and  C_17 
REMARK    4  A    between atoms: C_17  and  C_19 
REMARK    5  A    between atoms: C_28  and  N_29 
ROOT
ATOM      1  C   UNL d   1      26.146 -16.985  -0.228  0.00  0.00     0.065 C 
ATOM      2  C   UNL d   1      25.011 -17.622   0.373  0.00  0.00     0.061 C 
ATOM      3  C   UNL d   1      23.830 -17.867  -0.374  0.00  0.00     0.037 C 
ATOM      4  C   UNL d   1      23.746 -17.318  -1.648  0.00  0.00     0.032 C 
ATOM      5  C   UNL d   1      24.821 -16.656  -2.224  0.00  0.00     0.034 C 
ATOM      6  C   UNL d   1      26.043 -16.484  -1.564  0.00  0.00     0.057 C 
ENDROOT
BRANCH   1   7
ATOM      7  N   UNL d   1      27.382 -16.799   0.538  0.00  0.00    -0.306 N 
ATOM      8  C   UNL d   1      27.636 -15.503   0.975  0.00  0.00     0.325 C 
ATOM      9  N   UNL d   1      28.927 -15.197   1.407  0.00  0.00    -0.308 N 
ATOM     10  O   UNL d   1      26.693 -14.714   0.978  0.00  0.00    -0.247 OA
ATOM     11  H   UNL d   1      29.512 -15.973   1.693  0.00  0.00     0.170 HD
ATOM     12  H   UNL d   1      27.617 -17.531   1.194  0.00  0.00     0.170 HD
BRANCH   9  13
ATOM     13  C   UNL d   1      29.503 -13.857   1.589  0.00  0.00     0.043 A 
ATOM     14  C   UNL d   1      29.441 -12.944   0.511  0.00  0.00     0.054 A 
ATOM     15  C   UNL d   1      29.936 -11.622   0.636  0.00  0.00     0.036 A 
ATOM     16  C   UNL d   1      30.433 -11.140   1.838  0.00  0.00     0.024 A 
ATOM     17 CL   UNL d   1      29.954 -10.552  -0.717  0.00  0.00    -0.084 Cl
ATOM     18  C   UNL d   1      30.468 -11.993   2.914  0.00  0.00     0.011 A 
ATOM     19  C   UNL d   1      30.069 -13.340   2.790  0.00  0.00    -0.035 A 
ATOM     20  C   UNL d   1      30.324 -14.101   4.045  0.00  0.00     0.050 C 
ENDBRANCH   9  13
ENDBRANCH   1   7
BRANCH   6  21
ATOM     21  N   UNL d   1      27.035 -15.859  -2.295  0.00  0.00    -0.379 N 
ATOM     22  C   UNL d   1      26.829 -14.894  -3.355  0.00  0.00     0.123 C 
ATOM     23  C   UNL d   1      27.924 -15.214  -4.357  0.00  0.00     0.021 C 
ATOM     24  C   UNL d   1      29.083 -15.704  -3.483  0.00  0.00     0.021 C 
ATOM     25  C   UNL d   1      28.420 -16.335  -2.244  0.00  0.00     0.123 C 
ENDBRANCH   6  21
BRANCH   3  26
ATOM     26  N   UNL d   1      22.776 -18.705   0.118  0.00  0.00    -0.323 N 
ATOM     27  C   UNL d   1      21.422 -18.541  -0.214  0.00  0.00     0.256 C 
ATOM     28  O   UNL d   1      20.931 -17.652  -0.906  0.00  0.00    -0.267 OA
ATOM     29  H   UNL d   1      23.050 -19.562   0.582  0.00  0.00     0.169 HD
BRANCH  27  30
ATOM     30  C   UNL d   1      20.434 -19.517   0.307  0.00  0.00     0.032 A 
ATOM     31  C   UNL d   1      19.496 -20.075  -0.590  0.00  0.00     0.020 A 
ATOM     32  C   UNL d   1      18.392 -20.780  -0.109  0.00  0.00     0.043 A 
ATOM     33  C   UNL d   1      18.263 -20.975   1.259  0.00  0.00     0.116 A 
ATOM     34  F   UNL d   1      17.221 -21.674   1.730  0.00  0.00    -0.206 F 
ATOM     35  C   UNL d   1      19.195 -20.450   2.153  0.00  0.00     0.043 A 
ATOM     36  C   UNL d   1      20.281 -19.711   1.680  0.00  0.00     0.020 A 
ENDBRANCH  27  30
ENDBRANCH   3  26
TORSDOF 5
ENDMDL
MODEL 4
REMARK VINA RESULT:   -10.189      2.962      4.806
REMARK INTER + INTRA:         -13.304
REMARK INTER:                 -11.680
REMARK INTRA:                  -1.624
REMARK CONF_INDEPENDENT:        1.492
REMARK UNBOUND:                -1.624
REMARK  5 active torsions:
REMARK  status: ('A' for Active; 'I' for Inactive)
REMARK    1  A    between atoms: C_8  and  N_9 
REMARK       I    between atoms: N_9  and  C_10 
REMARK       I    between atoms: C_10  and  N_12 
REMARK    2  A    between atoms: N_12  and  C_13 
REMARK    3  A    between atoms: C_15  and  N_16 
REMARK       I    between atoms: N_16  and  C_17 
REMARK    4  A    between atoms: C_17  and  C_19 
REMARK    5  A    between atoms: C_28  and  N_29 
ROOT
ATOM      1  C   UNL d   1      26.252 -17.418  -0.596  0.00  0.00     0.065 C 
ATOM      2  C   UNL d   1      25.178 -18.084   0.079  0.00  0.00     0.061 C 
ATOM      3  C   UNL d   1      23.825 -17.816  -0.255  0.00  0.00     0.037 C 
ATOM      4  C   UNL d   1      23.573 -16.768  -1.131  0.00  0.00     0.032 C 
ATOM      5  C   UNL d   1      24.604 -16.080  -1.755  0.00  0.00     0.034 C 
ATOM      6  C   UNL d   1      25.953 -16.382  -1.537  0.00  0.00     0.057 C 
ENDROOT
BRANCH   1   7
ATOM      7  N   UNL d   1      27.644 -17.755  -0.286  0.00  0.00    -0.306 N 
ATOM      8  C   UNL d   1      28.418 -16.721   0.230  0.00  0.00     0.325 C 
ATOM      9  N   UNL d   1      29.805 -16.876   0.230  0.00  0.00    -0.308 N 
ATOM     10  O   UNL d   1      27.824 -15.742   0.680  0.00  0.00    -0.247 OA
ATOM     11  H   UNL d   1      30.161 -17.822   0.174  0.00  0.00     0.170 HD
ATOM     12  H   UNL d   1      27.804 -18.663   0.128  0.00  0.00     0.170 HD
BRANCH   9  13
ATOM     13  C   UNL d   1      30.812 -15.819   0.406  0.00  0.00     0.043 A 
ATOM     14  C   UNL d   1      31.966 -16.108   1.169  0.00  0.00     0.054 A 
ATOM     15  C   UNL d   1      32.996 -15.150   1.339  0.00  0.00     0.036 A 
ATOM     16  C   UNL d   1      32.955 -13.916   0.706  0.00  0.00     0.024 A 
ATOM     17 CL   UNL d   1      34.348 -15.474   2.360  0.00  0.00    -0.084 Cl
ATOM     18  C   UNL d   1      31.864 -13.623  -0.075  0.00  0.00     0.011 A 
ATOM     19  C   UNL d   1      30.783 -14.522  -0.184  0.00  0.00    -0.035 A 
ATOM     20  C   UNL d   1      29.662 -13.933  -0.967  0.00  0.00     0.050 C 
ENDBRANCH   9  13
ENDBRANCH   1   7
BRANCH   6  21
ATOM     21  N   UNL d   1      26.857 -15.650  -2.282  0.00  0.00    -0.379 N 
ATOM     22  C   UNL d   1      26.614 -14.354  -2.880  0.00  0.00     0.123 C 
ATOM     23  C   UNL d   1      27.367 -14.413  -4.197  0.00  0.00     0.021 C 
ATOM     24  C   UNL d   1      28.572 -15.306  -3.884  0.00  0.00     0.021 C 
ATOM     25  C   UNL d   1      28.095 -16.261  -2.774  0.00  0.00     0.123 C 
ENDBRANCH   6  21
BRANCH   3  26
ATOM     26  N   UNL d   1      22.744 -18.627   0.225  0.00  0.00    -0.323 N 
ATOM     27  C   UNL d   1      21.436 -18.573  -0.280  0.00  0.00     0.256 C 
ATOM     28  O   UNL d   1      21.006 -17.811  -1.144  0.00  0.00    -0.267 OA
ATOM     29  H   UNL d   1      22.986 -19.399   0.834  0.00  0.00     0.169 HD
BRANCH  27  30
ATOM     30  C   UNL d   1      20.422 -19.513   0.256  0.00  0.00     0.032 A 
ATOM     31  C   UNL d   1      19.451 -20.036  -0.627  0.00  0.00     0.020 A 
ATOM     32  C   UNL d   1      18.330 -20.701  -0.129  0.00  0.00     0.043 A 
ATOM     33  C   UNL d   1      18.215 -20.893   1.241  0.00  0.00     0.116 A 
ATOM     34  F   UNL d   1      17.156 -21.554   1.727  0.00  0.00    -0.206 F 
ATOM     35  C   UNL d   1      19.179 -20.403   2.120  0.00  0.00     0.043 A 
ATOM     36  C   UNL d   1      20.284 -19.703   1.630  0.00  0.00     0.020 A 
ENDBRANCH  27  30
ENDBRANCH   3  26
TORSDOF 5
ENDMDL
MODEL 5
REMARK VINA RESULT:   -10.160      2.827      5.058
REMARK INTER + INTRA:         -12.796
REMARK INTER:                 -11.652
REMARK INTRA:                  -1.144
REMARK CONF_INDEPENDENT:        1.492
REMARK UNBOUND:                -1.144
REMARK  5 active torsions:
REMARK  status: ('A' for Active; 'I' for Inactive)
REMARK    1  A    between atoms: C_8  and  N_9 
REMARK       I    between atoms: N_9  and  C_10 
REMARK       I    between atoms: C_10  and  N_12 
REMARK    2  A    between atoms: N_12  and  C_13 
REMARK    3  A    between atoms: C_15  and  N_16 
REMARK       I    between atoms: N_16  and  C_17 
REMARK    4  A    between atoms: C_17  and  C_19 
REMARK    5  A    between atoms: C_28  and  N_29 
ROOT
ATOM      1  C   UNL d   1      26.274 -16.900  -0.351  0.00  0.00     0.065 C 
ATOM      2  C   UNL d   1      25.193 -17.654   0.212  0.00  0.00     0.061 C 
ATOM      3  C   UNL d   1      23.863 -17.485  -0.254  0.00  0.00     0.037 C 
ATOM      4  C   UNL d   1      23.619 -16.450  -1.147  0.00  0.00     0.032 C 
ATOM      5  C   UNL d   1      24.651 -15.679  -1.664  0.00  0.00     0.034 C 
ATOM      6  C   UNL d   1      25.991 -15.880  -1.313  0.00  0.00     0.057 C 
ENDROOT
BRANCH   1   7
ATOM      7  N   UNL d   1      27.651 -17.134   0.095  0.00  0.00    -0.306 N 
ATOM      8  C   UNL d   1      28.572 -17.426  -0.905  0.00  0.00     0.325 C 
ATOM      9  N   UNL d   1      29.797 -17.978  -0.529  0.00  0.00    -0.308 N 
ATOM     10  O   UNL d   1      28.254 -17.153  -2.062  0.00  0.00    -0.247 OA
ATOM     11  H   UNL d   1      30.089 -17.835   0.430  0.00  0.00     0.170 HD
ATOM     12  H   UNL d   1      27.990 -16.533   0.834  0.00  0.00     0.170 HD
BRANCH   9  13
ATOM     13  C   UNL d   1      30.764 -18.660  -1.402  0.00  0.00     0.043 A 
ATOM     14  C   UNL d   1      30.788 -18.323  -2.774  0.00  0.00     0.054 A 
ATOM     15  C   UNL d   1      31.725 -18.910  -3.661  0.00  0.00     0.036 A 
ATOM     16  C   UNL d   1      32.707 -19.781  -3.212  0.00  0.00     0.024 A 
ATOM     17 CL   UNL d   1      31.675 -18.573  -5.351  0.00  0.00    -0.084 Cl
ATOM     18  C   UNL d   1      32.733 -20.095  -1.874  0.00  0.00     0.011 A 
ATOM     19  C   UNL d   1      31.754 -19.599  -0.989  0.00  0.00    -0.035 A 
ATOM     20  C   UNL d   1      31.905 -20.182   0.373  0.00  0.00     0.050 C 
ENDBRANCH   9  13
ENDBRANCH   1   7
BRANCH   6  21
ATOM     21  N   UNL d   1      26.906 -15.072  -1.962  0.00  0.00    -0.379 N 
ATOM     22  C   UNL d   1      27.784 -14.107  -1.333  0.00  0.00     0.123 C 
ATOM     23  C   UNL d   1      27.836 -12.961  -2.328  0.00  0.00     0.021 C 
ATOM     24  C   UNL d   1      27.707 -13.654  -3.687  0.00  0.00     0.021 C 
ATOM     25  C   UNL d   1      26.876 -14.924  -3.419  0.00  0.00     0.123 C 
ENDBRANCH   6  21
BRANCH   3  26
ATOM     26  N   UNL d   1      22.806 -18.382   0.113  0.00  0.00    -0.323 N 
ATOM     27  C   UNL d   1      21.495 -18.294  -0.379  0.00  0.00     0.256 C 
ATOM     28  O   UNL d   1      21.042 -17.435  -1.132  0.00  0.00    -0.267 OA
ATOM     29  H   UNL d   1      23.070 -19.222   0.613  0.00  0.00     0.169 HD
BRANCH  27  30
ATOM     30  C   UNL d   1      20.508 -19.324   0.026  0.00  0.00     0.032 A 
ATOM     31  C   UNL d   1      19.502 -19.697  -0.894  0.00  0.00     0.020 A 
ATOM     32  C   UNL d   1      18.405 -20.450  -0.474  0.00  0.00     0.043 A 
ATOM     33  C   UNL d   1      18.349 -20.878   0.845  0.00  0.00     0.116 A 
ATOM     34  F   UNL d   1      17.314 -21.625   1.253  0.00  0.00    -0.206 F 
ATOM     35  C   UNL d   1      19.348 -20.538   1.757  0.00  0.00     0.043 A 
ATOM     36  C   UNL d   1      20.428 -19.751   1.351  0.00  0.00     0.020 A 
ENDBRANCH  27  30
ENDBRANCH   3  26
TORSDOF 5
ENDMDL
MODEL 6
REMARK VINA RESULT:    -9.695      2.170      2.789
REMARK INTER + INTRA:         -12.655
REMARK INTER:                 -11.186
REMARK INTRA:                  -1.468
REMARK CONF_INDEPENDENT:        1.492
REMARK UNBOUND:                -1.468
REMARK  5 active torsions:
REMARK  status: ('A' for Active; 'I' for Inactive)
REMARK    1  A    between atoms: C_8  and  N_9 
REMARK       I    between atoms: N_9  and  C_10 
REMARK       I    between atoms: C_10  and  N_12 
REMARK    2  A    between atoms: N_12  and  C_13 
REMARK    3  A    between atoms: C_15  and  N_16 
REMARK       I    between atoms: N_16  and  C_17 
REMARK    4  A    between atoms: C_17  and  C_19 
REMARK    5  A    between atoms: C_28  and  N_29 
ROOT
ATOM      1  C   UNL d   1      25.898 -16.169  -2.165  0.00  0.00     0.065 C 
ATOM      2  C   UNL d   1      24.621 -16.745  -1.861  0.00  0.00     0.061 C 
ATOM      3  C   UNL d   1      24.424 -17.507  -0.680  0.00  0.00     0.037 C 
ATOM      4  C   UNL d   1      25.543 -17.819   0.080  0.00  0.00     0.032 C 
ATOM      5  C   UNL d   1      26.796 -17.309  -0.230  0.00  0.00     0.034 C 
ATOM      6  C   UNL d   1      27.018 -16.466  -1.325  0.00  0.00     0.057 C 
ENDROOT
BRANCH   1   7
ATOM      7  N   UNL d   1      26.068 -15.330  -3.355  0.00  0.00    -0.306 N 
ATOM      8  C   UNL d   1      26.381 -13.996  -3.117  0.00  0.00     0.325 C 
ATOM      9  N   UNL d   1      26.228 -13.089  -4.165  0.00  0.00    -0.308 N 
ATOM     10  O   UNL d   1      26.801 -13.706  -1.998  0.00  0.00    -0.247 OA
ATOM     11  H   UNL d   1      26.223 -13.469  -5.104  0.00  0.00     0.170 HD
ATOM     12  H   UNL d   1      26.546 -15.755  -4.137  0.00  0.00     0.170 HD
BRANCH   9  13
ATOM     13  C   UNL d   1      26.175 -11.623  -4.065  0.00  0.00     0.043 A 
ATOM     14  C   UNL d   1      26.449 -11.023  -2.814  0.00  0.00     0.054 A 
ATOM     15  C   UNL d   1      26.459  -9.615  -2.659  0.00  0.00     0.036 A 
ATOM     16  C   UNL d   1      26.276  -8.761  -3.738  0.00  0.00     0.024 A 
ATOM     17 CL   UNL d   1      26.687  -8.896  -1.108  0.00  0.00    -0.084 Cl
ATOM     18  C   UNL d   1      26.049  -9.317  -4.973  0.00  0.00     0.011 A 
ATOM     19  C   UNL d   1      25.940 -10.714  -5.136  0.00  0.00    -0.035 A 
ATOM     20  C   UNL d   1      25.557 -11.071  -6.530  0.00  0.00     0.050 C 
ENDBRANCH   9  13
ENDBRANCH   1   7
BRANCH   6  21
ATOM     21  N   UNL d   1      28.308 -15.992  -1.463  0.00  0.00    -0.379 N 
ATOM     22  C   UNL d   1      29.230 -16.332  -2.525  0.00  0.00     0.123 C 
ATOM     23  C   UNL d   1      30.580 -16.389  -1.832  0.00  0.00     0.021 C 
ATOM     24  C   UNL d   1      30.466 -15.333  -0.729  0.00  0.00     0.021 C 
ATOM     25  C   UNL d   1      28.970 -15.288  -0.361  0.00  0.00     0.123 C 
ENDBRANCH   6  21
BRANCH   3  26
ATOM     26  N   UNL d   1      23.118 -17.891  -0.229  0.00  0.00    -0.323 N 
ATOM     27  C   UNL d   1      22.277 -18.778  -0.920  0.00  0.00     0.256 C 
ATOM     28  O   UNL d   1      22.491 -19.304  -2.010  0.00  0.00    -0.267 OA
ATOM     29  H   UNL d   1      22.871 -17.647   0.722  0.00  0.00     0.169 HD
BRANCH  27  30
ATOM     30  C   UNL d   1      20.976 -19.149  -0.314  0.00  0.00     0.032 A 
ATOM     31  C   UNL d   1      20.913 -19.352   1.083  0.00  0.00     0.020 A 
ATOM     32  C   UNL d   1      19.795 -19.956   1.659  0.00  0.00     0.043 A 
ATOM     33  C   UNL d   1      18.722 -20.297   0.847  0.00  0.00     0.116 A 
ATOM     34  F   UNL d   1      17.632 -20.852   1.393  0.00  0.00    -0.206 F 
ATOM     35  C   UNL d   1      18.761 -20.078  -0.530  0.00  0.00     0.043 A 
ATOM     36  C   UNL d   1      19.894 -19.510  -1.116  0.00  0.00     0.020 A 
ENDBRANCH  27  30
ENDBRANCH   3  26
TORSDOF 5
ENDMDL
MODEL 7
REMARK VINA RESULT:    -9.426      4.722      9.476
REMARK INTER + INTRA:         -12.197
REMARK INTER:                 -10.917
REMARK INTRA:                  -1.280
REMARK CONF_INDEPENDENT:        1.492
REMARK UNBOUND:                -1.280
REMARK  5 active torsions:
REMARK  status: ('A' for Active; 'I' for Inactive)
REMARK    1  A    between atoms: C_8  and  N_9 
REMARK       I    between atoms: N_9  and  C_10 
REMARK       I    between atoms: C_10  and  N_12 
REMARK    2  A    between atoms: N_12  and  C_13 
REMARK    3  A    between atoms: C_15  and  N_16 
REMARK       I    between atoms: N_16  and  C_17 
REMARK    4  A    between atoms: C_17  and  C_19 
REMARK    5  A    between atoms: C_28  and  N_29 
ROOT
ATOM      1  C   UNL d   1      26.284 -13.419  -4.962  0.00  0.00     0.065 C 
ATOM      2  C   UNL d   1      27.048 -14.515  -5.481  0.00  0.00     0.061 C 
ATOM      3  C   UNL d   1      28.161 -14.293  -6.333  0.00  0.00     0.037 C 
ATOM      4  C   UNL d   1      28.380 -12.997  -6.784  0.00  0.00     0.032 C 
ATOM      5  C   UNL d   1      27.616 -11.932  -6.327  0.00  0.00     0.034 C 
ATOM      6  C   UNL d   1      26.576 -12.090  -5.404  0.00  0.00     0.057 C 
ENDROOT
BRANCH   1   7
ATOM      7  N   UNL d   1      25.178 -13.662  -4.031  0.00  0.00    -0.306 N 
ATOM      8  C   UNL d   1      25.456 -14.514  -2.968  0.00  0.00     0.325 C 
ATOM      9  N   UNL d   1      24.382 -15.043  -2.252  0.00  0.00    -0.308 N 
ATOM     10  O   UNL d   1      26.640 -14.726  -2.710  0.00  0.00    -0.247 OA
ATOM     11  H   UNL d   1      23.502 -14.546  -2.312  0.00  0.00     0.170 HD
ATOM     12  H   UNL d   1      24.598 -12.865  -3.807  0.00  0.00     0.170 HD
BRANCH   9  13
ATOM     13  C   UNL d   1      24.412 -16.191  -1.334  0.00  0.00     0.043 A 
ATOM     14  C   UNL d   1      23.277 -17.032  -1.270  0.00  0.00     0.054 A 
ATOM     15  C   UNL d   1      23.257 -18.181  -0.440  0.00  0.00     0.036 A 
ATOM     16  C   UNL d   1      24.372 -18.575   0.286  0.00  0.00     0.024 A 
ATOM     17 CL   UNL d   1      21.831 -19.138  -0.287  0.00  0.00    -0.084 Cl
ATOM     18  C   UNL d   1      25.503 -17.799   0.210  0.00  0.00     0.011 A 
ATOM     19  C   UNL d   1      25.516 -16.600  -0.533  0.00  0.00    -0.035 A 
ATOM     20  C   UNL d   1      26.799 -15.864  -0.355  0.00  0.00     0.050 C 
ENDBRANCH   9  13
ENDBRANCH   1   7
BRANCH   6  21
ATOM     21  N   UNL d   1      25.953 -10.924  -5.001  0.00  0.00    -0.379 N 
ATOM     22  C   UNL d   1      25.529  -9.844  -5.866  0.00  0.00     0.123 C 
ATOM     23  C   UNL d   1      25.799  -8.594  -5.047  0.00  0.00     0.021 C 
ATOM     24  C   UNL d   1      25.559  -9.047  -3.604  0.00  0.00     0.021 C 
ATOM     25  C   UNL d   1      25.908 -10.548  -3.585  0.00  0.00     0.123 C 
ENDBRANCH   6  21
BRANCH   3  26
ATOM     26  N   UNL d   1      29.081 -15.338  -6.675  0.00  0.00    -0.323 N 
ATOM     27  C   UNL d   1      29.534 -16.312  -5.771  0.00  0.00     0.256 C 
ATOM     28  O   UNL d   1      29.271 -16.391  -4.573  0.00  0.00    -0.267 OA
ATOM     29  H   UNL d   1      29.270 -15.480  -7.659  0.00  0.00     0.169 HD
BRANCH  27  30
ATOM     30  C   UNL d   1      30.435 -17.381  -6.264  0.00  0.00     0.032 A 
ATOM     31  C   UNL d   1      31.156 -17.161  -7.459  0.00  0.00     0.020 A 
ATOM     32  C   UNL d   1      31.799 -18.221  -8.100  0.00  0.00     0.043 A 
ATOM     33  C   UNL d   1      31.770 -19.479  -7.515  0.00  0.00     0.116 A 
ATOM     34  F   UNL d   1      32.407 -20.497  -8.108  0.00  0.00    -0.206 F 
ATOM     35  C   UNL d   1      31.083 -19.704  -6.323  0.00  0.00     0.043 A 
ATOM     36  C   UNL d   1      30.405 -18.655  -5.697  0.00  0.00     0.020 A 
ENDBRANCH  27  30
ENDBRANCH   3  26
TORSDOF 5
ENDMDL
MODEL 8
REMARK VINA RESULT:    -9.277      5.154     10.201
REMARK INTER + INTRA:         -12.290
REMARK INTER:                 -10.768
REMARK INTRA:                  -1.521
REMARK CONF_INDEPENDENT:        1.492
REMARK UNBOUND:                -1.521
REMARK  5 active torsions:
REMARK  status: ('A' for Active; 'I' for Inactive)
REMARK    1  A    between atoms: C_8  and  N_9 
REMARK       I    between atoms: N_9  and  C_10 
REMARK       I    between atoms: C_10  and  N_12 
REMARK    2  A    between atoms: N_12  and  C_13 
REMARK    3  A    between atoms: C_15  and  N_16 
REMARK       I    between atoms: N_16  and  C_17 
REMARK    4  A    between atoms: C_17  and  C_19 
REMARK    5  A    between atoms: C_28  and  N_29 
ROOT
ATOM      1  C   UNL d   1      27.130 -15.635  -1.325  0.00  0.00     0.065 C 
ATOM      2  C   UNL d   1      27.946 -15.024  -2.333  0.00  0.00     0.061 C 
ATOM      3  C   UNL d   1      27.427 -14.746  -3.624  0.00  0.00     0.037 C 
ATOM      4  C   UNL d   1      26.165 -15.239  -3.932  0.00  0.00     0.032 C 
ATOM      5  C   UNL d   1      25.383 -15.877  -2.980  0.00  0.00     0.034 C 
ATOM      6  C   UNL d   1      25.813 -16.078  -1.663  0.00  0.00     0.057 C 
ENDROOT
BRANCH   1   7
ATOM      7  N   UNL d   1      27.661 -15.855   0.024  0.00  0.00    -0.306 N 
ATOM      8  C   UNL d   1      27.276 -14.927   0.986  0.00  0.00     0.325 C 
ATOM      9  N   UNL d   1      27.995 -14.883   2.181  0.00  0.00    -0.308 N 
ATOM     10  O   UNL d   1      26.302 -14.220   0.730  0.00  0.00    -0.247 OA
ATOM     11  H   UNL d   1      28.523 -15.711   2.429  0.00  0.00     0.170 HD
ATOM     12  H   UNL d   1      27.700 -16.814   0.339  0.00  0.00     0.170 HD
BRANCH   9  13
ATOM     13  C   UNL d   1      27.991 -13.800   3.175  0.00  0.00     0.043 A 
ATOM     14  C   UNL d   1      27.718 -12.484   2.737  0.00  0.00     0.054 A 
ATOM     15  C   UNL d   1      27.654 -11.402   3.650  0.00  0.00     0.036 A 
ATOM     16  C   UNL d   1      27.781 -11.595   5.018  0.00  0.00     0.024 A 
ATOM     17 CL   UNL d   1      27.429  -9.786   3.093  0.00  0.00    -0.084 Cl
ATOM     18  C   UNL d   1      28.005 -12.870   5.476  0.00  0.00     0.011 A 
ATOM     19  C   UNL d   1      28.168 -13.948   4.581  0.00  0.00    -0.035 A 
ATOM     20  C   UNL d   1      28.537 -15.200   5.298  0.00  0.00     0.050 C 
ENDBRANCH   9  13
ENDBRANCH   1   7
BRANCH   6  21
ATOM     21  N   UNL d   1      24.893 -16.671  -0.819  0.00  0.00    -0.379 N 
ATOM     22  C   UNL d   1      25.128 -17.835   0.011  0.00  0.00     0.123 C 
ATOM     23  C   UNL d   1      23.810 -18.587  -0.036  0.00  0.00     0.021 C 
ATOM     24  C   UNL d   1      22.763 -17.476  -0.154  0.00  0.00     0.021 C 
ATOM     25  C   UNL d   1      23.471 -16.325  -0.895  0.00  0.00     0.123 C 
ENDBRANCH   6  21
BRANCH   3  26
ATOM     26  N   UNL d   1      28.130 -13.929  -4.570  0.00  0.00    -0.323 N 
ATOM     27  C   UNL d   1      28.218 -14.213  -5.941  0.00  0.00     0.256 C 
ATOM     28  O   UNL d   1      27.773 -15.200  -6.524  0.00  0.00    -0.267 OA
ATOM     29  H   UNL d   1      28.422 -13.012  -4.256  0.00  0.00     0.169 HD
BRANCH  27  30
ATOM     30  C   UNL d   1      28.918 -13.252  -6.828  0.00  0.00     0.032 A 
ATOM     31  C   UNL d   1      28.150 -12.296  -7.530  0.00  0.00     0.020 A 
ATOM     32  C   UNL d   1      28.721 -11.557  -8.567  0.00  0.00     0.043 A 
ATOM     33  C   UNL d   1      30.067 -11.732  -8.856  0.00  0.00     0.116 A 
ATOM     34  F   UNL d   1      30.631 -11.008  -9.832  0.00  0.00    -0.206 F 
ATOM     35  C   UNL d   1      30.841 -12.654  -8.154  0.00  0.00     0.043 A 
ATOM     36  C   UNL d   1      30.266 -13.425  -7.141  0.00  0.00     0.020 A 
ENDBRANCH  27  30
ENDBRANCH   3  26
TORSDOF 5
ENDMDL
MODEL 9
REMARK VINA RESULT:    -9.270      2.971      5.044
REMARK INTER + INTRA:         -12.403
REMARK INTER:                 -10.762
REMARK INTRA:                  -1.641
REMARK CONF_INDEPENDENT:        1.492
REMARK UNBOUND:                -1.641
REMARK  5 active torsions:
REMARK  status: ('A' for Active; 'I' for Inactive)
REMARK    1  A    between atoms: C_8  and  N_9 
REMARK       I    between atoms: N_9  and  C_10 
REMARK       I    between atoms: C_10  and  N_12 
REMARK    2  A    between atoms: N_12  and  C_13 
REMARK    3  A    between atoms: C_15  and  N_16 
REMARK       I    between atoms: N_16  and  C_17 
REMARK    4  A    between atoms: C_17  and  C_19 
REMARK    5  A    between atoms: C_28  and  N_29 
ROOT
ATOM      1  C   UNL d   1      26.626 -16.947  -0.758  0.00  0.00     0.065 C 
ATOM      2  C   UNL d   1      25.393 -17.304  -0.120  0.00  0.00     0.061 C 
ATOM      3  C   UNL d   1      24.144 -16.951  -0.693  0.00  0.00     0.037 C 
ATOM      4  C   UNL d   1      24.155 -16.105  -1.794  0.00  0.00     0.032 C 
ATOM      5  C   UNL d   1      25.343 -15.711  -2.394  0.00  0.00     0.034 C 
ATOM      6  C   UNL d   1      26.597 -16.122  -1.926  0.00  0.00     0.057 C 
ENDROOT
BRANCH   1   7
ATOM      7  N   UNL d   1      27.906 -17.376  -0.188  0.00  0.00    -0.306 N 
ATOM      8  C   UNL d   1      28.767 -16.358   0.206  0.00  0.00     0.325 C 
ATOM      9  N   UNL d   1      30.104 -16.681   0.437  0.00  0.00    -0.308 N 
ATOM     10  O   UNL d   1      28.284 -15.236   0.352  0.00  0.00    -0.247 OA
ATOM     11  H   UNL d   1      30.315 -17.652   0.631  0.00  0.00     0.170 HD
ATOM     12  H   UNL d   1      27.877 -18.180   0.424  0.00  0.00     0.170 HD
BRANCH   9  13
ATOM     13  C   UNL d   1      31.236 -15.746   0.531  0.00  0.00     0.043 A 
ATOM     14  C   UNL d   1      32.251 -15.816  -0.450  0.00  0.00     0.054 A 
ATOM     15  C   UNL d   1      33.345 -14.916  -0.444  0.00  0.00     0.036 A 
ATOM     16  C   UNL d   1      33.431 -13.880   0.475  0.00  0.00     0.024 A 
ATOM     17 CL   UNL d   1      34.633 -15.079  -1.579  0.00  0.00    -0.084 Cl
ATOM     18  C   UNL d   1      32.436 -13.762   1.415  0.00  0.00     0.011 A 
ATOM     19  C   UNL d   1      31.388 -14.702   1.488  0.00  0.00    -0.035 A 
ATOM     20  C   UNL d   1      30.511 -14.449   2.666  0.00  0.00     0.050 C 
ENDBRANCH   9  13
ENDBRANCH   1   7
BRANCH   6  21
ATOM     21  N   UNL d   1      27.680 -15.695  -2.670  0.00  0.00    -0.379 N 
ATOM     22  C   UNL d   1      27.699 -14.564  -3.574  0.00  0.00     0.123 C 
ATOM     23  C   UNL d   1      28.592 -15.023  -4.713  0.00  0.00     0.021 C 
ATOM     24  C   UNL d   1      29.610 -15.941  -4.029  0.00  0.00     0.021 C 
ATOM     25  C   UNL d   1      28.869 -16.541  -2.818  0.00  0.00     0.123 C 
ENDBRANCH   6  21
BRANCH   3  26
ATOM     26  N   UNL d   1      22.905 -17.491  -0.214  0.00  0.00    -0.323 N 
ATOM     27  C   UNL d   1      22.157 -18.465  -0.894  0.00  0.00     0.256 C 
ATOM     28  O   UNL d   1      22.404 -18.954  -1.995  0.00  0.00    -0.267 OA
ATOM     29  H   UNL d   1      22.655 -17.286   0.745  0.00  0.00     0.169 HD
BRANCH  27  30
ATOM     30  C   UNL d   1      20.924 -18.993  -0.261  0.00  0.00     0.032 A 
ATOM     31  C   UNL d   1      20.958 -19.325   1.112  0.00  0.00     0.020 A 
ATOM     32  C   UNL d   1      19.923 -20.066   1.684  0.00  0.00     0.043 A 
ATOM     33  C   UNL d   1      18.834 -20.419   0.899  0.00  0.00     0.116 A 
ATOM     34  F   UNL d   1      17.823 -21.107   1.445  0.00  0.00    -0.206 F 
ATOM     35  C   UNL d   1      18.778 -20.076  -0.451  0.00  0.00     0.043 A 
ATOM     36  C   UNL d   1      19.829 -19.367  -1.038  0.00  0.00     0.020 A 
ENDBRANCH  27  30
ENDBRANCH   3  26
TORSDOF 5
ENDMDL
