MODEL 1
REMARK VINA RESULT:    -8.660      0.000      0.000
REMARK INTER + INTRA:         -14.630
REMARK INTER:                 -11.344
REMARK INTRA:                  -3.285
REMARK CONF_INDEPENDENT:        2.685
REMARK UNBOUND:                -3.285
REMARK  9 active torsions:
REMARK  status: ('A' for Active; 'I' for Inactive)
REMARK    1  A    between atoms: C_2  and  C_3 
REMARK       I    between atoms: C_2  and  N_30 
REMARK    2  A    between atoms: C_3  and  S_4 
REMARK    3  A    between atoms: S_4  and  C_5 
REMARK    4  A    between atoms: N_15  and  N_16 
REMARK       I    between atoms: N_16  and  C_17 
REMARK    5  A    between atoms: C_17  and  C_19 
REMARK    6  A    between atoms: C_19  and  C_20 
REMARK    7  A    between atoms: C_20  and  C_21 
REMARK    8  A    between atoms: N_30  and  C_31 
REMARK    9  A    between atoms: C_31  and  C_32 
ROOT
ATOM      1  C   UNL d   1      26.200 -15.420  -0.247  0.00  0.00     0.274 C 
ATOM      2  N   UNL d   1      25.022 -15.605  -1.067  0.00  0.00    -0.358 N 
ATOM      3  C   UNL d   1      24.164 -16.643  -0.699  0.00  0.00     0.046 A 
ATOM      4  C   UNL d   1      22.837 -16.697  -1.130  0.00  0.00     0.030 A 
ATOM      5  C   UNL d   1      22.046 -17.834  -0.889  0.00  0.00     0.002 A 
ATOM      6  C   UNL d   1      22.574 -18.950  -0.243  0.00  0.00     0.001 A 
ATOM      7  C   UNL d   1      23.879 -18.904   0.214  0.00  0.00     0.019 A 
ATOM      8  C   UNL d   1      24.645 -17.751   0.001  0.00  0.00     0.060 A 
ATOM      9  C   UNL d   1      26.018 -17.724   0.506  0.00  0.00     0.277 C 
ATOM     10  O   UNL d   1      26.317 -18.581   1.337  0.00  0.00    -0.266 OA
ATOM     11  N   UNL d   1      26.840 -16.718  -0.018  0.00  0.00    -0.221 N 
ATOM     12  H   UNL d   1      24.603 -14.764  -1.442  0.00  0.00     0.162 HD
ENDROOT
BRANCH  11  13
ATOM     13  N   UNL d   1      28.243 -16.704   0.352  0.00  0.00    -0.262 N 
ATOM     14  C   UNL d   1      29.190 -16.654  -0.663  0.00  0.00     0.236 C 
ATOM     15  O   UNL d   1      28.977 -16.772  -1.867  0.00  0.00    -0.272 OA
ATOM     16  H   UNL d   1      28.435 -16.232   1.235  0.00  0.00     0.190 HD
BRANCH  14  17
ATOM     17  C   UNL d   1      30.599 -16.347  -0.233  0.00  0.00     0.109 C 
BRANCH  17  18
ATOM     18  C   UNL d   1      30.588 -14.897   0.273  0.00  0.00     0.046 C 
BRANCH  18  19
ATOM     19  C   UNL d   1      30.531 -14.731   1.742  0.00  0.00    -0.050 A 
ATOM     20  C   UNL d   1      29.446 -14.351   2.420  0.00  0.00    -0.006 A 
ATOM     21  C   UNL d   1      28.126 -13.978   2.037  0.00  0.00     0.014 A 
ATOM     22  C   UNL d   1      29.853 -14.418   3.830  0.00  0.00     0.038 A 
ATOM     23  C   UNL d   1      27.249 -13.673   3.004  0.00  0.00     0.001 A 
ATOM     24  C   UNL d   1      27.621 -13.727   4.412  0.00  0.00     0.002 A 
ATOM     25  C   UNL d   1      28.847 -14.077   4.849  0.00  0.00     0.030 A 
ATOM     26  N   UNL d   1      31.070 -14.791   3.966  0.00  0.00    -0.385 N 
ATOM     27  C   UNL d   1      31.675 -15.043   2.648  0.00  0.00     0.155 A 
ATOM     28  H   UNL d   1      31.529 -14.901   4.866  0.00  0.00     0.160 HD
ENDBRANCH  18  19
ENDBRANCH  17  18
ENDBRANCH  14  17
ENDBRANCH  11  13
BRANCH   1  29
ATOM     29  S   UNL d   1      27.282 -14.175  -1.005  0.00  0.00    -0.112 SA
BRANCH  29  30
ATOM     30  C   UNL d   1      26.137 -13.318  -2.150  0.00  0.00     0.180 C 
BRANCH  30  31
ATOM     31  C   UNL d   1      25.734 -14.254  -3.297  0.00  0.00     0.227 C 
ATOM     32  O   UNL d   1      24.575 -14.444  -3.665  0.00  0.00    -0.273 OA
ATOM     33  N   UNL d   1      26.725 -14.918  -3.970  0.00  0.00    -0.358 N 
ATOM     34  H   UNL d   1      26.375 -15.500  -4.725  0.00  0.00     0.162 HD
BRANCH  33  35
ATOM     35  C   UNL d   1      28.158 -14.785  -3.776  0.00  0.00     0.154 C 
BRANCH  35  36
ATOM     36  C   UNL d   1      28.973 -15.058  -5.048  0.00  0.00     0.139 C 
ATOM     37  C   UNL d   1      29.936 -13.934  -5.396  0.00  0.00     0.035 C 
ATOM     38  C   UNL d   1      29.995 -13.999  -6.902  0.00  0.00     0.029 C 
ATOM     39  C   UNL d   1      28.601 -14.451  -7.277  0.00  0.00     0.168 C 
ATOM     40  O   UNL d   1      28.081 -15.200  -6.170  0.00  0.00    -0.384 OA
ENDBRANCH  35  36
ENDBRANCH  33  35
ENDBRANCH  30  31
ENDBRANCH  29  30
ENDBRANCH   1  29
TORSDOF 9
ENDMDL
MODEL 2
REMARK VINA RESULT:    -8.598      1.924      2.642
REMARK INTER + INTRA:         -14.831
REMARK INTER:                 -11.282
REMARK INTRA:                  -3.549
REMARK CONF_INDEPENDENT:        2.685
REMARK UNBOUND:                -3.549
REMARK  9 active torsions:
REMARK  status: ('A' for Active; 'I' for Inactive)
REMARK    1  A    between atoms: C_2  and  C_3 
REMARK       I    between atoms: C_2  and  N_30 
REMARK    2  A    between atoms: C_3  and  S_4 
REMARK    3  A    between atoms: S_4  and  C_5 
REMARK    4  A    between atoms: N_15  and  N_16 
REMARK       I    between atoms: N_16  and  C_17 
REMARK    5  A    between atoms: C_17  and  C_19 
REMARK    6  A    between atoms: C_19  and  C_20 
REMARK    7  A    between atoms: C_20  and  C_21 
REMARK    8  A    between atoms: N_30  and  C_31 
REMARK    9  A    between atoms: C_31  and  C_32 
ROOT
ATOM      1  C   UNL d   1      26.012 -15.370  -0.499  0.00  0.00     0.274 C 
ATOM      2  N   UNL d   1      24.797 -15.609  -1.249  0.00  0.00    -0.358 N 
ATOM      3  C   UNL d   1      24.008 -16.681  -0.830  0.00  0.00     0.046 A 
ATOM      4  C   UNL d   1      22.662 -16.796  -1.183  0.00  0.00     0.030 A 
ATOM      5  C   UNL d   1      21.936 -17.965  -0.895  0.00  0.00     0.002 A 
ATOM      6  C   UNL d   1      22.550 -19.055  -0.281  0.00  0.00     0.001 A 
ATOM      7  C   UNL d   1      23.876 -18.950   0.099  0.00  0.00     0.019 A 
ATOM      8  C   UNL d   1      24.578 -17.766  -0.159  0.00  0.00     0.060 A 
ATOM      9  C   UNL d   1      25.975 -17.677   0.264  0.00  0.00     0.277 C 
ATOM     10  O   UNL d   1      26.359 -18.518   1.077  0.00  0.00    -0.266 OA
ATOM     11  N   UNL d   1      26.720 -16.637  -0.308  0.00  0.00    -0.221 N 
ATOM     12  H   UNL d   1      24.320 -14.787  -1.599  0.00  0.00     0.162 HD
ENDROOT
BRANCH  11  13
ATOM     13  N   UNL d   1      28.140 -16.561  -0.021  0.00  0.00    -0.262 N 
ATOM     14  C   UNL d   1      29.022 -16.449  -1.089  0.00  0.00     0.236 C 
ATOM     15  O   UNL d   1      28.743 -16.558  -2.280  0.00  0.00    -0.272 OA
ATOM     16  H   UNL d   1      28.362 -16.094   0.858  0.00  0.00     0.190 HD
BRANCH  14  17
ATOM     17  C   UNL d   1      30.438 -16.081  -0.736  0.00  0.00     0.109 C 
BRANCH  17  18
ATOM     18  C   UNL d   1      30.377 -14.671  -0.129  0.00  0.00     0.046 C 
BRANCH  18  19
ATOM     19  C   UNL d   1      30.445 -14.606   1.347  0.00  0.00    -0.050 A 
ATOM     20  C   UNL d   1      29.418 -14.293   2.140  0.00  0.00    -0.006 A 
ATOM     21  C   UNL d   1      28.064 -13.922   1.897  0.00  0.00     0.014 A 
ATOM     22  C   UNL d   1      29.946 -14.447   3.502  0.00  0.00     0.038 A 
ATOM     23  C   UNL d   1      27.271 -13.700   2.955  0.00  0.00     0.001 A 
ATOM     24  C   UNL d   1      27.764 -13.842   4.319  0.00  0.00     0.002 A 
ATOM     25  C   UNL d   1      29.028 -14.195   4.624  0.00  0.00     0.030 A 
ATOM     26  N   UNL d   1      31.176 -14.804   3.508  0.00  0.00    -0.385 N 
ATOM     27  C   UNL d   1      31.668 -14.955   2.129  0.00  0.00     0.155 A 
ATOM     28  H   UNL d   1      31.712 -14.966   4.355  0.00  0.00     0.160 HD
ENDBRANCH  18  19
ENDBRANCH  17  18
ENDBRANCH  14  17
ENDBRANCH  11  13
BRANCH   1  29
ATOM     29  S   UNL d   1      26.992 -14.081  -1.320  0.00  0.00    -0.112 SA
BRANCH  29  30
ATOM     30  C   UNL d   1      26.683 -14.434  -3.092  0.00  0.00     0.180 C 
BRANCH  30  31
ATOM     31  C   UNL d   1      25.462 -13.646  -3.584  0.00  0.00     0.227 C 
ATOM     32  O   UNL d   1      24.322 -14.106  -3.656  0.00  0.00    -0.273 OA
ATOM     33  N   UNL d   1      25.640 -12.342  -3.959  0.00  0.00    -0.358 N 
ATOM     34  H   UNL d   1      24.780 -11.889  -4.254  0.00  0.00     0.162 HD
BRANCH  33  35
ATOM     35  C   UNL d   1      26.864 -11.565  -3.876  0.00  0.00     0.154 C 
BRANCH  35  36
ATOM     36  C   UNL d   1      26.673 -10.086  -4.243  0.00  0.00     0.139 C 
ATOM     37  C   UNL d   1      26.429  -9.195  -3.035  0.00  0.00     0.035 C 
ATOM     38  C   UNL d   1      25.546  -8.108  -3.594  0.00  0.00     0.029 C 
ATOM     39  C   UNL d   1      24.737  -8.835  -4.646  0.00  0.00     0.168 C 
ATOM     40  O   UNL d   1      25.523  -9.947  -5.097  0.00  0.00    -0.384 OA
ENDBRANCH  35  36
ENDBRANCH  33  35
ENDBRANCH  30  31
ENDBRANCH  29  30
ENDBRANCH   1  29
TORSDOF 9
ENDMDL
MODEL 3
REMARK VINA RESULT:    -8.480      2.819      7.117
REMARK INTER + INTRA:         -14.442
REMARK INTER:                 -11.165
REMARK INTRA:                  -3.277
REMARK CONF_INDEPENDENT:        2.685
REMARK UNBOUND:                -3.277
REMARK  9 active torsions:
REMARK  status: ('A' for Active; 'I' for Inactive)
REMARK    1  A    between atoms: C_2  and  C_3 
REMARK       I    between atoms: C_2  and  N_30 
REMARK    2  A    between atoms: C_3  and  S_4 
REMARK    3  A    between atoms: S_4  and  C_5 
REMARK    4  A    between atoms: N_15  and  N_16 
REMARK       I    between atoms: N_16  and  C_17 
REMARK    5  A    between atoms: C_17  and  C_19 
REMARK    6  A    between atoms: C_19  and  C_20 
REMARK    7  A    between atoms: C_20  and  C_21 
REMARK    8  A    between atoms: N_30  and  C_31 
REMARK    9  A    between atoms: C_31  and  C_32 
ROOT
ATOM      1  C   UNL d   1      26.663 -15.533  -0.152  0.00  0.00     0.274 C 
ATOM      2  N   UNL d   1      25.404 -15.468  -0.863  0.00  0.00    -0.358 N 
ATOM      3  C   UNL d   1      24.497 -16.500  -0.619  0.00  0.00     0.046 A 
ATOM      4  C   UNL d   1      23.137 -16.378  -0.909  0.00  0.00     0.030 A 
ATOM      5  C   UNL d   1      22.276 -17.486  -0.815  0.00  0.00     0.002 A 
ATOM      6  C   UNL d   1      22.763 -18.742  -0.461  0.00  0.00     0.001 A 
ATOM      7  C   UNL d   1      24.103 -18.877  -0.145  0.00  0.00     0.019 A 
ATOM      8  C   UNL d   1      24.943 -17.758  -0.206  0.00  0.00     0.060 A 
ATOM      9  C   UNL d   1      26.353 -17.925   0.146  0.00  0.00     0.277 C 
ATOM     10  O   UNL d   1      26.651 -18.952   0.755  0.00  0.00    -0.266 OA
ATOM     11  N   UNL d   1      27.207 -16.889  -0.253  0.00  0.00    -0.221 N 
ATOM     12  H   UNL d   1      25.027 -14.542  -1.018  0.00  0.00     0.162 HD
ENDROOT
BRANCH  11  13
ATOM     13  N   UNL d   1      28.634 -17.044  -0.038  0.00  0.00    -0.262 N 
ATOM     14  C   UNL d   1      29.479 -16.944  -1.136  0.00  0.00     0.236 C 
ATOM     15  O   UNL d   1      29.140 -16.884  -2.315  0.00  0.00    -0.272 OA
ATOM     16  H   UNL d   1      28.956 -16.709   0.869  0.00  0.00     0.190 HD
BRANCH  14  17
ATOM     17  C   UNL d   1      30.947 -16.817  -0.827  0.00  0.00     0.109 C 
BRANCH  17  18
ATOM     18  C   UNL d   1      31.690 -17.133  -2.134  0.00  0.00     0.046 C 
BRANCH  18  19
ATOM     19  C   UNL d   1      31.468 -18.488  -2.685  0.00  0.00    -0.050 A 
ATOM     20  C   UNL d   1      31.123 -18.746  -3.948  0.00  0.00    -0.006 A 
ATOM     21  C   UNL d   1      30.842 -17.926  -5.079  0.00  0.00     0.014 A 
ATOM     22  C   UNL d   1      31.109 -20.212  -4.033  0.00  0.00     0.038 A 
ATOM     23  C   UNL d   1      30.548 -18.529  -6.239  0.00  0.00     0.001 A 
ATOM     24  C   UNL d   1      30.524 -19.981  -6.357  0.00  0.00     0.002 A 
ATOM     25  C   UNL d   1      30.784 -20.819  -5.334  0.00  0.00     0.030 A 
ATOM     26  N   UNL d   1      31.406 -20.765  -2.917  0.00  0.00    -0.385 N 
ATOM     27  C   UNL d   1      31.676 -19.739  -1.897  0.00  0.00     0.155 A 
ATOM     28  H   UNL d   1      31.452 -21.771  -2.780  0.00  0.00     0.160 HD
ENDBRANCH  18  19
ENDBRANCH  17  18
ENDBRANCH  14  17
ENDBRANCH  11  13
BRANCH   1  29
ATOM     29  S   UNL d   1      27.775 -14.233  -0.760  0.00  0.00    -0.112 SA
BRANCH  29  30
ATOM     30  C   UNL d   1      28.266 -13.392   0.793  0.00  0.00     0.180 C 
BRANCH  30  31
ATOM     31  C   UNL d   1      29.041 -14.359   1.698  0.00  0.00     0.227 C 
ATOM     32  O   UNL d   1      30.079 -14.933   1.373  0.00  0.00    -0.273 OA
ATOM     33  N   UNL d   1      28.558 -14.595   2.958  0.00  0.00    -0.358 N 
ATOM     34  H   UNL d   1      29.139 -15.230   3.496  0.00  0.00     0.162 HD
BRANCH  33  35
ATOM     35  C   UNL d   1      27.410 -13.968   3.589  0.00  0.00     0.154 C 
BRANCH  35  36
ATOM     36  C   UNL d   1      27.443 -14.041   5.122  0.00  0.00     0.139 C 
ATOM     37  C   UNL d   1      27.822 -12.722   5.777  0.00  0.00     0.035 C 
ATOM     38  C   UNL d   1      28.530 -13.164   7.033  0.00  0.00     0.029 C 
ATOM     39  C   UNL d   1      29.203 -14.450   6.608  0.00  0.00     0.168 C 
ATOM     40  O   UNL d   1      28.428 -15.005   5.537  0.00  0.00    -0.384 OA
ENDBRANCH  35  36
ENDBRANCH  33  35
ENDBRANCH  30  31
ENDBRANCH  29  30
ENDBRANCH   1  29
TORSDOF 9
ENDMDL
MODEL 4
REMARK VINA RESULT:    -8.188      2.851      7.477
REMARK INTER + INTRA:         -14.718
REMARK INTER:                 -10.873
REMARK INTRA:                  -3.845
REMARK CONF_INDEPENDENT:        2.685
REMARK UNBOUND:                -3.845
REMARK  9 active torsions:
REMARK  status: ('A' for Active; 'I' for Inactive)
REMARK    1  A    between atoms: C_2  and  C_3 
REMARK       I    between atoms: C_2  and  N_30 
REMARK    2  A    between atoms: C_3  and  S_4 
REMARK    3  A    between atoms: S_4  and  C_5 
REMARK    4  A    between atoms: N_15  and  N_16 
REMARK       I    between atoms: N_16  and  C_17 
REMARK    5  A    between atoms: C_17  and  C_19 
REMARK    6  A    between atoms: C_19  and  C_20 
REMARK    7  A    between atoms: C_20  and  C_21 
REMARK    8  A    between atoms: N_30  and  C_31 
REMARK    9  A    between atoms: C_31  and  C_32 
ROOT
ATOM      1  C   UNL d   1      28.250 -14.066   2.120  0.00  0.00     0.274 C 
ATOM      2  N   UNL d   1      28.999 -14.495   3.282  0.00  0.00    -0.358 N 
ATOM      3  C   UNL d   1      28.653 -13.904   4.498  0.00  0.00     0.046 A 
ATOM      4  C   UNL d   1      28.993 -14.475   5.725  0.00  0.00     0.030 A 
ATOM      5  C   UNL d   1      28.786 -13.778   6.929  0.00  0.00     0.002 A 
ATOM      6  C   UNL d   1      28.266 -12.485   6.927  0.00  0.00     0.001 A 
ATOM      7  C   UNL d   1      27.898 -11.914   5.722  0.00  0.00     0.019 A 
ATOM      8  C   UNL d   1      28.074 -12.633   4.533  0.00  0.00     0.060 A 
ATOM      9  C   UNL d   1      27.665 -12.010   3.275  0.00  0.00     0.277 C 
ATOM     10  O   UNL d   1      26.925 -11.030   3.360  0.00  0.00    -0.266 OA
ATOM     11  N   UNL d   1      28.167 -12.605   2.110  0.00  0.00    -0.221 N 
ATOM     12  H   UNL d   1      29.278 -15.468   3.299  0.00  0.00     0.162 HD
ENDROOT
BRANCH  11  13
ATOM     13  N   UNL d   1      27.895 -11.969   0.833  0.00  0.00    -0.262 N 
ATOM     14  C   UNL d   1      28.658 -10.865   0.472  0.00  0.00     0.236 C 
ATOM     15  O   UNL d   1      29.453 -10.263   1.188  0.00  0.00    -0.272 OA
ATOM     16  H   UNL d   1      27.577 -12.612   0.109  0.00  0.00     0.190 HD
BRANCH  14  17
ATOM     17  C   UNL d   1      28.544 -10.429  -0.963  0.00  0.00     0.109 C 
BRANCH  17  18
ATOM     18  C   UNL d   1      28.660 -11.704  -1.811  0.00  0.00     0.046 C 
BRANCH  18  19
ATOM     19  C   UNL d   1      27.492 -12.014  -2.666  0.00  0.00    -0.050 A 
ATOM     20  C   UNL d   1      27.175 -13.234  -3.102  0.00  0.00    -0.006 A 
ATOM     21  C   UNL d   1      27.777 -14.518  -2.960  0.00  0.00     0.014 A 
ATOM     22  C   UNL d   1      25.910 -13.048  -3.825  0.00  0.00     0.038 A 
ATOM     23  C   UNL d   1      27.160 -15.570  -3.518  0.00  0.00     0.001 A 
ATOM     24  C   UNL d   1      25.905 -15.419  -4.244  0.00  0.00     0.002 A 
ATOM     25  C   UNL d   1      25.277 -14.239  -4.413  0.00  0.00     0.030 A 
ATOM     26  N   UNL d   1      25.527 -11.827  -3.824  0.00  0.00    -0.385 N 
ATOM     27  C   UNL d   1      26.487 -10.993  -3.083  0.00  0.00     0.155 A 
ATOM     28  H   UNL d   1      24.673 -11.503  -4.269  0.00  0.00     0.160 HD
ENDBRANCH  18  19
ENDBRANCH  17  18
ENDBRANCH  14  17
ENDBRANCH  11  13
BRANCH   1  29
ATOM     29  S   UNL d   1      28.984 -14.785   0.623  0.00  0.00    -0.112 SA
BRANCH  29  30
ATOM     30  C   UNL d   1      27.705 -15.993   0.110  0.00  0.00     0.180 C 
BRANCH  30  31
ATOM     31  C   UNL d   1      26.383 -15.271  -0.188  0.00  0.00     0.227 C 
ATOM     32  O   UNL d   1      26.270 -14.052  -0.306  0.00  0.00    -0.273 OA
ATOM     33  N   UNL d   1      25.253 -16.028  -0.346  0.00  0.00    -0.358 N 
ATOM     34  H   UNL d   1      24.429 -15.475  -0.559  0.00  0.00     0.162 HD
BRANCH  33  35
ATOM     35  C   UNL d   1      25.160 -17.477  -0.340  0.00  0.00     0.154 C 
BRANCH  35  36
ATOM     36  C   UNL d   1      23.784 -17.997   0.100  0.00  0.00     0.139 C 
ATOM     37  C   UNL d   1      23.422 -19.337  -0.521  0.00  0.00     0.035 C 
ATOM     38  C   UNL d   1      21.920 -19.261  -0.627  0.00  0.00     0.029 C 
ATOM     39  C   UNL d   1      21.671 -17.791  -0.884  0.00  0.00     0.168 C 
ATOM     40  O   UNL d   1      22.765 -17.065  -0.307  0.00  0.00    -0.384 OA
ENDBRANCH  35  36
ENDBRANCH  33  35
ENDBRANCH  30  31
ENDBRANCH  29  30
ENDBRANCH   1  29
TORSDOF 9
ENDMDL
MODEL 5
REMARK VINA RESULT:    -8.177      2.344      4.862
REMARK INTER + INTRA:         -14.511
REMARK INTER:                 -10.861
REMARK INTRA:                  -3.650
REMARK CONF_INDEPENDENT:        2.685
REMARK UNBOUND:                -3.650
REMARK  9 active torsions:
REMARK  status: ('A' for Active; 'I' for Inactive)
REMARK    1  A    between atoms: C_2  and  C_3 
REMARK       I    between atoms: C_2  and  N_30 
REMARK    2  A    between atoms: C_3  and  S_4 
REMARK    3  A    between atoms: S_4  and  C_5 
REMARK    4  A    between atoms: N_15  and  N_16 
REMARK       I    between atoms: N_16  and  C_17 
REMARK    5  A    between atoms: C_17  and  C_19 
REMARK    6  A    between atoms: C_19  and  C_20 
REMARK    7  A    between atoms: C_20  and  C_21 
REMARK    8  A    between atoms: N_30  and  C_31 
REMARK    9  A    between atoms: C_31  and  C_32 
ROOT
ATOM      1  C   UNL d   1      26.464 -15.588  -0.239  0.00  0.00     0.274 C 
ATOM      2  N   UNL d   1      25.200 -15.575  -0.945  0.00  0.00    -0.358 N 
ATOM      3  C   UNL d   1      24.305 -16.600  -0.637  0.00  0.00     0.046 A 
ATOM      4  C   UNL d   1      22.942 -16.507  -0.924  0.00  0.00     0.030 A 
ATOM      5  C   UNL d   1      22.092 -17.616  -0.763  0.00  0.00     0.002 A 
ATOM      6  C   UNL d   1      22.594 -18.846  -0.343  0.00  0.00     0.001 A 
ATOM      7  C   UNL d   1      23.936 -18.950  -0.028  0.00  0.00     0.019 A 
ATOM      8  C   UNL d   1      24.765 -17.828  -0.157  0.00  0.00     0.060 A 
ATOM      9  C   UNL d   1      26.179 -17.962   0.195  0.00  0.00     0.277 C 
ATOM     10  O   UNL d   1      26.490 -18.951   0.859  0.00  0.00    -0.266 OA
ATOM     11  N   UNL d   1      27.021 -16.942  -0.267  0.00  0.00    -0.221 N 
ATOM     12  H   UNL d   1      24.813 -14.662  -1.149  0.00  0.00     0.162 HD
ENDROOT
BRANCH  11  13
ATOM     13  N   UNL d   1      28.450 -17.071  -0.053  0.00  0.00    -0.262 N 
ATOM     14  C   UNL d   1      29.285 -17.063  -1.164  0.00  0.00     0.236 C 
ATOM     15  O   UNL d   1      28.935 -17.107  -2.340  0.00  0.00    -0.272 OA
ATOM     16  H   UNL d   1      28.779 -16.657   0.819  0.00  0.00     0.190 HD
BRANCH  14  17
ATOM     17  C   UNL d   1      30.754 -16.903  -0.881  0.00  0.00     0.109 C 
BRANCH  17  18
ATOM     18  C   UNL d   1      31.483 -17.861  -1.836  0.00  0.00     0.046 C 
BRANCH  18  19
ATOM     19  C   UNL d   1      31.683 -17.360  -3.214  0.00  0.00    -0.050 A 
ATOM     20  C   UNL d   1      31.327 -18.019  -4.319  0.00  0.00    -0.006 A 
ATOM     21  C   UNL d   1      30.733 -19.291  -4.558  0.00  0.00     0.014 A 
ATOM     22  C   UNL d   1      31.644 -17.094  -5.415  0.00  0.00     0.038 A 
ATOM     23  C   UNL d   1      30.475 -19.639  -5.827  0.00  0.00     0.001 A 
ATOM     24  C   UNL d   1      30.779 -18.747  -6.938  0.00  0.00     0.002 A 
ATOM     25  C   UNL d   1      31.335 -17.528  -6.787  0.00  0.00     0.030 A 
ATOM     26  N   UNL d   1      32.153 -15.998  -4.993  0.00  0.00    -0.385 N 
ATOM     27  C   UNL d   1      32.251 -16.015  -3.525  0.00  0.00     0.155 A 
ATOM     28  H   UNL d   1      32.433 -15.234  -5.602  0.00  0.00     0.160 HD
ENDBRANCH  18  19
ENDBRANCH  17  18
ENDBRANCH  14  17
ENDBRANCH  11  13
BRANCH   1  29
ATOM     29  S   UNL d   1      27.560 -14.314  -0.926  0.00  0.00    -0.112 SA
BRANCH  29  30
ATOM     30  C   UNL d   1      26.426 -13.384  -2.025  0.00  0.00     0.180 C 
BRANCH  30  31
ATOM     31  C   UNL d   1      25.951 -14.280  -3.177  0.00  0.00     0.227 C 
ATOM     32  O   UNL d   1      24.772 -14.450  -3.484  0.00  0.00    -0.273 OA
ATOM     33  N   UNL d   1      26.897 -14.927  -3.927  0.00  0.00    -0.358 N 
ATOM     34  H   UNL d   1      26.500 -15.482  -4.678  0.00  0.00     0.162 HD
BRANCH  33  35
ATOM     35  C   UNL d   1      28.340 -14.809  -3.810  0.00  0.00     0.154 C 
BRANCH  35  36
ATOM     36  C   UNL d   1      29.078 -15.031  -5.138  0.00  0.00     0.139 C 
ATOM     37  C   UNL d   1      29.965 -13.861  -5.534  0.00  0.00     0.035 C 
ATOM     38  C   UNL d   1      29.925 -13.907  -7.041  0.00  0.00     0.029 C 
ATOM     39  C   UNL d   1      28.530 -14.417  -7.328  0.00  0.00     0.168 C 
ATOM     40  O   UNL d   1      28.120 -15.200  -6.199  0.00  0.00    -0.384 OA
ENDBRANCH  35  36
ENDBRANCH  33  35
ENDBRANCH  30  31
ENDBRANCH  29  30
ENDBRANCH   1  29
TORSDOF 9
ENDMDL
MODEL 6
REMARK VINA RESULT:    -7.737      2.674      4.842
REMARK INTER + INTRA:         -14.401
REMARK INTER:                 -10.422
REMARK INTRA:                  -3.979
REMARK CONF_INDEPENDENT:        2.685
REMARK UNBOUND:                -3.979
REMARK  9 active torsions:
REMARK  status: ('A' for Active; 'I' for Inactive)
REMARK    1  A    between atoms: C_2  and  C_3 
REMARK       I    between atoms: C_2  and  N_30 
REMARK    2  A    between atoms: C_3  and  S_4 
REMARK    3  A    between atoms: S_4  and  C_5 
REMARK    4  A    between atoms: N_15  and  N_16 
REMARK       I    between atoms: N_16  and  C_17 
REMARK    5  A    between atoms: C_17  and  C_19 
REMARK    6  A    between atoms: C_19  and  C_20 
REMARK    7  A    between atoms: C_20  and  C_21 
REMARK    8  A    between atoms: N_30  and  C_31 
REMARK    9  A    between atoms: C_31  and  C_32 
ROOT
ATOM      1  C   UNL d   1      26.189 -15.557  -1.155  0.00  0.00     0.274 C 
ATOM      2  N   UNL d   1      24.800 -15.637  -1.557  0.00  0.00    -0.358 N 
ATOM      3  C   UNL d   1      24.041 -16.654  -0.975  0.00  0.00     0.046 A 
ATOM      4  C   UNL d   1      22.646 -16.621  -0.955  0.00  0.00     0.030 A 
ATOM      5  C   UNL d   1      21.904 -17.733  -0.520  0.00  0.00     0.002 A 
ATOM      6  C   UNL d   1      22.539 -18.909  -0.129  0.00  0.00     0.001 A 
ATOM      7  C   UNL d   1      23.922 -18.951  -0.117  0.00  0.00     0.019 A 
ATOM      8  C   UNL d   1      24.651 -17.824  -0.517  0.00  0.00     0.060 A 
ATOM      9  C   UNL d   1      26.112 -17.891  -0.483  0.00  0.00     0.277 C 
ATOM     10  O   UNL d   1      26.607 -18.810   0.169  0.00  0.00    -0.266 OA
ATOM     11  N   UNL d   1      26.784 -16.894  -1.202  0.00  0.00    -0.221 N 
ATOM     12  H   UNL d   1      24.337 -14.755  -1.739  0.00  0.00     0.162 HD
ENDROOT
BRANCH  11  13
ATOM     13  N   UNL d   1      28.230 -16.968  -1.306  0.00  0.00    -0.262 N 
ATOM     14  C   UNL d   1      28.992 -16.249  -0.393  0.00  0.00     0.236 C 
ATOM     15  O   UNL d   1      28.576 -15.424   0.416  0.00  0.00    -0.272 OA
ATOM     16  H   UNL d   1      28.577 -17.864  -1.646  0.00  0.00     0.190 HD
BRANCH  14  17
ATOM     17  C   UNL d   1      30.458 -16.585  -0.352  0.00  0.00     0.109 C 
BRANCH  17  18
ATOM     18  C   UNL d   1      31.094 -15.880  -1.561  0.00  0.00     0.046 C 
BRANCH  18  19
ATOM     19  C   UNL d   1      30.556 -16.268  -2.884  0.00  0.00    -0.050 A 
ATOM     20  C   UNL d   1      30.127 -15.407  -3.809  0.00  0.00    -0.006 A 
ATOM     21  C   UNL d   1      30.008 -13.988  -3.853  0.00  0.00     0.014 A 
ATOM     22  C   UNL d   1      29.779 -16.250  -4.960  0.00  0.00     0.038 A 
ATOM     23  C   UNL d   1      29.553 -13.428  -4.984  0.00  0.00     0.001 A 
ATOM     24  C   UNL d   1      29.197 -14.235  -6.143  0.00  0.00     0.002 A 
ATOM     25  C   UNL d   1      29.289 -15.579  -6.175  0.00  0.00     0.030 A 
ATOM     26  N   UNL d   1      29.973 -17.494  -4.727  0.00  0.00    -0.385 N 
ATOM     27  C   UNL d   1      30.497 -17.680  -3.364  0.00  0.00     0.155 A 
ATOM     28  H   UNL d   1      29.795 -18.229  -5.405  0.00  0.00     0.160 HD
ENDBRANCH  18  19
ENDBRANCH  17  18
ENDBRANCH  14  17
ENDBRANCH  11  13
BRANCH   1  29
ATOM     29  S   UNL d   1      27.047 -14.319  -2.168  0.00  0.00    -0.112 SA
BRANCH  29  30
ATOM     30  C   UNL d   1      26.432 -14.707  -3.850  0.00  0.00     0.180 C 
BRANCH  30  31
ATOM     31  C   UNL d   1      25.202 -13.848  -4.177  0.00  0.00     0.227 C 
ATOM     32  O   UNL d   1      24.059 -14.102  -3.799  0.00  0.00    -0.273 OA
ATOM     33  N   UNL d   1      25.383 -12.717  -4.927  0.00  0.00    -0.358 N 
ATOM     34  H   UNL d   1      24.523 -12.199  -5.081  0.00  0.00     0.162 HD
BRANCH  33  35
ATOM     35  C   UNL d   1      26.641 -12.173  -5.405  0.00  0.00     0.154 C 
BRANCH  35  36
ATOM     36  C   UNL d   1      26.522 -10.735  -5.931  0.00  0.00     0.139 C 
ATOM     37  C   UNL d   1      26.911  -9.686  -4.902  0.00  0.00     0.035 C 
ATOM     38  C   UNL d   1      26.035  -8.515  -5.271  0.00  0.00     0.029 C 
ATOM     39  C   UNL d   1      24.779  -9.181  -5.789  0.00  0.00     0.168 C 
ATOM     40  O   UNL d   1      25.155 -10.468  -6.296  0.00  0.00    -0.384 OA
ENDBRANCH  35  36
ENDBRANCH  33  35
ENDBRANCH  30  31
ENDBRANCH  29  30
ENDBRANCH   1  29
TORSDOF 9
ENDMDL
MODEL 7
REMARK VINA RESULT:    -7.706      2.487      6.271
REMARK INTER + INTRA:         -14.624
REMARK INTER:                 -10.391
REMARK INTRA:                  -4.233
REMARK CONF_INDEPENDENT:        2.685
REMARK UNBOUND:                -4.233
REMARK  9 active torsions:
REMARK  status: ('A' for Active; 'I' for Inactive)
REMARK    1  A    between atoms: C_2  and  C_3 
REMARK       I    between atoms: C_2  and  N_30 
REMARK    2  A    between atoms: C_3  and  S_4 
REMARK    3  A    between atoms: S_4  and  C_5 
REMARK    4  A    between atoms: N_15  and  N_16 
REMARK       I    between atoms: N_16  and  C_17 
REMARK    5  A    between atoms: C_17  and  C_19 
REMARK    6  A    between atoms: C_19  and  C_20 
REMARK    7  A    between atoms: C_20  and  C_21 
REMARK    8  A    between atoms: N_30  and  C_31 
REMARK    9  A    between atoms: C_31  and  C_32 
ROOT
ATOM      1  C   UNL d   1      25.336 -14.450  -2.638  0.00  0.00     0.274 C 
ATOM      2  N   UNL d   1      24.056 -15.080  -2.392  0.00  0.00    -0.358 N 
ATOM      3  C   UNL d   1      24.053 -16.156  -1.502  0.00  0.00     0.046 A 
ATOM      4  C   UNL d   1      22.886 -16.599  -0.877  0.00  0.00     0.030 A 
ATOM      5  C   UNL d   1      22.877 -17.786  -0.122  0.00  0.00     0.002 A 
ATOM      6  C   UNL d   1      24.024 -18.567  -0.005  0.00  0.00     0.001 A 
ATOM      7  C   UNL d   1      25.196 -18.130  -0.595  0.00  0.00     0.019 A 
ATOM      8  C   UNL d   1      25.202 -16.927  -1.313  0.00  0.00     0.060 A 
ATOM      9  C   UNL d   1      26.457 -16.481  -1.917  0.00  0.00     0.277 C 
ATOM     10  O   UNL d   1      27.486 -17.023  -1.513  0.00  0.00    -0.266 OA
ATOM     11  N   UNL d   1      26.343 -15.482  -2.892  0.00  0.00    -0.221 N 
ATOM     12  H   UNL d   1      23.250 -14.467  -2.386  0.00  0.00     0.162 HD
ENDROOT
BRANCH  11  13
ATOM     13  N   UNL d   1      27.536 -15.075  -3.612  0.00  0.00    -0.262 N 
ATOM     14  C   UNL d   1      27.505 -15.100  -5.001  0.00  0.00     0.236 C 
ATOM     15  O   UNL d   1      26.617 -15.575  -5.703  0.00  0.00    -0.272 OA
ATOM     16  H   UNL d   1      28.081 -14.355  -3.139  0.00  0.00     0.190 HD
BRANCH  14  17
ATOM     17  C   UNL d   1      28.642 -14.400  -5.696  0.00  0.00     0.109 C 
BRANCH  17  18
ATOM     18  C   UNL d   1      29.908 -14.738  -4.895  0.00  0.00     0.046 C 
BRANCH  18  19
ATOM     19  C   UNL d   1      30.100 -16.170  -4.575  0.00  0.00    -0.050 A 
ATOM     20  C   UNL d   1      30.354 -17.120  -5.478  0.00  0.00    -0.006 A 
ATOM     21  C   UNL d   1      30.483 -17.121  -6.896  0.00  0.00     0.014 A 
ATOM     22  C   UNL d   1      30.549 -18.339  -4.681  0.00  0.00     0.038 A 
ATOM     23  C   UNL d   1      30.780 -18.280  -7.502  0.00  0.00     0.001 A 
ATOM     24  C   UNL d   1      30.978 -19.507  -6.743  0.00  0.00     0.002 A 
ATOM     25  C   UNL d   1      30.877 -19.580  -5.400  0.00  0.00     0.030 A 
ATOM     26  N   UNL d   1      30.409 -18.126  -3.427  0.00  0.00    -0.385 N 
ATOM     27  C   UNL d   1      30.101 -16.707  -3.183  0.00  0.00     0.155 A 
ATOM     28  H   UNL d   1      30.511 -18.846  -2.718  0.00  0.00     0.160 HD
ENDBRANCH  18  19
ENDBRANCH  17  18
ENDBRANCH  14  17
ENDBRANCH  11  13
BRANCH   1  29
ATOM     29  S   UNL d   1      25.167 -13.226  -3.968  0.00  0.00    -0.112 SA
BRANCH  29  30
ATOM     30  C   UNL d   1      26.118 -11.806  -3.306  0.00  0.00     0.180 C 
BRANCH  30  31
ATOM     31  C   UNL d   1      27.511 -12.265  -2.854  0.00  0.00     0.227 C 
ATOM     32  O   UNL d   1      28.511 -12.257  -3.571  0.00  0.00    -0.273 OA
ATOM     33  N   UNL d   1      27.662 -12.703  -1.565  0.00  0.00    -0.358 N 
ATOM     34  H   UNL d   1      28.617 -12.970  -1.344  0.00  0.00     0.162 HD
BRANCH  33  35
ATOM     35  C   UNL d   1      26.655 -12.718  -0.520  0.00  0.00     0.154 C 
BRANCH  35  36
ATOM     36  C   UNL d   1      26.857 -13.844   0.504  0.00  0.00     0.139 C 
ATOM     37  C   UNL d   1      27.058 -13.336   1.923  0.00  0.00     0.035 C 
ATOM     38  C   UNL d   1      27.958 -14.384   2.528  0.00  0.00     0.029 C 
ATOM     39  C   UNL d   1      28.804 -14.825   1.354  0.00  0.00     0.168 C 
ATOM     40  O   UNL d   1      28.036 -14.598   0.165  0.00  0.00    -0.384 OA
ENDBRANCH  35  36
ENDBRANCH  33  35
ENDBRANCH  30  31
ENDBRANCH  29  30
ENDBRANCH   1  29
TORSDOF 9
ENDMDL
MODEL 8
REMARK VINA RESULT:    -6.912      2.800      7.309
REMARK INTER + INTRA:         -14.821
REMARK INTER:                  -9.597
REMARK INTRA:                  -5.223
REMARK CONF_INDEPENDENT:        2.685
REMARK UNBOUND:                -5.223
REMARK  9 active torsions:
REMARK  status: ('A' for Active; 'I' for Inactive)
REMARK    1  A    between atoms: C_2  and  C_3 
REMARK       I    between atoms: C_2  and  N_30 
REMARK    2  A    between atoms: C_3  and  S_4 
REMARK    3  A    between atoms: S_4  and  C_5 
REMARK    4  A    between atoms: N_15  and  N_16 
REMARK       I    between atoms: N_16  and  C_17 
REMARK    5  A    between atoms: C_17  and  C_19 
REMARK    6  A    between atoms: C_19  and  C_20 
REMARK    7  A    between atoms: C_20  and  C_21 
REMARK    8  A    between atoms: N_30  and  C_31 
REMARK    9  A    between atoms: C_31  and  C_32 
ROOT
ATOM      1  C   UNL d   1      29.851 -16.805  -3.745  0.00  0.00     0.274 C 
ATOM      2  N   UNL d   1      30.030 -18.212  -4.035  0.00  0.00    -0.358 N 
ATOM      3  C   UNL d   1      30.600 -18.526  -5.270  0.00  0.00     0.046 A 
ATOM      4  C   UNL d   1      31.182 -19.768  -5.525  0.00  0.00     0.030 A 
ATOM      5  C   UNL d   1      31.593 -20.121  -6.822  0.00  0.00     0.002 A 
ATOM      6  C   UNL d   1      31.400 -19.252  -7.894  0.00  0.00     0.001 A 
ATOM      7  C   UNL d   1      30.849 -18.006  -7.656  0.00  0.00     0.019 A 
ATOM      8  C   UNL d   1      30.478 -17.652  -6.353  0.00  0.00     0.060 A 
ATOM      9  C   UNL d   1      29.908 -16.324  -6.127  0.00  0.00     0.277 C 
ATOM     10  O   UNL d   1      30.064 -15.497  -7.025  0.00  0.00    -0.266 OA
ATOM     11  N   UNL d   1      29.247 -16.145  -4.905  0.00  0.00    -0.221 N 
ATOM     12  H   UNL d   1      30.267 -18.803  -3.248  0.00  0.00     0.162 HD
ENDROOT
BRANCH  11  13
ATOM     13  N   UNL d   1      28.560 -14.889  -4.664  0.00  0.00    -0.262 N 
ATOM     14  C   UNL d   1      27.239 -14.773  -5.078  0.00  0.00     0.236 C 
ATOM     15  O   UNL d   1      26.617 -15.575  -5.770  0.00  0.00    -0.272 OA
ATOM     16  H   UNL d   1      28.860 -14.407  -3.817  0.00  0.00     0.190 HD
BRANCH  14  17
ATOM     17  C   UNL d   1      26.488 -13.580  -4.552  0.00  0.00     0.109 C 
BRANCH  17  18
ATOM     18  C   UNL d   1      25.452 -14.128  -3.559  0.00  0.00     0.046 C 
BRANCH  18  19
ATOM     19  C   UNL d   1      25.960 -14.426  -2.202  0.00  0.00    -0.050 A 
ATOM     20  C   UNL d   1      25.802 -15.593  -1.573  0.00  0.00    -0.006 A 
ATOM     21  C   UNL d   1      25.144 -16.811  -1.909  0.00  0.00     0.014 A 
ATOM     22  C   UNL d   1      26.544 -15.435  -0.315  0.00  0.00     0.038 A 
ATOM     23  C   UNL d   1      25.208 -17.825  -1.034  0.00  0.00     0.001 A 
ATOM     24  C   UNL d   1      25.934 -17.701   0.224  0.00  0.00     0.002 A 
ATOM     25  C   UNL d   1      26.583 -16.583   0.605  0.00  0.00     0.030 A 
ATOM     26  N   UNL d   1      27.078 -14.276  -0.209  0.00  0.00    -0.385 N 
ATOM     27  C   UNL d   1      26.778 -13.467  -1.402  0.00  0.00     0.155 A 
ATOM     28  H   UNL d   1      27.634 -13.982   0.588  0.00  0.00     0.160 HD
ENDBRANCH  18  19
ENDBRANCH  17  18
ENDBRANCH  14  17
ENDBRANCH  11  13
BRANCH   1  29
ATOM     29  S   UNL d   1      28.912 -16.614  -2.203  0.00  0.00    -0.112 SA
BRANCH  29  30
ATOM     30  C   UNL d   1      30.153 -15.848  -1.092  0.00  0.00     0.180 C 
BRANCH  30  31
ATOM     31  C   UNL d   1      29.957 -14.327  -1.047  0.00  0.00     0.227 C 
ATOM     32  O   UNL d   1      29.829 -13.614  -2.042  0.00  0.00    -0.273 OA
ATOM     33  N   UNL d   1      29.907 -13.715   0.177  0.00  0.00    -0.358 N 
ATOM     34  H   UNL d   1      29.757 -12.713   0.117  0.00  0.00     0.162 HD
BRANCH  33  35
ATOM     35  C   UNL d   1      29.945 -14.355   1.479  0.00  0.00     0.154 C 
BRANCH  35  36
ATOM     36  C   UNL d   1      29.167 -13.588   2.558  0.00  0.00     0.139 C 
ATOM     37  C   UNL d   1      28.155 -14.450   3.295  0.00  0.00     0.035 C 
ATOM     38  C   UNL d   1      27.070 -13.464   3.648  0.00  0.00     0.029 C 
ATOM     39  C   UNL d   1      27.098 -12.498   2.484  0.00  0.00     0.168 C 
ATOM     40  O   UNL d   1      28.427 -12.515   1.946  0.00  0.00    -0.384 OA
ENDBRANCH  35  36
ENDBRANCH  33  35
ENDBRANCH  30  31
ENDBRANCH  29  30
ENDBRANCH   1  29
TORSDOF 9
ENDMDL
MODEL 9
REMARK VINA RESULT:    -6.703      2.278      5.329
REMARK INTER + INTRA:         -14.475
REMARK INTER:                  -9.387
REMARK INTRA:                  -5.088
REMARK CONF_INDEPENDENT:        2.685
REMARK UNBOUND:                -5.088
REMARK  9 active torsions:
REMARK  status: ('A' for Active; 'I' for Inactive)
REMARK    1  A    between atoms: C_2  and  C_3 
REMARK       I    between atoms: C_2  and  N_30 
REMARK    2  A    between atoms: C_3  and  S_4 
REMARK    3  A    between atoms: S_4  and  C_5 
REMARK    4  A    between atoms: N_15  and  N_16 
REMARK       I    between atoms: N_16  and  C_17 
REMARK    5  A    between atoms: C_17  and  C_19 
REMARK    6  A    between atoms: C_19  and  C_20 
REMARK    7  A    between atoms: C_20  and  C_21 
REMARK    8  A    between atoms: N_30  and  C_31 
REMARK    9  A    between atoms: C_31  and  C_32 
ROOT
ATOM      1  C   UNL d   1      25.337 -14.513  -2.681  0.00  0.00     0.274 C 
ATOM      2  N   UNL d   1      24.078 -15.167  -2.395  0.00  0.00    -0.358 N 
ATOM      3  C   UNL d   1      24.115 -16.212  -1.471  0.00  0.00     0.046 A 
ATOM      4  C   UNL d   1      22.970 -16.665  -0.815  0.00  0.00     0.030 A 
ATOM      5  C   UNL d   1      23.002 -17.826  -0.022  0.00  0.00     0.002 A 
ATOM      6  C   UNL d   1      24.171 -18.575   0.102  0.00  0.00     0.001 A 
ATOM      7  C   UNL d   1      25.322 -18.127  -0.520  0.00  0.00     0.019 A 
ATOM      8  C   UNL d   1      25.286 -16.949  -1.276  0.00  0.00     0.060 A 
ATOM      9  C   UNL d   1      26.521 -16.491  -1.913  0.00  0.00     0.277 C 
ATOM     10  O   UNL d   1      27.569 -16.993  -1.508  0.00  0.00    -0.266 OA
ATOM     11  N   UNL d   1      26.367 -15.526  -2.917  0.00  0.00    -0.221 N 
ATOM     12  H   UNL d   1      23.257 -14.574  -2.396  0.00  0.00     0.162 HD
ENDROOT
BRANCH  11  13
ATOM     13  N   UNL d   1      27.538 -15.113  -3.669  0.00  0.00    -0.262 N 
ATOM     14  C   UNL d   1      27.463 -15.115  -5.056  0.00  0.00     0.236 C 
ATOM     15  O   UNL d   1      26.550 -15.575  -5.737  0.00  0.00    -0.272 OA
ATOM     16  H   UNL d   1      28.102 -14.404  -3.202  0.00  0.00     0.190 HD
BRANCH  14  17
ATOM     17  C   UNL d   1      28.580 -14.409  -5.775  0.00  0.00     0.109 C 
BRANCH  17  18
ATOM     18  C   UNL d   1      29.632 -15.482  -6.093  0.00  0.00     0.046 C 
BRANCH  18  19
ATOM     19  C   UNL d   1      30.020 -16.354  -4.962  0.00  0.00    -0.050 A 
ATOM     20  C   UNL d   1      30.338 -15.916  -3.742  0.00  0.00    -0.006 A 
ATOM     21  C   UNL d   1      30.443 -14.621  -3.158  0.00  0.00     0.014 A 
ATOM     22  C   UNL d   1      30.558 -17.139  -2.959  0.00  0.00     0.038 A 
ATOM     23  C   UNL d   1      30.765 -14.538  -1.859  0.00  0.00     0.001 A 
ATOM     24  C   UNL d   1      30.992 -15.731  -1.054  0.00  0.00     0.002 A 
ATOM     25  C   UNL d   1      30.904 -16.987  -1.537  0.00  0.00     0.030 A 
ATOM     26  N   UNL d   1      30.397 -18.198  -3.659  0.00  0.00    -0.385 N 
ATOM     27  C   UNL d   1      30.032 -17.844  -5.041  0.00  0.00     0.155 A 
ATOM     28  H   UNL d   1      30.502 -19.139  -3.291  0.00  0.00     0.160 HD
ENDBRANCH  18  19
ENDBRANCH  17  18
ENDBRANCH  14  17
ENDBRANCH  11  13
BRANCH   1  29
ATOM     29  S   UNL d   1      25.117 -13.336  -4.047  0.00  0.00    -0.112 SA
BRANCH  29  30
ATOM     30  C   UNL d   1      26.047 -11.875  -3.448  0.00  0.00     0.180 C 
BRANCH  30  31
ATOM     31  C   UNL d   1      27.461 -12.287  -3.016  0.00  0.00     0.227 C 
ATOM     32  O   UNL d   1      28.436 -12.313  -3.767  0.00  0.00    -0.273 OA
ATOM     33  N   UNL d   1      27.663 -12.639  -1.708  0.00  0.00    -0.358 N 
ATOM     34  H   UNL d   1      28.629 -12.879  -1.504  0.00  0.00     0.162 HD
BRANCH  33  35
ATOM     35  C   UNL d   1      26.693 -12.599  -0.630  0.00  0.00     0.154 C 
BRANCH  35  36
ATOM     36  C   UNL d   1      26.817 -13.778   0.346  0.00  0.00     0.139 C 
ATOM     37  C   UNL d   1      26.932 -13.345   1.799  0.00  0.00     0.035 C 
ATOM     38  C   UNL d   1      27.781 -14.433   2.406  0.00  0.00     0.029 C 
ATOM     39  C   UNL d   1      28.696 -14.825   1.267  0.00  0.00     0.168 C 
ATOM     40  O   UNL d   1      28.008 -14.528   0.044  0.00  0.00    -0.384 OA
ENDBRANCH  35  36
ENDBRANCH  33  35
ENDBRANCH  30  31
ENDBRANCH  29  30
ENDBRANCH   1  29
TORSDOF 9
ENDMDL
