MODEL 1
REMARK VINA RESULT:   -31.196      0.000      0.000
REMARK INTER + INTRA:         -35.483
REMARK INTER:                 -34.179
REMARK INTRA:                  -1.304
REMARK CONF_INDEPENDENT:        2.983
REMARK UNBOUND:                -1.304
REMARK  10 active torsions:
REMARK  status: ('A' for Active; 'I' for Inactive)
REMARK    1  A    between atoms: O_2  and  C_3 
REMARK    2  A    between atoms: C_6  and  C_7 
REMARK       I    between atoms: C_7  and  N_9 
REMARK    3  A    between atoms: N_9  and  C_10 
REMARK    4  A    between atoms: C_10  and  C_22 
REMARK    5  A    between atoms: C_11  and  C_12 
REMARK    6  A    between atoms: C_15  and  O_16 
REMARK    7  A    between atoms: O_16  and  C_17 
REMARK       I    between atoms: C_22  and  N_24 
REMARK    8  A    between atoms: N_24  and  C_25 
REMARK    9  A    between atoms: C_25  and  C_26 
REMARK   10  A    between atoms: C_26  and  C_27 
ROOT
ATOM      1  C   UNL d   1      26.362 -15.380  -0.943  0.00  0.00     0.104 C 
ATOM      2  C   UNL d   1      27.396 -15.131  -1.772  0.00  0.00     0.046 C 
ENDROOT
BRANCH   1   3
ATOM      3  N   UNL d   1      26.505 -15.158   0.459  0.00  0.00    -0.318 N 
ATOM      4  C   UNL d   1      27.337 -14.187   1.076  0.00  0.00     0.256 C 
ATOM      5  O   UNL d   1      28.049 -13.399   0.480  0.00  0.00    -0.267 OA
ATOM      6  H   UNL d   1      25.931 -15.768   1.027  0.00  0.00     0.169 HD
BRANCH   4   7
ATOM      7  C   UNL d   1      27.434 -14.094   2.576  0.00  0.00     0.032 A 
ATOM      8  C   UNL d   1      27.203 -12.830   3.173  0.00  0.00     0.020 A 
ATOM      9  C   UNL d   1      27.406 -12.617   4.544  0.00  0.00     0.038 A 
ATOM     10  C   UNL d   1      27.774 -13.680   5.361  0.00  0.00     0.068 A 
ATOM     11  C   UNL d   1      27.941 -14.945   4.791  0.00  0.00     0.038 A 
ATOM     12  C   UNL d   1      27.780 -15.152   3.410  0.00  0.00     0.020 A 
BRANCH  10  13
ATOM     13  O   UNL d   1      27.846 -13.416   6.701  0.00  0.00    -0.356 OA
ATOM     14  C   UNL d   1      28.484 -12.193   7.058  0.00  0.00     0.210 C 
ENDBRANCH  10  13
ENDBRANCH   4   7
ENDBRANCH   1   3
BRANCH   1  15
ATOM     15  C   UNL d   1      24.935 -15.863  -1.434  0.00  0.00     0.268 C 
ATOM     16  O   UNL d   1      24.253 -15.102  -2.112  0.00  0.00    -0.266 OA
ATOM     17  N   UNL d   1      24.479 -17.133  -1.082  0.00  0.00    -0.355 N 
ATOM     18  H   UNL d   1      24.944 -17.592  -0.311  0.00  0.00     0.162 HD
BRANCH  17  19
ATOM     19  C   UNL d   1      23.279 -17.842  -1.610  0.00  0.00     0.130 C 
BRANCH  19  20
ATOM     20  C   UNL d   1      21.967 -17.497  -0.885  0.00  0.00     0.098 C 
BRANCH  20  21
ATOM     21  C   UNL d   1      21.048 -18.548  -0.290  0.00  0.00     0.106 C 
ATOM     22  N   UNL d   1      19.905 -18.781  -0.895  0.00  0.00    -0.233 NA
ATOM     23  C   UNL d   1      19.274 -19.748  -0.188  0.00  0.00     0.085 C 
ATOM     24  C   UNL d   1      18.130 -20.447  -0.575  0.00  0.00     0.034 C 
ATOM     25  C   UNL d   1      19.896 -20.004   1.026  0.00  0.00     0.062 C 
ATOM     26  C   UNL d   1      17.481 -21.275   0.328  0.00  0.00     0.002 C 
ATOM     27  C   UNL d   1      17.996 -21.417   1.614  0.00  0.00     0.002 C 
ATOM     28  C   UNL d   1      19.226 -20.807   1.997  0.00  0.00     0.032 C 
ATOM     29  N   UNL d   1      21.141 -19.371   0.838  0.00  0.00    -0.343 N 
ATOM     30  H   UNL d   1      22.014 -19.633   1.278  0.00  0.00     0.167 HD
ENDBRANCH  20  21
ENDBRANCH  19  20
ENDBRANCH  17  19
ENDBRANCH   1  15
BRANCH   2  31
ATOM     31  C   UNL d   1      27.480 -15.193  -3.219  0.00  0.00    -0.034 C 
ATOM     32  C   UNL d   1      26.573 -14.486  -4.010  0.00  0.00     0.014 C 
ATOM     33  C   UNL d   1      26.737 -14.455  -5.396  0.00  0.00     0.037 C 
ATOM     34  C   UNL d   1      27.885 -14.998  -5.971  0.00  0.00     0.069 C 
ATOM     35  C   UNL d   1      28.769 -15.685  -5.148  0.00  0.00     0.037 C 
ATOM     36  C   UNL d   1      28.509 -15.904  -3.810  0.00  0.00     0.014 C 
BRANCH  34  37
ATOM     37  O   UNL d   1      28.055 -14.819  -7.316  0.00  0.00    -0.347 OA
BRANCH  37  38
ATOM     38  C   UNL d   1      28.834 -13.688  -7.755  0.00  0.00     0.120 C 
ATOM     39  C   UNL d   1      28.326 -12.360  -7.172  0.00  0.00     0.040 C 
ATOM     40  C   UNL d   1      30.260 -13.875  -7.230  0.00  0.00     0.040 C 
ENDBRANCH  37  38
ENDBRANCH  34  37
ENDBRANCH   2  31
TORSDOF 10
ENDMDL
MODEL 2
REMARK VINA RESULT:   -31.156      1.740      2.125
REMARK INTER + INTRA:         -35.312
REMARK INTER:                 -34.139
REMARK INTRA:                  -1.174
REMARK CONF_INDEPENDENT:        2.983
REMARK UNBOUND:                -1.174
REMARK  10 active torsions:
REMARK  status: ('A' for Active; 'I' for Inactive)
REMARK    1  A    between atoms: O_2  and  C_3 
REMARK    2  A    between atoms: C_6  and  C_7 
REMARK       I    between atoms: C_7  and  N_9 
REMARK    3  A    between atoms: N_9  and  C_10 
REMARK    4  A    between atoms: C_10  and  C_22 
REMARK    5  A    between atoms: C_11  and  C_12 
REMARK    6  A    between atoms: C_15  and  O_16 
REMARK    7  A    between atoms: O_16  and  C_17 
REMARK       I    between atoms: C_22  and  N_24 
REMARK    8  A    between atoms: N_24  and  C_25 
REMARK    9  A    between atoms: C_25  and  C_26 
REMARK   10  A    between atoms: C_26  and  C_27 
ROOT
ATOM      1  C   UNL d   1      26.218 -14.614  -0.523  0.00  0.00     0.104 C 
ATOM      2  C   UNL d   1      26.398 -13.444  -1.172  0.00  0.00     0.046 C 
ENDROOT
BRANCH   1   3
ATOM      3  N   UNL d   1      26.599 -14.733   0.846  0.00  0.00    -0.318 N 
ATOM      4  C   UNL d   1      27.074 -13.689   1.682  0.00  0.00     0.256 C 
ATOM      5  O   UNL d   1      27.219 -12.531   1.335  0.00  0.00    -0.267 OA
ATOM      6  H   UNL d   1      26.492 -15.670   1.216  0.00  0.00     0.169 HD
BRANCH   4   7
ATOM      7  C   UNL d   1      27.493 -13.965   3.102  0.00  0.00     0.032 A 
ATOM      8  C   UNL d   1      27.356 -12.916   4.044  0.00  0.00     0.020 A 
ATOM      9  C   UNL d   1      27.846 -13.035   5.352  0.00  0.00     0.038 A 
ATOM     10  C   UNL d   1      28.419 -14.232   5.769  0.00  0.00     0.068 A 
ATOM     11  C   UNL d   1      28.499 -15.294   4.865  0.00  0.00     0.038 A 
ATOM     12  C   UNL d   1      28.047 -15.163   3.539  0.00  0.00     0.020 A 
BRANCH  10  13
ATOM     13  O   UNL d   1      28.772 -14.306   7.088  0.00  0.00    -0.356 OA
ATOM     14  C   UNL d   1      30.136 -14.015   7.380  0.00  0.00     0.210 C 
ENDBRANCH  10  13
ENDBRANCH   4   7
ENDBRANCH   1   3
BRANCH   1  15
ATOM     15  C   UNL d   1      25.539 -15.889  -1.176  0.00  0.00     0.268 C 
ATOM     16  O   UNL d   1      26.198 -16.581  -1.945  0.00  0.00    -0.266 OA
ATOM     17  N   UNL d   1      24.213 -16.193  -0.873  0.00  0.00    -0.355 N 
ATOM     18  H   UNL d   1      23.650 -15.456  -0.473  0.00  0.00     0.162 HD
BRANCH  17  19
ATOM     19  C   UNL d   1      23.472 -17.442  -1.211  0.00  0.00     0.130 C 
BRANCH  19  20
ATOM     20  C   UNL d   1      21.946 -17.337  -1.053  0.00  0.00     0.098 C 
BRANCH  20  21
ATOM     21  C   UNL d   1      21.100 -18.430  -0.424  0.00  0.00     0.106 C 
ATOM     22  N   UNL d   1      19.905 -18.649  -0.925  0.00  0.00    -0.233 NA
ATOM     23  C   UNL d   1      19.356 -19.660  -0.210  0.00  0.00     0.085 C 
ATOM     24  C   UNL d   1      18.187 -20.355  -0.518  0.00  0.00     0.034 C 
ATOM     25  C   UNL d   1      20.099 -19.967   0.922  0.00  0.00     0.062 C 
ATOM     26  C   UNL d   1      17.639 -21.237   0.402  0.00  0.00     0.002 C 
ATOM     27  C   UNL d   1      18.280 -21.436   1.622  0.00  0.00     0.002 C 
ATOM     28  C   UNL d   1      19.536 -20.826   1.912  0.00  0.00     0.032 C 
ATOM     29  N   UNL d   1      21.312 -19.307   0.645  0.00  0.00    -0.343 N 
ATOM     30  H   UNL d   1      22.227 -19.577   0.983  0.00  0.00     0.167 HD
ENDBRANCH  20  21
ENDBRANCH  19  20
ENDBRANCH  17  19
ENDBRANCH   1  15
BRANCH   2  31
ATOM     31  C   UNL d   1      26.025 -13.045  -2.515  0.00  0.00    -0.034 C 
ATOM     32  C   UNL d   1      25.824 -11.698  -2.820  0.00  0.00     0.014 C 
ATOM     33  C   UNL d   1      25.585 -11.313  -4.142  0.00  0.00     0.037 C 
ATOM     34  C   UNL d   1      25.701 -12.249  -5.167  0.00  0.00     0.069 C 
ATOM     35  C   UNL d   1      25.912 -13.578  -4.823  0.00  0.00     0.037 C 
ATOM     36  C   UNL d   1      25.937 -14.002  -3.509  0.00  0.00     0.014 C 
BRANCH  34  37
ATOM     37  O   UNL d   1      25.590 -11.787  -6.450  0.00  0.00    -0.347 OA
BRANCH  37  38
ATOM     38  C   UNL d   1      26.571 -10.839  -6.915  0.00  0.00     0.120 C 
ATOM     39  C   UNL d   1      26.975 -11.077  -8.379  0.00  0.00     0.040 C 
ATOM     40  C   UNL d   1      25.934  -9.448  -6.862  0.00  0.00     0.040 C 
ENDBRANCH  37  38
ENDBRANCH  34  37
ENDBRANCH   2  31
TORSDOF 10
ENDMDL
