MODEL 1
REMARK VINA RESULT:    -6.818      0.000      0.000
REMARK INTER + INTRA:         -11.304
REMARK INTER:                  -9.801
REMARK INTRA:                  -1.503
REMARK CONF_INDEPENDENT:        2.983
REMARK UNBOUND:                -1.503
REMARK  10 active torsions:
REMARK  status: ('A' for Active; 'I' for Inactive)
REMARK    1  A    between atoms: C_2  and  C_3 
REMARK    2  A    between atoms: C_3  and  O_4 
REMARK    3  A    between atoms: O_4  and  C_5 
REMARK    4  A    between atoms: C_8  and  C_9 
REMARK       I    between atoms: C_9  and  N_11 
REMARK    5  A    between atoms: N_11  and  N_12 
REMARK       I    between atoms: N_12  and  C_13 
REMARK       I    between atoms: C_13  and  N_15 
REMARK    6  A    between atoms: N_15  and  C_16 
REMARK    7  A    between atoms: C_16  and  C_17 
REMARK    8  A    between atoms: C_17  and  C_18 
REMARK    9  A    between atoms: C_18  and  N_19 
REMARK   10  A    between atoms: C_25  and  O_26 
ROOT
ATOM      1  C   UNL d   1      25.838 -10.547  -3.713  0.00  0.00     0.270 C 
ATOM      2  O   UNL d   1      26.171 -10.162  -2.603  0.00  0.00    -0.266 OA
ATOM      3  N   UNL d   1      25.010  -9.770  -4.543  0.00  0.00    -0.262 N 
ATOM      4  H   UNL d   1      24.724 -10.034  -5.479  0.00  0.00     0.190 HD
ENDROOT
BRANCH   3   5
ATOM      5  N   UNL d   1      24.552  -8.475  -4.115  0.00  0.00    -0.249 N 
ATOM      6  C   UNL d   1      23.849  -7.685  -5.020  0.00  0.00     0.334 C 
ATOM      7  O   UNL d   1      23.614  -8.037  -6.166  0.00  0.00    -0.246 OA
ATOM      8  N   UNL d   1      23.429  -6.457  -4.524  0.00  0.00    -0.342 N 
ATOM      9  H   UNL d   1      23.650  -6.217  -3.569  0.00  0.00     0.164 HD
ATOM     10  H   UNL d   1      24.775  -8.218  -3.160  0.00  0.00     0.192 HD
BRANCH   8  11
ATOM     11  C   UNL d   1      22.667  -5.525  -5.366  0.00  0.00     0.126 C 
BRANCH  11  12
ATOM     12  C   UNL d   1      21.537  -6.189  -6.162  0.00  0.00     0.040 C 
BRANCH  12  13
ATOM     13  C   UNL d   1      20.366  -5.236  -6.444  0.00  0.00     0.130 C 
BRANCH  13  14
ATOM     14  N   UNL d   1      19.387  -5.827  -7.384  0.00  0.00    -0.352 N 
ATOM     15  C   UNL d   1      18.972  -5.269  -8.591  0.00  0.00     0.108 A 
ATOM     16  C   UNL d   1      18.069  -6.132  -9.144  0.00  0.00     0.106 A 
ATOM     17  N   UNL d   1      17.979  -7.197  -8.282  0.00  0.00    -0.361 N 
ATOM     18  C   UNL d   1      18.780  -7.018  -7.226  0.00  0.00     0.182 A 
ATOM     19  H   UNL d   1      17.390  -8.015  -8.422  0.00  0.00     0.166 HD
ENDBRANCH  13  14
ENDBRANCH  12  13
ENDBRANCH  11  12
ENDBRANCH   8  11
ENDBRANCH   3   5
BRANCH   1  20
ATOM     20  C   UNL d   1      26.350 -11.884  -4.245  0.00  0.00     0.036 A 
ATOM     21  C   UNL d   1      27.545 -11.961  -4.976  0.00  0.00     0.020 A 
ATOM     22  C   UNL d   1      27.971 -13.179  -5.574  0.00  0.00     0.040 A 
ATOM     23  C   UNL d   1      27.268 -14.395  -5.413  0.00  0.00     0.102 A 
ATOM     24  C   UNL d   1      26.097 -14.327  -4.616  0.00  0.00     0.102 A 
ATOM     25  C   UNL d   1      25.663 -13.083  -4.069  0.00  0.00     0.056 A 
BRANCH  23  26
ATOM     26  O   UNL d   1      27.978 -15.494  -5.899  0.00  0.00    -0.345 OA
BRANCH  26  27
ATOM     27  C   UNL d   1      29.268 -15.288  -6.485  0.00  0.00     0.202 C 
BRANCH  27  28
ATOM     28  C   UNL d   1      30.399 -16.213  -6.111  0.00  0.00    -0.011 C 
ATOM     29  C   UNL d   1      30.179 -17.182  -5.194  0.00  0.00     0.009 C 
ENDBRANCH  27  28
ENDBRANCH  26  27
ENDBRANCH  23  26
BRANCH  24  30
ATOM     30  O   UNL d   1      25.220 -15.283  -4.150  0.00  0.00    -0.353 OA
ATOM     31  C   UNL d   1      25.162 -15.458  -2.770  0.00  0.00     0.210 C 
ENDBRANCH  24  30
ENDBRANCH   1  20
TORSDOF 10
ENDMDL
MODEL 2
REMARK VINA RESULT:    -6.753      7.587     11.832
REMARK INTER + INTRA:         -11.326
REMARK INTER:                  -9.736
REMARK INTRA:                  -1.590
REMARK CONF_INDEPENDENT:        2.983
REMARK UNBOUND:                -1.590
REMARK  10 active torsions:
REMARK  status: ('A' for Active; 'I' for Inactive)
REMARK    1  A    between atoms: C_2  and  C_3 
REMARK    2  A    between atoms: C_3  and  O_4 
REMARK    3  A    between atoms: O_4  and  C_5 
REMARK    4  A    between atoms: C_8  and  C_9 
REMARK       I    between atoms: C_9  and  N_11 
REMARK    5  A    between atoms: N_11  and  N_12 
REMARK       I    between atoms: N_12  and  C_13 
REMARK       I    between atoms: C_13  and  N_15 
REMARK    6  A    between atoms: N_15  and  C_16 
REMARK    7  A    between atoms: C_16  and  C_17 
REMARK    8  A    between atoms: C_17  and  C_18 
REMARK    9  A    between atoms: C_18  and  N_19 
REMARK   10  A    between atoms: C_25  and  O_26 
ROOT
ATOM      1  C   UNL d   1      28.191 -16.217  -0.831  0.00  0.00     0.270 C 
ATOM      2  O   UNL d   1      28.586 -17.319  -0.485  0.00  0.00    -0.266 OA
ATOM      3  N   UNL d   1      27.978 -15.186   0.101  0.00  0.00    -0.262 N 
ATOM      4  H   UNL d   1      27.673 -14.249  -0.137  0.00  0.00     0.190 HD
ENDROOT
BRANCH   3   5
ATOM      5  N   UNL d   1      28.248 -15.394   1.499  0.00  0.00    -0.249 N 
ATOM      6  C   UNL d   1      27.779 -14.457   2.416  0.00  0.00     0.334 C 
ATOM      7  O   UNL d   1      27.159 -13.459   2.085  0.00  0.00    -0.246 OA
ATOM      8  N   UNL d   1      28.069 -14.741   3.744  0.00  0.00    -0.342 N 
ATOM      9  H   UNL d   1      28.585 -15.581   3.961  0.00  0.00     0.164 HD
ATOM     10  H   UNL d   1      28.772 -16.231   1.730  0.00  0.00     0.192 HD
BRANCH   8  11
ATOM     11  C   UNL d   1      27.627 -13.843   4.819  0.00  0.00     0.126 C 
BRANCH  11  12
ATOM     12  C   UNL d   1      28.766 -13.332   5.710  0.00  0.00     0.040 C 
BRANCH  12  13
ATOM     13  C   UNL d   1      28.991 -14.208   6.951  0.00  0.00     0.130 C 
BRANCH  13  14
ATOM     14  N   UNL d   1      28.773 -13.454   8.206  0.00  0.00    -0.352 N 
ATOM     15  C   UNL d   1      28.770 -13.988   9.493  0.00  0.00     0.108 A 
ATOM     16  C   UNL d   1      28.535 -12.957  10.357  0.00  0.00     0.106 A 
ATOM     17  N   UNL d   1      28.430 -11.826   9.585  0.00  0.00    -0.361 N 
ATOM     18  C   UNL d   1      28.582 -12.124   8.289  0.00  0.00     0.182 A 
ATOM     19  H   UNL d   1      28.264 -10.888   9.941  0.00  0.00     0.166 HD
ENDBRANCH  13  14
ENDBRANCH  12  13
ENDBRANCH  11  12
ENDBRANCH   8  11
ENDBRANCH   3   5
BRANCH   1  20
ATOM     20  C   UNL d   1      27.953 -15.919  -2.311  0.00  0.00     0.036 A 
ATOM     21  C   UNL d   1      28.991 -16.032  -3.247  0.00  0.00     0.020 A 
ATOM     22  C   UNL d   1      28.811 -15.645  -4.604  0.00  0.00     0.040 A 
ATOM     23  C   UNL d   1      27.569 -15.198  -5.111  0.00  0.00     0.102 A 
ATOM     24  C   UNL d   1      26.504 -15.150  -4.176  0.00  0.00     0.102 A 
ATOM     25  C   UNL d   1      26.724 -15.494  -2.809  0.00  0.00     0.056 A 
BRANCH  23  26
ATOM     26  O   UNL d   1      27.567 -15.084  -6.503  0.00  0.00    -0.345 OA
BRANCH  26  27
ATOM     27  C   UNL d   1      28.527 -14.229  -7.134  0.00  0.00     0.202 C 
BRANCH  27  28
ATOM     28  C   UNL d   1      28.440 -12.740  -6.911  0.00  0.00    -0.011 C 
ATOM     29  C   UNL d   1      27.394 -12.240  -6.214  0.00  0.00     0.009 C 
ENDBRANCH  27  28
ENDBRANCH  26  27
ENDBRANCH  23  26
BRANCH  24  30
ATOM     30  O   UNL d   1      25.159 -14.877  -4.297  0.00  0.00    -0.353 OA
ATOM     31  C   UNL d   1      24.779 -13.542  -4.184  0.00  0.00     0.210 C 
ENDBRANCH  24  30
ENDBRANCH   1  20
TORSDOF 10
ENDMDL
MODEL 3
REMARK VINA RESULT:    -6.710      1.440      3.157
REMARK INTER + INTRA:         -11.251
REMARK INTER:                  -9.693
REMARK INTRA:                  -1.558
REMARK CONF_INDEPENDENT:        2.983
REMARK UNBOUND:                -1.558
REMARK  10 active torsions:
REMARK  status: ('A' for Active; 'I' for Inactive)
REMARK    1  A    between atoms: C_2  and  C_3 
REMARK    2  A    between atoms: C_3  and  O_4 
REMARK    3  A    between atoms: O_4  and  C_5 
REMARK    4  A    between atoms: C_8  and  C_9 
REMARK       I    between atoms: C_9  and  N_11 
REMARK    5  A    between atoms: N_11  and  N_12 
REMARK       I    between atoms: N_12  and  C_13 
REMARK       I    between atoms: C_13  and  N_15 
REMARK    6  A    between atoms: N_15  and  C_16 
REMARK    7  A    between atoms: C_16  and  C_17 
REMARK    8  A    between atoms: C_17  and  C_18 
REMARK    9  A    between atoms: C_18  and  N_19 
REMARK   10  A    between atoms: C_25  and  O_26 
ROOT
ATOM      1  C   UNL d   1      26.277 -10.964  -5.381  0.00  0.00     0.270 C 
ATOM      2  O   UNL d   1      27.256 -10.652  -6.040  0.00  0.00    -0.266 OA
ATOM      3  N   UNL d   1      25.261 -10.037  -5.090  0.00  0.00    -0.262 N 
ATOM      4  H   UNL d   1      24.419 -10.251  -4.567  0.00  0.00     0.190 HD
ENDROOT
BRANCH   3   5
ATOM      5  N   UNL d   1      25.334  -8.689  -5.589  0.00  0.00    -0.249 N 
ATOM      6  C   UNL d   1      24.204  -7.881  -5.494  0.00  0.00     0.334 C 
ATOM      7  O   UNL d   1      23.149  -8.269  -5.016  0.00  0.00    -0.246 OA
ATOM      8  N   UNL d   1      24.363  -6.591  -5.983  0.00  0.00    -0.342 N 
ATOM      9  H   UNL d   1      25.257  -6.323  -6.367  0.00  0.00     0.164 HD
ATOM     10  H   UNL d   1      26.224  -8.409  -5.984  0.00  0.00     0.192 HD
BRANCH   8  11
ATOM     11  C   UNL d   1      23.256  -5.626  -5.937  0.00  0.00     0.126 C 
BRANCH  11  12
ATOM     12  C   UNL d   1      22.135  -5.919  -6.942  0.00  0.00     0.040 C 
BRANCH  12  13
ATOM     13  C   UNL d   1      20.734  -5.788  -6.327  0.00  0.00     0.130 C 
BRANCH  13  14
ATOM     14  N   UNL d   1      19.681  -6.288  -7.240  0.00  0.00    -0.352 N 
ATOM     15  C   UNL d   1      19.482  -5.885  -8.559  0.00  0.00     0.108 A 
ATOM     16  C   UNL d   1      18.415  -6.588  -9.038  0.00  0.00     0.106 A 
ATOM     17  N   UNL d   1      18.011  -7.415  -8.019  0.00  0.00    -0.361 N 
ATOM     18  C   UNL d   1      18.780  -7.241  -6.938  0.00  0.00     0.182 A 
ATOM     19  H   UNL d   1      17.238  -8.074  -8.071  0.00  0.00     0.166 HD
ENDBRANCH  13  14
ENDBRANCH  12  13
ENDBRANCH  11  12
ENDBRANCH   8  11
ENDBRANCH   3   5
BRANCH   1  20
ATOM     20  C   UNL d   1      26.115 -12.399  -4.883  0.00  0.00     0.036 A 
ATOM     21  C   UNL d   1      25.222 -12.708  -3.847  0.00  0.00     0.020 A 
ATOM     22  C   UNL d   1      25.148 -14.018  -3.297  0.00  0.00     0.040 A 
ATOM     23  C   UNL d   1      25.906 -15.100  -3.801  0.00  0.00     0.102 A 
ATOM     24  C   UNL d   1      26.758 -14.798  -4.894  0.00  0.00     0.102 A 
ATOM     25  C   UNL d   1      26.851 -13.465  -5.394  0.00  0.00     0.056 A 
BRANCH  23  26
ATOM     26  O   UNL d   1      25.515 -16.326  -3.260  0.00  0.00    -0.345 OA
BRANCH  26  27
ATOM     27  C   UNL d   1      25.375 -16.450  -1.841  0.00  0.00     0.202 C 
BRANCH  27  28
ATOM     28  C   UNL d   1      24.047 -16.877  -1.270  0.00  0.00    -0.011 C 
ATOM     29  C   UNL d   1      23.980 -18.015  -0.541  0.00  0.00     0.009 C 
ENDBRANCH  27  28
ENDBRANCH  26  27
ENDBRANCH  23  26
BRANCH  24  30
ATOM     30  O   UNL d   1      27.554 -15.575  -5.708  0.00  0.00    -0.353 OA
ATOM     31  C   UNL d   1      28.524 -14.908  -6.453  0.00  0.00     0.210 C 
ENDBRANCH  24  30
ENDBRANCH   1  20
TORSDOF 10
ENDMDL
MODEL 4
REMARK VINA RESULT:    -6.689      8.433     12.831
REMARK INTER + INTRA:         -11.235
REMARK INTER:                  -9.672
REMARK INTRA:                  -1.563
REMARK CONF_INDEPENDENT:        2.983
REMARK UNBOUND:                -1.563
REMARK  10 active torsions:
REMARK  status: ('A' for Active; 'I' for Inactive)
REMARK    1  A    between atoms: C_2  and  C_3 
REMARK    2  A    between atoms: C_3  and  O_4 
REMARK    3  A    between atoms: O_4  and  C_5 
REMARK    4  A    between atoms: C_8  and  C_9 
REMARK       I    between atoms: C_9  and  N_11 
REMARK    5  A    between atoms: N_11  and  N_12 
REMARK       I    between atoms: N_12  and  C_13 
REMARK       I    between atoms: C_13  and  N_15 
REMARK    6  A    between atoms: N_15  and  C_16 
REMARK    7  A    between atoms: C_16  and  C_17 
REMARK    8  A    between atoms: C_17  and  C_18 
REMARK    9  A    between atoms: C_18  and  N_19 
REMARK   10  A    between atoms: C_25  and  O_26 
ROOT
ATOM      1  C   UNL d   1      27.852 -16.196   0.633  0.00  0.00     0.270 C 
ATOM      2  O   UNL d   1      28.920 -16.567   0.172  0.00  0.00    -0.266 OA
ATOM      3  N   UNL d   1      27.791 -15.324   1.734  0.00  0.00    -0.262 N 
ATOM      4  H   UNL d   1      26.932 -14.968   2.140  0.00  0.00     0.190 HD
ENDROOT
BRANCH   3   5
ATOM      5  N   UNL d   1      28.996 -14.816   2.336  0.00  0.00    -0.249 N 
ATOM      6  C   UNL d   1      28.887 -13.858   3.340  0.00  0.00     0.334 C 
ATOM      7  O   UNL d   1      27.814 -13.420   3.725  0.00  0.00    -0.246 OA
ATOM      8  N   UNL d   1      30.095 -13.433   3.878  0.00  0.00    -0.342 N 
ATOM      9  H   UNL d   1      30.952 -13.830   3.521  0.00  0.00     0.164 HD
ATOM     10  H   UNL d   1      29.864 -15.200   1.981  0.00  0.00     0.192 HD
BRANCH   8  11
ATOM     11  C   UNL d   1      30.130 -12.433   4.953  0.00  0.00     0.126 C 
BRANCH  11  12
ATOM     12  C   UNL d   1      30.374 -13.026   6.346  0.00  0.00     0.040 C 
BRANCH  12  13
ATOM     13  C   UNL d   1      29.154 -13.781   6.894  0.00  0.00     0.130 C 
BRANCH  13  14
ATOM     14  N   UNL d   1      28.746 -13.277   8.225  0.00  0.00    -0.352 N 
ATOM     15  C   UNL d   1      28.537 -14.051   9.364  0.00  0.00     0.108 A 
ATOM     16  C   UNL d   1      28.175 -13.200  10.368  0.00  0.00     0.106 A 
ATOM     17  N   UNL d   1      28.199 -11.938   9.828  0.00  0.00    -0.361 N 
ATOM     18  C   UNL d   1      28.551 -11.983   8.539  0.00  0.00     0.182 A 
ATOM     19  H   UNL d   1      27.983 -11.081  10.333  0.00  0.00     0.166 HD
ENDBRANCH  13  14
ENDBRANCH  12  13
ENDBRANCH  11  12
ENDBRANCH   8  11
ENDBRANCH   3   5
BRANCH   1  20
ATOM     20  C   UNL d   1      26.542 -16.649  -0.008  0.00  0.00     0.036 A 
ATOM     21  C   UNL d   1      25.897 -17.820   0.417  0.00  0.00     0.020 A 
ATOM     22  C   UNL d   1      24.740 -18.313  -0.250  0.00  0.00     0.040 A 
ATOM     23  C   UNL d   1      24.129 -17.627  -1.325  0.00  0.00     0.102 A 
ATOM     24  C   UNL d   1      24.746 -16.409  -1.707  0.00  0.00     0.102 A 
ATOM     25  C   UNL d   1      25.934 -15.962  -1.055  0.00  0.00     0.056 A 
BRANCH  23  26
ATOM     26  O   UNL d   1      22.895 -18.175  -1.678  0.00  0.00    -0.345 OA
BRANCH  26  27
ATOM     27  C   UNL d   1      21.879 -18.309  -0.679  0.00  0.00     0.202 C 
BRANCH  27  28
ATOM     28  C   UNL d   1      20.858 -19.410  -0.815  0.00  0.00    -0.011 C 
ATOM     29  C   UNL d   1      19.545 -19.108  -0.698  0.00  0.00     0.009 C 
ENDBRANCH  27  28
ENDBRANCH  26  27
ENDBRANCH  23  26
BRANCH  24  30
ATOM     30  O   UNL d   1      24.406 -15.426  -2.611  0.00  0.00    -0.353 OA
ATOM     31  C   UNL d   1      25.435 -14.595  -3.049  0.00  0.00     0.210 C 
ENDBRANCH  24  30
ENDBRANCH   1  20
TORSDOF 10
ENDMDL
MODEL 5
REMARK VINA RESULT:    -6.586      5.115      8.228
REMARK INTER + INTRA:         -11.396
REMARK INTER:                  -9.569
REMARK INTRA:                  -1.827
REMARK CONF_INDEPENDENT:        2.983
REMARK UNBOUND:                -1.827
REMARK  10 active torsions:
REMARK  status: ('A' for Active; 'I' for Inactive)
REMARK    1  A    between atoms: C_2  and  C_3 
REMARK    2  A    between atoms: C_3  and  O_4 
REMARK    3  A    between atoms: O_4  and  C_5 
REMARK    4  A    between atoms: C_8  and  C_9 
REMARK       I    between atoms: C_9  and  N_11 
REMARK    5  A    between atoms: N_11  and  N_12 
REMARK       I    between atoms: N_12  and  C_13 
REMARK       I    between atoms: C_13  and  N_15 
REMARK    6  A    between atoms: N_15  and  C_16 
REMARK    7  A    between atoms: C_16  and  C_17 
REMARK    8  A    between atoms: C_17  and  C_18 
REMARK    9  A    between atoms: C_18  and  N_19 
REMARK   10  A    between atoms: C_25  and  O_26 
ROOT
ATOM      1  C   UNL d   1      26.050 -14.923  -2.116  0.00  0.00     0.270 C 
ATOM      2  O   UNL d   1      26.555 -14.056  -1.420  0.00  0.00    -0.266 OA
ATOM      3  N   UNL d   1      26.292 -14.989  -3.499  0.00  0.00    -0.262 N 
ATOM      4  H   UNL d   1      25.915 -15.700  -4.116  0.00  0.00     0.190 HD
ENDROOT
BRANCH   3   5
ATOM      5  N   UNL d   1      27.173 -14.046  -4.135  0.00  0.00    -0.249 N 
ATOM      6  C   UNL d   1      27.517 -14.249  -5.469  0.00  0.00     0.334 C 
ATOM      7  O   UNL d   1      27.114 -15.200  -6.120  0.00  0.00    -0.246 OA
ATOM      8  N   UNL d   1      28.358 -13.285  -6.011  0.00  0.00    -0.342 N 
ATOM      9  H   UNL d   1      28.660 -12.520  -5.427  0.00  0.00     0.164 HD
ATOM     10  H   UNL d   1      27.491 -13.276  -3.557  0.00  0.00     0.192 HD
BRANCH   8  11
ATOM     11  C   UNL d   1      28.794 -13.368  -7.411  0.00  0.00     0.126 C 
BRANCH  11  12
ATOM     12  C   UNL d   1      28.752 -12.028  -8.155  0.00  0.00     0.040 C 
BRANCH  12  13
ATOM     13  C   UNL d   1      27.338 -11.434  -8.235  0.00  0.00     0.130 C 
BRANCH  13  14
ATOM     14  N   UNL d   1      26.872 -10.940  -6.920  0.00  0.00    -0.352 N 
ATOM     15  C   UNL d   1      27.634 -10.231  -5.994  0.00  0.00     0.108 A 
ATOM     16  C   UNL d   1      26.828  -9.969  -4.925  0.00  0.00     0.106 A 
ATOM     17  N   UNL d   1      25.597 -10.494  -5.234  0.00  0.00    -0.361 N 
ATOM     18  C   UNL d   1      25.621 -11.072  -6.441  0.00  0.00     0.182 A 
ATOM     19  H   UNL d   1      24.775 -10.451  -4.636  0.00  0.00     0.166 HD
ENDBRANCH  13  14
ENDBRANCH  12  13
ENDBRANCH  11  12
ENDBRANCH   8  11
ENDBRANCH   3   5
BRANCH   1  20
ATOM     20  C   UNL d   1      25.160 -15.991  -1.482  0.00  0.00     0.036 A 
ATOM     21  C   UNL d   1      23.764 -15.932  -1.601  0.00  0.00     0.020 A 
ATOM     22  C   UNL d   1      22.922 -16.854  -0.919  0.00  0.00     0.040 A 
ATOM     23  C   UNL d   1      23.430 -17.922  -0.145  0.00  0.00     0.102 A 
ATOM     24  C   UNL d   1      24.844 -18.019  -0.083  0.00  0.00     0.102 A 
ATOM     25  C   UNL d   1      25.666 -17.051  -0.734  0.00  0.00     0.056 A 
BRANCH  23  26
ATOM     26  O   UNL d   1      22.436 -18.821   0.248  0.00  0.00    -0.345 OA
BRANCH  26  27
ATOM     27  C   UNL d   1      21.339 -19.078  -0.635  0.00  0.00     0.202 C 
BRANCH  27  28
ATOM     28  C   UNL d   1      19.982 -19.375  -0.050  0.00  0.00    -0.011 C 
ATOM     29  C   UNL d   1      19.835 -20.452   0.755  0.00  0.00     0.009 C 
ENDBRANCH  27  28
ENDBRANCH  26  27
ENDBRANCH  23  26
BRANCH  24  30
ATOM     30  O   UNL d   1      25.700 -18.950   0.465  0.00  0.00    -0.353 OA
ATOM     31  C   UNL d   1      27.030 -18.565   0.613  0.00  0.00     0.210 C 
ENDBRANCH  24  30
ENDBRANCH   1  20
TORSDOF 10
ENDMDL
MODEL 6
REMARK VINA RESULT:    -6.410      7.185     10.224
REMARK INTER + INTRA:         -11.139
REMARK INTER:                  -9.393
REMARK INTRA:                  -1.746
REMARK CONF_INDEPENDENT:        2.983
REMARK UNBOUND:                -1.746
REMARK  10 active torsions:
REMARK  status: ('A' for Active; 'I' for Inactive)
REMARK    1  A    between atoms: C_2  and  C_3 
REMARK    2  A    between atoms: C_3  and  O_4 
REMARK    3  A    between atoms: O_4  and  C_5 
REMARK    4  A    between atoms: C_8  and  C_9 
REMARK       I    between atoms: C_9  and  N_11 
REMARK    5  A    between atoms: N_11  and  N_12 
REMARK       I    between atoms: N_12  and  C_13 
REMARK       I    between atoms: C_13  and  N_15 
REMARK    6  A    between atoms: N_15  and  C_16 
REMARK    7  A    between atoms: C_16  and  C_17 
REMARK    8  A    between atoms: C_17  and  C_18 
REMARK    9  A    between atoms: C_18  and  N_19 
REMARK   10  A    between atoms: C_25  and  O_26 
ROOT
ATOM      1  C   UNL d   1      25.965 -14.827  -2.068  0.00  0.00     0.270 C 
ATOM      2  O   UNL d   1      26.465 -13.927  -1.411  0.00  0.00    -0.266 OA
ATOM      3  N   UNL d   1      26.186 -14.937  -3.451  0.00  0.00    -0.262 N 
ATOM      4  H   UNL d   1      25.813 -15.677  -4.037  0.00  0.00     0.190 HD
ENDROOT
BRANCH   3   5
ATOM      5  N   UNL d   1      27.040 -14.002  -4.134  0.00  0.00    -0.249 N 
ATOM      6  C   UNL d   1      27.404 -14.269  -5.451  0.00  0.00     0.334 C 
ATOM      7  O   UNL d   1      27.041 -15.270  -6.049  0.00  0.00    -0.246 OA
ATOM      8  N   UNL d   1      28.216 -13.309  -6.042  0.00  0.00    -0.342 N 
ATOM      9  H   UNL d   1      28.486 -12.501  -5.500  0.00  0.00     0.164 HD
ATOM     10  H   UNL d   1      27.325 -13.189  -3.599  0.00  0.00     0.192 HD
BRANCH   8  11
ATOM     11  C   UNL d   1      28.669 -13.457  -7.431  0.00  0.00     0.126 C 
BRANCH  11  12
ATOM     12  C   UNL d   1      30.178 -13.691  -7.571  0.00  0.00     0.040 C 
BRANCH  12  13
ATOM     13  C   UNL d   1      30.800 -14.340  -6.326  0.00  0.00     0.130 C 
BRANCH  13  14
ATOM     14  N   UNL d   1      30.652 -15.813  -6.339  0.00  0.00    -0.352 N 
ATOM     15  C   UNL d   1      31.216 -16.684  -7.268  0.00  0.00     0.108 A 
ATOM     16  C   UNL d   1      30.836 -17.947  -6.918  0.00  0.00     0.106 A 
ATOM     17  N   UNL d   1      30.081 -17.819  -5.779  0.00  0.00    -0.361 N 
ATOM     18  C   UNL d   1      29.977 -16.533  -5.424  0.00  0.00     0.182 A 
ATOM     19  H   UNL d   1      29.658 -18.590  -5.266  0.00  0.00     0.166 HD
ENDBRANCH  13  14
ENDBRANCH  12  13
ENDBRANCH  11  12
ENDBRANCH   8  11
ENDBRANCH   3   5
BRANCH   1  20
ATOM     20  C   UNL d   1      25.104 -15.887  -1.383  0.00  0.00     0.036 A 
ATOM     21  C   UNL d   1      23.721 -15.951  -1.607  0.00  0.00     0.020 A 
ATOM     22  C   UNL d   1      22.894 -16.857  -0.887  0.00  0.00     0.040 A 
ATOM     23  C   UNL d   1      23.413 -17.794   0.036  0.00  0.00     0.102 A 
ATOM     24  C   UNL d   1      24.821 -17.772   0.210  0.00  0.00     0.102 A 
ATOM     25  C   UNL d   1      25.622 -16.819  -0.487  0.00  0.00     0.056 A 
BRANCH  23  26
ATOM     26  O   UNL d   1      22.457 -18.720   0.457  0.00  0.00    -0.345 OA
BRANCH  26  27
ATOM     27  C   UNL d   1      21.597 -19.325  -0.516  0.00  0.00     0.202 C 
BRANCH  27  28
ATOM     28  C   UNL d   1      20.130 -18.974  -0.516  0.00  0.00    -0.011 C 
ATOM     29  C   UNL d   1      19.220 -19.955  -0.320  0.00  0.00     0.009 C 
ENDBRANCH  27  28
ENDBRANCH  26  27
ENDBRANCH  23  26
BRANCH  24  30
ATOM     30  O   UNL d   1      25.693 -18.570   0.918  0.00  0.00    -0.353 OA
ATOM     31  C   UNL d   1      27.026 -18.549   0.515  0.00  0.00     0.210 C 
ENDBRANCH  24  30
ENDBRANCH   1  20
TORSDOF 10
ENDMDL
MODEL 7
REMARK VINA RESULT:    -6.296      8.341     11.853
REMARK INTER + INTRA:         -11.116
REMARK INTER:                  -9.279
REMARK INTRA:                  -1.837
REMARK CONF_INDEPENDENT:        2.983
REMARK UNBOUND:                -1.837
REMARK  10 active torsions:
REMARK  status: ('A' for Active; 'I' for Inactive)
REMARK    1  A    between atoms: C_2  and  C_3 
REMARK    2  A    between atoms: C_3  and  O_4 
REMARK    3  A    between atoms: O_4  and  C_5 
REMARK    4  A    between atoms: C_8  and  C_9 
REMARK       I    between atoms: C_9  and  N_11 
REMARK    5  A    between atoms: N_11  and  N_12 
REMARK       I    between atoms: N_12  and  C_13 
REMARK       I    between atoms: C_13  and  N_15 
REMARK    6  A    between atoms: N_15  and  C_16 
REMARK    7  A    between atoms: C_16  and  C_17 
REMARK    8  A    between atoms: C_17  and  C_18 
REMARK    9  A    between atoms: C_18  and  N_19 
REMARK   10  A    between atoms: C_25  and  O_26 
ROOT
ATOM      1  C   UNL d   1      27.444 -16.627   0.260  0.00  0.00     0.270 C 
ATOM      2  O   UNL d   1      28.287 -17.445  -0.075  0.00  0.00    -0.266 OA
ATOM      3  N   UNL d   1      27.790 -15.467   0.974  0.00  0.00    -0.262 N 
ATOM      4  H   UNL d   1      27.133 -14.747   1.256  0.00  0.00     0.190 HD
ENDROOT
BRANCH   3   5
ATOM      5  N   UNL d   1      29.163 -15.194   1.309  0.00  0.00    -0.249 N 
ATOM      6  C   UNL d   1      29.510 -13.903   1.699  0.00  0.00     0.334 C 
ATOM      7  O   UNL d   1      28.703 -12.988   1.757  0.00  0.00    -0.246 OA
ATOM      8  N   UNL d   1      30.850 -13.728   2.020  0.00  0.00    -0.342 N 
ATOM      9  H   UNL d   1      31.473 -14.519   1.954  0.00  0.00     0.164 HD
ATOM     10  H   UNL d   1      29.801 -15.978   1.240  0.00  0.00     0.192 HD
BRANCH   8  11
ATOM     11  C   UNL d   1      31.355 -12.420   2.457  0.00  0.00     0.126 C 
BRANCH  11  12
ATOM     12  C   UNL d   1      31.810 -12.387   3.921  0.00  0.00     0.040 C 
BRANCH  12  13
ATOM     13  C   UNL d   1      30.654 -12.135   4.900  0.00  0.00     0.130 C 
BRANCH  13  14
ATOM     14  N   UNL d   1      29.657 -13.229   4.869  0.00  0.00    -0.352 N 
ATOM     15  C   UNL d   1      28.272 -13.075   4.881  0.00  0.00     0.108 A 
ATOM     16  C   UNL d   1      27.727 -14.326   4.841  0.00  0.00     0.106 A 
ATOM     17  N   UNL d   1      28.783 -15.202   4.778  0.00  0.00    -0.361 N 
ATOM     18  C   UNL d   1      29.946 -14.541   4.786  0.00  0.00     0.182 A 
ATOM     19  H   UNL d   1      28.700 -16.215   4.728  0.00  0.00     0.166 HD
ENDBRANCH  13  14
ENDBRANCH  12  13
ENDBRANCH  11  12
ENDBRANCH   8  11
ENDBRANCH   3   5
BRANCH   1  20
ATOM     20  C   UNL d   1      25.981 -16.833  -0.128  0.00  0.00     0.036 A 
ATOM     21  C   UNL d   1      25.229 -17.882   0.419  0.00  0.00     0.020 A 
ATOM     22  C   UNL d   1      23.903 -18.153  -0.022  0.00  0.00     0.040 A 
ATOM     23  C   UNL d   1      23.237 -17.348  -0.974  0.00  0.00     0.102 A 
ATOM     24  C   UNL d   1      23.978 -16.247  -1.475  0.00  0.00     0.102 A 
ATOM     25  C   UNL d   1      25.323 -16.027  -1.054  0.00  0.00     0.056 A 
BRANCH  23  26
ATOM     26  O   UNL d   1      21.883 -17.666  -1.092  0.00  0.00    -0.345 OA
BRANCH  26  27
ATOM     27  C   UNL d   1      21.420 -18.935  -0.617  0.00  0.00     0.202 C 
BRANCH  27  28
ATOM     28  C   UNL d   1      20.000 -19.352  -0.905  0.00  0.00    -0.011 C 
ATOM     29  C   UNL d   1      19.304 -20.018   0.045  0.00  0.00     0.009 C 
ENDBRANCH  27  28
ENDBRANCH  26  27
ENDBRANCH  23  26
BRANCH  24  30
ATOM     30  O   UNL d   1      23.656 -15.200  -2.311  0.00  0.00    -0.353 OA
ATOM     31  C   UNL d   1      24.720 -14.480  -2.848  0.00  0.00     0.210 C 
ENDBRANCH  24  30
ENDBRANCH   1  20
TORSDOF 10
ENDMDL
MODEL 8
REMARK VINA RESULT:    -6.047      6.897      9.906
REMARK INTER + INTRA:         -11.245
REMARK INTER:                  -9.030
REMARK INTRA:                  -2.215
REMARK CONF_INDEPENDENT:        2.983
REMARK UNBOUND:                -2.215
REMARK  10 active torsions:
REMARK  status: ('A' for Active; 'I' for Inactive)
REMARK    1  A    between atoms: C_2  and  C_3 
REMARK    2  A    between atoms: C_3  and  O_4 
REMARK    3  A    between atoms: O_4  and  C_5 
REMARK    4  A    between atoms: C_8  and  C_9 
REMARK       I    between atoms: C_9  and  N_11 
REMARK    5  A    between atoms: N_11  and  N_12 
REMARK       I    between atoms: N_12  and  C_13 
REMARK       I    between atoms: C_13  and  N_15 
REMARK    6  A    between atoms: N_15  and  C_16 
REMARK    7  A    between atoms: C_16  and  C_17 
REMARK    8  A    between atoms: C_17  and  C_18 
REMARK    9  A    between atoms: C_18  and  N_19 
REMARK   10  A    between atoms: C_25  and  O_26 
ROOT
ATOM      1  C   UNL d   1      25.900 -14.917  -2.368  0.00  0.00     0.270 C 
ATOM      2  O   UNL d   1      26.851 -14.402  -1.802  0.00  0.00    -0.266 OA
ATOM      3  N   UNL d   1      25.556 -14.574  -3.687  0.00  0.00    -0.262 N 
ATOM      4  H   UNL d   1      24.791 -14.988  -4.209  0.00  0.00     0.190 HD
ENDROOT
BRANCH   3   5
ATOM      5  N   UNL d   1      26.341 -13.619  -4.425  0.00  0.00    -0.249 N 
ATOM      6  C   UNL d   1      27.131 -14.076  -5.476  0.00  0.00     0.334 C 
ATOM      7  O   UNL d   1      27.198 -15.253  -5.793  0.00  0.00    -0.246 OA
ATOM      8  N   UNL d   1      27.844 -13.089  -6.145  0.00  0.00    -0.342 N 
ATOM      9  H   UNL d   1      27.751 -12.131  -5.841  0.00  0.00     0.164 HD
ATOM     10  H   UNL d   1      26.263 -12.654  -4.124  0.00  0.00     0.192 HD
BRANCH   8  11
ATOM     11  C   UNL d   1      28.711 -13.426  -7.282  0.00  0.00     0.126 C 
BRANCH  11  12
ATOM     12  C   UNL d   1      29.796 -14.457  -6.951  0.00  0.00     0.040 C 
BRANCH  12  13
ATOM     13  C   UNL d   1      30.515 -14.163  -5.626  0.00  0.00     0.130 C 
BRANCH  13  14
ATOM     14  N   UNL d   1      29.966 -14.965  -4.510  0.00  0.00    -0.352 N 
ATOM     15  C   UNL d   1      29.821 -16.351  -4.492  0.00  0.00     0.108 A 
ATOM     16  C   UNL d   1      29.280 -16.683  -3.283  0.00  0.00     0.106 A 
ATOM     17  N   UNL d   1      29.137 -15.507  -2.590  0.00  0.00    -0.361 N 
ATOM     18  C   UNL d   1      29.558 -14.472  -3.326  0.00  0.00     0.182 A 
ATOM     19  H   UNL d   1      28.767 -15.425  -1.646  0.00  0.00     0.166 HD
ENDBRANCH  13  14
ENDBRANCH  12  13
ENDBRANCH  11  12
ENDBRANCH   8  11
ENDBRANCH   3   5
BRANCH   1  20
ATOM     20  C   UNL d   1      25.073 -15.986  -1.656  0.00  0.00     0.036 A 
ATOM     21  C   UNL d   1      23.672 -15.927  -1.644  0.00  0.00     0.020 A 
ATOM     22  C   UNL d   1      22.897 -16.850  -0.888  0.00  0.00     0.040 A 
ATOM     23  C   UNL d   1      23.475 -17.920  -0.168  0.00  0.00     0.102 A 
ATOM     24  C   UNL d   1      24.888 -18.017  -0.238  0.00  0.00     0.102 A 
ATOM     25  C   UNL d   1      25.646 -17.049  -0.962  0.00  0.00     0.056 A 
BRANCH  23  26
ATOM     26  O   UNL d   1      22.522 -18.819   0.314  0.00  0.00    -0.345 OA
BRANCH  26  27
ATOM     27  C   UNL d   1      21.311 -19.017  -0.425  0.00  0.00     0.202 C 
BRANCH  27  28
ATOM     28  C   UNL d   1      20.154 -19.719   0.238  0.00  0.00    -0.011 C 
ATOM     29  C   UNL d   1      19.053 -20.007  -0.494  0.00  0.00     0.009 C 
ENDBRANCH  27  28
ENDBRANCH  26  27
ENDBRANCH  23  26
BRANCH  24  30
ATOM     30  O   UNL d   1      25.791 -18.950   0.225  0.00  0.00    -0.353 OA
ATOM     31  C   UNL d   1      27.030 -18.468   0.640  0.00  0.00     0.210 C 
ENDBRANCH  24  30
ENDBRANCH   1  20
TORSDOF 10
ENDMDL
MODEL 9
REMARK VINA RESULT:    -5.653      9.377     12.435
REMARK INTER + INTRA:         -10.764
REMARK INTER:                  -8.636
REMARK INTRA:                  -2.128
REMARK CONF_INDEPENDENT:        2.983
REMARK UNBOUND:                -2.128
REMARK  10 active torsions:
REMARK  status: ('A' for Active; 'I' for Inactive)
REMARK    1  A    between atoms: C_2  and  C_3 
REMARK    2  A    between atoms: C_3  and  O_4 
REMARK    3  A    between atoms: O_4  and  C_5 
REMARK    4  A    between atoms: C_8  and  C_9 
REMARK       I    between atoms: C_9  and  N_11 
REMARK    5  A    between atoms: N_11  and  N_12 
REMARK       I    between atoms: N_12  and  C_13 
REMARK       I    between atoms: C_13  and  N_15 
REMARK    6  A    between atoms: N_15  and  C_16 
REMARK    7  A    between atoms: C_16  and  C_17 
REMARK    8  A    between atoms: C_17  and  C_18 
REMARK    9  A    between atoms: C_18  and  N_19 
REMARK   10  A    between atoms: C_25  and  O_26 
ROOT
ATOM      1  C   UNL d   1      28.535 -13.941   2.980  0.00  0.00     0.270 C 
ATOM      2  O   UNL d   1      28.165 -12.906   3.511  0.00  0.00    -0.266 OA
ATOM      3  N   UNL d   1      29.598 -14.697   3.504  0.00  0.00    -0.262 N 
ATOM      4  H   UNL d   1      29.929 -15.573   3.114  0.00  0.00     0.190 HD
ENDROOT
BRANCH   3   5
ATOM      5  N   UNL d   1      30.268 -14.283   4.708  0.00  0.00    -0.249 N 
ATOM      6  C   UNL d   1      29.600 -14.415   5.922  0.00  0.00     0.334 C 
ATOM      7  O   UNL d   1      28.464 -14.856   6.010  0.00  0.00    -0.246 OA
ATOM      8  N   UNL d   1      30.322 -14.008   7.037  0.00  0.00    -0.342 N 
ATOM      9  H   UNL d   1      31.258 -13.651   6.906  0.00  0.00     0.164 HD
ATOM     10  H   UNL d   1      31.206 -13.915   4.591  0.00  0.00     0.192 HD
BRANCH   8  11
ATOM     11  C   UNL d   1      29.744 -14.101   8.384  0.00  0.00     0.126 C 
BRANCH  11  12
ATOM     12  C   UNL d   1      29.777 -12.782   9.167  0.00  0.00     0.040 C 
BRANCH  12  13
ATOM     13  C   UNL d   1      28.537 -11.911   8.920  0.00  0.00     0.130 C 
BRANCH  13  14
ATOM     14  N   UNL d   1      28.516 -11.357   7.547  0.00  0.00    -0.352 N 
ATOM     15  C   UNL d   1      29.278 -10.286   7.084  0.00  0.00     0.108 A 
ATOM     16  C   UNL d   1      28.959 -10.102   5.770  0.00  0.00     0.106 A 
ATOM     17  N   UNL d   1      28.040 -11.075   5.459  0.00  0.00    -0.361 N 
ATOM     18  C   UNL d   1      27.780 -11.837   6.527  0.00  0.00     0.182 A 
ATOM     19  H   UNL d   1      27.615 -11.207   4.544  0.00  0.00     0.166 HD
ENDBRANCH  13  14
ENDBRANCH  12  13
ENDBRANCH  11  12
ENDBRANCH   8  11
ENDBRANCH   3   5
BRANCH   1  20
ATOM     20  C   UNL d   1      27.816 -14.463   1.737  0.00  0.00     0.036 A 
ATOM     21  C   UNL d   1      27.050 -13.607   0.932  0.00  0.00     0.020 A 
ATOM     22  C   UNL d   1      26.283 -14.104  -0.158  0.00  0.00     0.040 A 
ATOM     23  C   UNL d   1      26.299 -15.464  -0.545  0.00  0.00     0.102 A 
ATOM     24  C   UNL d   1      27.128 -16.314   0.231  0.00  0.00     0.102 A 
ATOM     25  C   UNL d   1      27.847 -15.801   1.351  0.00  0.00     0.056 A 
BRANCH  23  26
ATOM     26  O   UNL d   1      25.651 -15.683  -1.762  0.00  0.00    -0.345 OA
BRANCH  26  27
ATOM     27  C   UNL d   1      24.328 -16.231  -1.760  0.00  0.00     0.202 C 
BRANCH  27  28
ATOM     28  C   UNL d   1      23.866 -17.024  -0.564  0.00  0.00    -0.011 C 
ATOM     29  C   UNL d   1      23.117 -18.134  -0.760  0.00  0.00     0.009 C 
ENDBRANCH  27  28
ENDBRANCH  26  27
ENDBRANCH  23  26
BRANCH  24  30
ATOM     30  O   UNL d   1      27.485 -17.640   0.115  0.00  0.00    -0.353 OA
ATOM     31  C   UNL d   1      26.597 -18.575   0.641  0.00  0.00     0.210 C 
ENDBRANCH  24  30
ENDBRANCH   1  20
TORSDOF 10
ENDMDL
