MODEL 1
REMARK VINA RESULT:    -9.511      0.000      0.000
REMARK INTER + INTRA:         -15.467
REMARK INTER:                 -13.986
REMARK INTRA:                  -1.481
REMARK CONF_INDEPENDENT:        4.474
REMARK UNBOUND:                -1.481
REMARK  15 active torsions:
REMARK  status: ('A' for Active; 'I' for Inactive)
REMARK    1  A    between atoms: C_2  and  C_3 
REMARK    2  A    between atoms: C_3  and  C_4 
REMARK    3  A    between atoms: C_4  and  C_5 
REMARK    4  A    between atoms: C_5  and  C_6 
REMARK    5  A    between atoms: C_6  and  O_7 
REMARK    6  A    between atoms: O_7  and  C_8 
REMARK    7  A    between atoms: C_11  and  C_12 
REMARK       I    between atoms: C_12  and  N_14 
REMARK    8  A    between atoms: N_14  and  C_15 
REMARK    9  A    between atoms: C_15  and  N_17 
REMARK   10  A    between atoms: N_17  and  C_18 
REMARK   11  A    between atoms: C_21  and  O_22 
REMARK   12  A    between atoms: O_22  and  C_23 
REMARK   13  A    between atoms: C_23  and  C_24 
REMARK   14  A    between atoms: C_24  and  O_25 
REMARK   15  A    between atoms: O_25  and  C_26 
ROOT
ATOM      1  C   UNL d   1      27.785 -14.474   1.746  0.00  0.00     0.257 C 
ATOM      2  O   UNL d   1      26.799 -14.025   1.150  0.00  0.00    -0.267 OA
ATOM      3  N   UNL d   1      28.730 -15.362   1.175  0.00  0.00    -0.299 N 
ATOM      4  H   UNL d   1      29.527 -15.633   1.731  0.00  0.00     0.171 HD
ENDROOT
BRANCH   3   5
ATOM      5  C   UNL d   1      28.621 -15.942  -0.112  0.00  0.00     0.179 C 
ATOM      6  S   UNL d   1      29.199 -15.173  -1.506  0.00  0.00    -0.040 SA
BRANCH   5   7
ATOM      7  N   UNL d   1      27.949 -17.194  -0.143  0.00  0.00    -0.333 N 
ATOM      8  H   UNL d   1      28.426 -18.039   0.148  0.00  0.00     0.168 HD
BRANCH   7   9
ATOM      9  C   UNL d   1      26.518 -17.314  -0.277  0.00  0.00     0.034 A 
ATOM     10  C   UNL d   1      25.764 -18.292   0.382  0.00  0.00     0.032 A 
ATOM     11  C   UNL d   1      24.353 -18.322   0.232  0.00  0.00     0.039 A 
ATOM     12  C   UNL d   1      23.680 -17.354  -0.527  0.00  0.00     0.069 A 
ATOM     13  C   UNL d   1      24.438 -16.412  -1.204  0.00  0.00     0.039 A 
ATOM     14  C   UNL d   1      25.829 -16.423  -1.108  0.00  0.00     0.032 A 
BRANCH  12  15
ATOM     15  O   UNL d   1      22.308 -17.401  -0.545  0.00  0.00    -0.349 OA
BRANCH  15  16
ATOM     16  C   UNL d   1      21.716 -18.679  -0.247  0.00  0.00     0.201 C 
BRANCH  16  17
ATOM     17  C   UNL d   1      20.337 -18.771  -0.895  0.00  0.00     0.194 C 
BRANCH  17  18
ATOM     18  O   UNL d   1      19.876 -20.128  -0.894  0.00  0.00    -0.389 OA
BRANCH  18  19
ATOM     19  C   UNL d   1      19.721 -20.608   0.442  0.00  0.00     0.163 C 
ATOM     20  C   UNL d   1      18.318 -21.148   0.630  0.00  0.00     0.033 C 
ENDBRANCH  18  19
ENDBRANCH  17  18
ENDBRANCH  16  17
ENDBRANCH  15  16
ENDBRANCH  12  15
ENDBRANCH   7   9
ENDBRANCH   5   7
ENDBRANCH   3   5
BRANCH   1  21
ATOM     21  C   UNL d   1      27.905 -13.965   3.141  0.00  0.00     0.033 A 
ATOM     22  C   UNL d   1      28.069 -14.897   4.190  0.00  0.00     0.020 A 
ATOM     23  C   UNL d   1      28.199 -14.481   5.521  0.00  0.00     0.039 A 
ATOM     24  C   UNL d   1      28.152 -13.118   5.842  0.00  0.00     0.086 A 
ATOM     25  C   UNL d   1      28.027 -12.190   4.790  0.00  0.00     0.045 A 
ATOM     26  C   UNL d   1      27.885 -12.618   3.458  0.00  0.00     0.039 A 
ATOM     27 BR   UNL d   1      28.156 -10.294   4.930  0.00  0.00    -0.048 Br
BRANCH  24  28
ATOM     28  O   UNL d   1      28.336 -12.834   7.172  0.00  0.00    -0.350 OA
BRANCH  28  29
ATOM     29  C   UNL d   1      29.695 -12.661   7.570  0.00  0.00     0.175 C 
BRANCH  29  30
ATOM     30  C   UNL d   1      30.132 -13.808   8.467  0.00  0.00     0.027 C 
BRANCH  30  31
ATOM     31  C   UNL d   1      28.905 -14.445   9.119  0.00  0.00     0.002 C 
BRANCH  31  32
ATOM     32  C   UNL d   1      29.204 -14.824  10.561  0.00  0.00    -0.000 C 
BRANCH  32  33
ATOM     33  C   UNL d   1      28.466 -13.909  11.530  0.00  0.00    -0.005 C 
ATOM     34  C   UNL d   1      27.780 -12.785  10.776  0.00  0.00     0.005 C 
ENDBRANCH  32  33
ENDBRANCH  31  32
ENDBRANCH  30  31
ENDBRANCH  29  30
ENDBRANCH  28  29
ENDBRANCH  24  28
ENDBRANCH   1  21
TORSDOF 15
ENDMDL
MODEL 2
REMARK VINA RESULT:    -9.433      0.673      1.162
REMARK INTER + INTRA:         -15.246
REMARK INTER:                 -13.908
REMARK INTRA:                  -1.339
REMARK CONF_INDEPENDENT:        4.474
REMARK UNBOUND:                -1.339
REMARK  15 active torsions:
REMARK  status: ('A' for Active; 'I' for Inactive)
REMARK    1  A    between atoms: C_2  and  C_3 
REMARK    2  A    between atoms: C_3  and  C_4 
REMARK    3  A    between atoms: C_4  and  C_5 
REMARK    4  A    between atoms: C_5  and  C_6 
REMARK    5  A    between atoms: C_6  and  O_7 
REMARK    6  A    between atoms: O_7  and  C_8 
REMARK    7  A    between atoms: C_11  and  C_12 
REMARK       I    between atoms: C_12  and  N_14 
REMARK    8  A    between atoms: N_14  and  C_15 
REMARK    9  A    between atoms: C_15  and  N_17 
REMARK   10  A    between atoms: N_17  and  C_18 
REMARK   11  A    between atoms: C_21  and  O_22 
REMARK   12  A    between atoms: O_22  and  C_23 
REMARK   13  A    between atoms: C_23  and  C_24 
REMARK   14  A    between atoms: C_24  and  O_25 
REMARK   15  A    between atoms: O_25  and  C_26 
ROOT
ATOM      1  C   UNL d   1      27.829 -14.484   1.372  0.00  0.00     0.257 C 
ATOM      2  O   UNL d   1      26.935 -14.087   0.616  0.00  0.00    -0.267 OA
ATOM      3  N   UNL d   1      28.780 -15.478   1.034  0.00  0.00    -0.299 N 
ATOM      4  H   UNL d   1      29.500 -15.698   1.705  0.00  0.00     0.171 HD
ENDROOT
BRANCH   3   5
ATOM      5  C   UNL d   1      28.774 -16.229  -0.166  0.00  0.00     0.179 C 
ATOM      6  S   UNL d   1      29.626 -15.742  -1.546  0.00  0.00    -0.040 SA
BRANCH   5   7
ATOM      7  N   UNL d   1      27.962 -17.395  -0.132  0.00  0.00    -0.333 N 
ATOM      8  H   UNL d   1      28.338 -18.273   0.207  0.00  0.00     0.168 HD
BRANCH   7   9
ATOM      9  C   UNL d   1      26.526 -17.356  -0.265  0.00  0.00     0.034 A 
ATOM     10  C   UNL d   1      25.860 -16.491  -1.142  0.00  0.00     0.032 A 
ATOM     11  C   UNL d   1      24.445 -16.537  -1.248  0.00  0.00     0.039 A 
ATOM     12  C   UNL d   1      23.691 -17.476  -0.528  0.00  0.00     0.069 A 
ATOM     13  C   UNL d   1      24.356 -18.303   0.363  0.00  0.00     0.039 A 
ATOM     14  C   UNL d   1      25.739 -18.211   0.514  0.00  0.00     0.032 A 
BRANCH  12  15
ATOM     15  O   UNL d   1      22.339 -17.515  -0.759  0.00  0.00    -0.349 OA
BRANCH  15  16
ATOM     16  C   UNL d   1      21.781 -18.814  -1.030  0.00  0.00     0.201 C 
BRANCH  16  17
ATOM     17  C   UNL d   1      20.261 -18.760  -0.903  0.00  0.00     0.194 C 
BRANCH  17  18
ATOM     18  O   UNL d   1      19.704 -20.075  -1.018  0.00  0.00    -0.389 OA
BRANCH  18  19
ATOM     19  C   UNL d   1      19.604 -20.695   0.265  0.00  0.00     0.163 C 
ATOM     20  C   UNL d   1      19.859 -19.667   1.349  0.00  0.00     0.033 C 
ENDBRANCH  18  19
ENDBRANCH  17  18
ENDBRANCH  16  17
ENDBRANCH  15  16
ENDBRANCH  12  15
ENDBRANCH   7   9
ENDBRANCH   5   7
ENDBRANCH   3   5
BRANCH   1  21
ATOM     21  C   UNL d   1      27.831 -13.788   2.688  0.00  0.00     0.033 A 
ATOM     22  C   UNL d   1      28.030 -14.554   3.859  0.00  0.00     0.020 A 
ATOM     23  C   UNL d   1      28.053 -13.957   5.126  0.00  0.00     0.039 A 
ATOM     24  C   UNL d   1      27.863 -12.575   5.258  0.00  0.00     0.086 A 
ATOM     25  C   UNL d   1      27.702 -11.810   4.087  0.00  0.00     0.045 A 
ATOM     26  C   UNL d   1      27.668 -12.420   2.821  0.00  0.00     0.039 A 
ATOM     27 BR   UNL d   1      27.645  -9.909   3.976  0.00  0.00    -0.048 Br
BRANCH  24  28
ATOM     28  O   UNL d   1      27.952 -12.103   6.544  0.00  0.00    -0.350 OA
BRANCH  28  29
ATOM     29  C   UNL d   1      29.094 -12.551   7.273  0.00  0.00     0.175 C 
BRANCH  29  30
ATOM     30  C   UNL d   1      28.744 -12.737   8.740  0.00  0.00     0.027 C 
BRANCH  30  31
ATOM     31  C   UNL d   1      29.378 -14.027   9.259  0.00  0.00     0.002 C 
BRANCH  31  32
ATOM     32  C   UNL d   1      28.529 -14.633  10.365  0.00  0.00    -0.000 C 
BRANCH  32  33
ATOM     33  C   UNL d   1      27.719 -13.559  11.081  0.00  0.00    -0.005 C 
ATOM     34  C   UNL d   1      28.539 -12.934  12.194  0.00  0.00     0.005 C 
ENDBRANCH  32  33
ENDBRANCH  31  32
ENDBRANCH  30  31
ENDBRANCH  29  30
ENDBRANCH  28  29
ENDBRANCH  24  28
ENDBRANCH   1  21
TORSDOF 15
ENDMDL
MODEL 3
REMARK VINA RESULT:    -8.801      1.353      2.129
REMARK INTER + INTRA:         -14.913
REMARK INTER:                 -13.276
REMARK INTRA:                  -1.637
REMARK CONF_INDEPENDENT:        4.474
REMARK UNBOUND:                -1.637
REMARK  15 active torsions:
REMARK  status: ('A' for Active; 'I' for Inactive)
REMARK    1  A    between atoms: C_2  and  C_3 
REMARK    2  A    between atoms: C_3  and  C_4 
REMARK    3  A    between atoms: C_4  and  C_5 
REMARK    4  A    between atoms: C_5  and  C_6 
REMARK    5  A    between atoms: C_6  and  O_7 
REMARK    6  A    between atoms: O_7  and  C_8 
REMARK    7  A    between atoms: C_11  and  C_12 
REMARK       I    between atoms: C_12  and  N_14 
REMARK    8  A    between atoms: N_14  and  C_15 
REMARK    9  A    between atoms: C_15  and  N_17 
REMARK   10  A    between atoms: N_17  and  C_18 
REMARK   11  A    between atoms: C_21  and  O_22 
REMARK   12  A    between atoms: O_22  and  C_23 
REMARK   13  A    between atoms: C_23  and  C_24 
REMARK   14  A    between atoms: C_24  and  O_25 
REMARK   15  A    between atoms: O_25  and  C_26 
ROOT
ATOM      1  C   UNL d   1      27.846 -14.674   0.944  0.00  0.00     0.257 C 
ATOM      2  O   UNL d   1      26.947 -14.333   0.167  0.00  0.00    -0.267 OA
ATOM      3  N   UNL d   1      28.767 -15.720   0.693  0.00  0.00    -0.299 N 
ATOM      4  H   UNL d   1      29.494 -15.889   1.371  0.00  0.00     0.171 HD
ENDROOT
BRANCH   3   5
ATOM      5  C   UNL d   1      28.721 -16.588  -0.425  0.00  0.00     0.179 C 
ATOM      6  S   UNL d   1      29.607 -16.296  -1.838  0.00  0.00    -0.040 SA
BRANCH   5   7
ATOM      7  N   UNL d   1      27.839 -17.694  -0.280  0.00  0.00    -0.333 N 
ATOM      8  H   UNL d   1      28.162 -18.554   0.147  0.00  0.00     0.168 HD
BRANCH   7   9
ATOM      9  C   UNL d   1      26.409 -17.583  -0.429  0.00  0.00     0.034 A 
ATOM     10  C   UNL d   1      25.799 -16.826  -1.437  0.00  0.00     0.032 A 
ATOM     11  C   UNL d   1      24.383 -16.797  -1.544  0.00  0.00     0.039 A 
ATOM     12  C   UNL d   1      23.572 -17.557  -0.690  0.00  0.00     0.069 A 
ATOM     13  C   UNL d   1      24.184 -18.274   0.326  0.00  0.00     0.039 A 
ATOM     14  C   UNL d   1      25.571 -18.250   0.470  0.00  0.00     0.032 A 
BRANCH  12  15
ATOM     15  O   UNL d   1      22.219 -17.544  -0.921  0.00  0.00    -0.349 OA
BRANCH  15  16
ATOM     16  C   UNL d   1      21.470 -18.635  -0.354  0.00  0.00     0.201 C 
BRANCH  16  17
ATOM     17  C   UNL d   1      20.658 -19.326  -1.446  0.00  0.00     0.194 C 
BRANCH  17  18
ATOM     18  O   UNL d   1      19.464 -19.894  -0.896  0.00  0.00    -0.389 OA
BRANCH  18  19
ATOM     19  C   UNL d   1      19.550 -19.969   0.528  0.00  0.00     0.163 C 
ATOM     20  C   UNL d   1      18.559 -20.993   1.045  0.00  0.00     0.033 C 
ENDBRANCH  18  19
ENDBRANCH  17  18
ENDBRANCH  16  17
ENDBRANCH  15  16
ENDBRANCH  12  15
ENDBRANCH   7   9
ENDBRANCH   5   7
ENDBRANCH   3   5
BRANCH   1  21
ATOM     21  C   UNL d   1      27.888 -13.849   2.183  0.00  0.00     0.033 A 
ATOM     22  C   UNL d   1      27.402 -12.523   2.131  0.00  0.00     0.020 A 
ATOM     23  C   UNL d   1      27.404 -11.701   3.265  0.00  0.00     0.039 A 
ATOM     24  C   UNL d   1      27.908 -12.179   4.482  0.00  0.00     0.086 A 
ATOM     25  C   UNL d   1      28.357 -13.512   4.540  0.00  0.00     0.045 A 
ATOM     26  C   UNL d   1      28.362 -14.326   3.393  0.00  0.00     0.039 A 
ATOM     27 BR   UNL d   1      28.879 -14.464   6.105  0.00  0.00    -0.048 Br
BRANCH  24  28
ATOM     28  O   UNL d   1      27.815 -11.295   5.529  0.00  0.00    -0.350 OA
BRANCH  28  29
ATOM     29  C   UNL d   1      28.909 -10.389   5.653  0.00  0.00     0.175 C 
BRANCH  29  30
ATOM     30  C   UNL d   1      29.108  -9.997   7.108  0.00  0.00     0.027 C 
BRANCH  30  31
ATOM     31  C   UNL d   1      29.648 -11.194   7.892  0.00  0.00     0.002 C 
BRANCH  31  32
ATOM     32  C   UNL d   1      28.568 -11.774   8.791  0.00  0.00    -0.000 C 
BRANCH  32  33
ATOM     33  C   UNL d   1      28.989 -13.130   9.345  0.00  0.00    -0.005 C 
ATOM     34  C   UNL d   1      28.158 -13.483  10.564  0.00  0.00     0.005 C 
ENDBRANCH  32  33
ENDBRANCH  31  32
ENDBRANCH  30  31
ENDBRANCH  29  30
ENDBRANCH  28  29
ENDBRANCH  24  28
ENDBRANCH   1  21
TORSDOF 15
ENDMDL
MODEL 4
REMARK VINA RESULT:    -8.655      2.528     10.109
REMARK INTER + INTRA:         -14.527
REMARK INTER:                 -13.129
REMARK INTRA:                  -1.398
REMARK CONF_INDEPENDENT:        4.474
REMARK UNBOUND:                -1.398
REMARK  15 active torsions:
REMARK  status: ('A' for Active; 'I' for Inactive)
REMARK    1  A    between atoms: C_2  and  C_3 
REMARK    2  A    between atoms: C_3  and  C_4 
REMARK    3  A    between atoms: C_4  and  C_5 
REMARK    4  A    between atoms: C_5  and  C_6 
REMARK    5  A    between atoms: C_6  and  O_7 
REMARK    6  A    between atoms: O_7  and  C_8 
REMARK    7  A    between atoms: C_11  and  C_12 
REMARK       I    between atoms: C_12  and  N_14 
REMARK    8  A    between atoms: N_14  and  C_15 
REMARK    9  A    between atoms: C_15  and  N_17 
REMARK   10  A    between atoms: N_17  and  C_18 
REMARK   11  A    between atoms: C_21  and  O_22 
REMARK   12  A    between atoms: O_22  and  C_23 
REMARK   13  A    between atoms: C_23  and  C_24 
REMARK   14  A    between atoms: C_24  and  O_25 
REMARK   15  A    between atoms: O_25  and  C_26 
ROOT
ATOM      1  C   UNL d   1      28.799 -14.563   0.852  0.00  0.00     0.257 C 
ATOM      2  O   UNL d   1      28.567 -13.348   0.845  0.00  0.00    -0.267 OA
ATOM      3  N   UNL d   1      29.927 -15.159   1.469  0.00  0.00    -0.299 N 
ATOM      4  H   UNL d   1      30.000 -16.164   1.459  0.00  0.00     0.171 HD
ENDROOT
BRANCH   3   5
ATOM      5  C   UNL d   1      30.995 -14.445   2.064  0.00  0.00     0.179 C 
ATOM      6  S   UNL d   1      32.056 -13.480   1.162  0.00  0.00    -0.040 SA
BRANCH   5   7
ATOM      7  N   UNL d   1      31.132 -14.641   3.465  0.00  0.00    -0.333 N 
ATOM      8  H   UNL d   1      31.993 -15.012   3.849  0.00  0.00     0.168 HD
BRANCH   7   9
ATOM      9  C   UNL d   1      30.229 -14.064   4.430  0.00  0.00     0.034 A 
ATOM     10  C   UNL d   1      29.632 -14.801   5.460  0.00  0.00     0.032 A 
ATOM     11  C   UNL d   1      28.784 -14.154   6.397  0.00  0.00     0.039 A 
ATOM     12  C   UNL d   1      28.569 -12.769   6.351  0.00  0.00     0.069 A 
ATOM     13  C   UNL d   1      29.136 -12.055   5.307  0.00  0.00     0.039 A 
ATOM     14  C   UNL d   1      29.915 -12.703   4.349  0.00  0.00     0.032 A 
BRANCH  12  15
ATOM     15  O   UNL d   1      27.811 -12.210   7.349  0.00  0.00    -0.349 OA
BRANCH  15  16
ATOM     16  C   UNL d   1      28.522 -11.404   8.306  0.00  0.00     0.201 C 
BRANCH  16  17
ATOM     17  C   UNL d   1      28.923 -12.259   9.505  0.00  0.00     0.194 C 
BRANCH  17  18
ATOM     18  O   UNL d   1      27.779 -12.548  10.317  0.00  0.00    -0.389 OA
BRANCH  18  19
ATOM     19  C   UNL d   1      28.037 -13.658  11.178  0.00  0.00     0.163 C 
ATOM     20  C   UNL d   1      28.565 -14.822  10.364  0.00  0.00     0.033 C 
ENDBRANCH  18  19
ENDBRANCH  17  18
ENDBRANCH  16  17
ENDBRANCH  15  16
ENDBRANCH  12  15
ENDBRANCH   7   9
ENDBRANCH   5   7
ENDBRANCH   3   5
BRANCH   1  21
ATOM     21  C   UNL d   1      27.748 -15.361   0.162  0.00  0.00     0.033 A 
ATOM     22  C   UNL d   1      27.414 -16.632   0.679  0.00  0.00     0.020 A 
ATOM     23  C   UNL d   1      26.426 -17.426   0.082  0.00  0.00     0.039 A 
ATOM     24  C   UNL d   1      25.755 -16.975  -1.062  0.00  0.00     0.086 A 
ATOM     25  C   UNL d   1      26.065 -15.692  -1.553  0.00  0.00     0.045 A 
ATOM     26  C   UNL d   1      27.066 -14.908  -0.954  0.00  0.00     0.039 A 
ATOM     27 BR   UNL d   1      25.155 -14.763  -2.946  0.00  0.00    -0.048 Br
BRANCH  24  28
ATOM     28  O   UNL d   1      24.780 -17.821  -1.527  0.00  0.00    -0.350 OA
BRANCH  28  29
ATOM     29  C   UNL d   1      23.929 -18.371  -0.523  0.00  0.00     0.175 C 
BRANCH  29  30
ATOM     30  C   UNL d   1      22.641 -18.885  -1.146  0.00  0.00     0.027 C 
BRANCH  30  31
ATOM     31  C   UNL d   1      21.485 -18.694  -0.164  0.00  0.00     0.002 C 
BRANCH  31  32
ATOM     32  C   UNL d   1      20.207 -19.302  -0.719  0.00  0.00    -0.000 C 
BRANCH  32  33
ATOM     33  C   UNL d   1      19.619 -20.318   0.253  0.00  0.00    -0.005 C 
ATOM     34  C   UNL d   1      19.801 -19.845   1.684  0.00  0.00     0.005 C 
ENDBRANCH  32  33
ENDBRANCH  31  32
ENDBRANCH  30  31
ENDBRANCH  29  30
ENDBRANCH  28  29
ENDBRANCH  24  28
ENDBRANCH   1  21
TORSDOF 15
ENDMDL
MODEL 5
REMARK VINA RESULT:    -8.044      6.743      9.735
REMARK INTER + INTRA:         -14.138
REMARK INTER:                 -12.518
REMARK INTRA:                  -1.619
REMARK CONF_INDEPENDENT:        4.474
REMARK UNBOUND:                -1.619
REMARK  15 active torsions:
REMARK  status: ('A' for Active; 'I' for Inactive)
REMARK    1  A    between atoms: C_2  and  C_3 
REMARK    2  A    between atoms: C_3  and  C_4 
REMARK    3  A    between atoms: C_4  and  C_5 
REMARK    4  A    between atoms: C_5  and  C_6 
REMARK    5  A    between atoms: C_6  and  O_7 
REMARK    6  A    between atoms: O_7  and  C_8 
REMARK    7  A    between atoms: C_11  and  C_12 
REMARK       I    between atoms: C_12  and  N_14 
REMARK    8  A    between atoms: N_14  and  C_15 
REMARK    9  A    between atoms: C_15  and  N_17 
REMARK   10  A    between atoms: N_17  and  C_18 
REMARK   11  A    between atoms: C_21  and  O_22 
REMARK   12  A    between atoms: O_22  and  C_23 
REMARK   13  A    between atoms: C_23  and  C_24 
REMARK   14  A    between atoms: C_24  and  O_25 
REMARK   15  A    between atoms: O_25  and  C_26 
ROOT
ATOM      1  C   UNL d   1      27.638 -15.088  -5.002  0.00  0.00     0.257 C 
ATOM      2  O   UNL d   1      26.907 -15.201  -5.993  0.00  0.00    -0.267 OA
ATOM      3  N   UNL d   1      29.010 -14.738  -5.055  0.00  0.00    -0.299 N 
ATOM      4  H   UNL d   1      29.507 -14.625  -4.186  0.00  0.00     0.171 HD
ENDROOT
BRANCH   3   5
ATOM      5  C   UNL d   1      29.758 -14.577  -6.246  0.00  0.00     0.179 C 
ATOM      6  S   UNL d   1      29.373 -13.409  -7.411  0.00  0.00    -0.040 SA
BRANCH   5   7
ATOM      7  N   UNL d   1      30.826 -15.503  -6.404  0.00  0.00    -0.333 N 
ATOM      8  H   UNL d   1      31.780 -15.174  -6.497  0.00  0.00     0.168 HD
BRANCH   7   9
ATOM      9  C   UNL d   1      30.688 -16.914  -6.140  0.00  0.00     0.034 A 
ATOM     10  C   UNL d   1      30.776 -17.893  -7.137  0.00  0.00     0.032 A 
ATOM     11  C   UNL d   1      30.669 -19.267  -6.794  0.00  0.00     0.039 A 
ATOM     12  C   UNL d   1      30.529 -19.676  -5.460  0.00  0.00     0.069 A 
ATOM     13  C   UNL d   1      30.405 -18.698  -4.486  0.00  0.00     0.039 A 
ATOM     14  C   UNL d   1      30.446 -17.348  -4.833  0.00  0.00     0.032 A 
BRANCH  12  15
ATOM     15  O   UNL d   1      30.526 -21.025  -5.206  0.00  0.00    -0.349 OA
BRANCH  15  16
ATOM     16  C   UNL d   1      31.730 -21.563  -4.630  0.00  0.00     0.201 C 
BRANCH  16  17
ATOM     17  C   UNL d   1      31.387 -22.392  -3.395  0.00  0.00     0.194 C 
BRANCH  17  18
ATOM     18  O   UNL d   1      30.009 -22.785  -3.427  0.00  0.00    -0.389 OA
BRANCH  18  19
ATOM     19  C   UNL d   1      29.886 -24.203  -3.312  0.00  0.00     0.163 C 
ATOM     20  C   UNL d   1      28.538 -24.550  -2.713  0.00  0.00     0.033 C 
ENDBRANCH  18  19
ENDBRANCH  17  18
ENDBRANCH  16  17
ENDBRANCH  15  16
ENDBRANCH  12  15
ENDBRANCH   7   9
ENDBRANCH   5   7
ENDBRANCH   3   5
BRANCH   1  21
ATOM     21  C   UNL d   1      26.923 -15.332  -3.719  0.00  0.00     0.033 A 
ATOM     22  C   UNL d   1      25.569 -14.942  -3.614  0.00  0.00     0.020 A 
ATOM     23  C   UNL d   1      24.837 -15.156  -2.439  0.00  0.00     0.039 A 
ATOM     24  C   UNL d   1      25.447 -15.752  -1.327  0.00  0.00     0.086 A 
ATOM     25  C   UNL d   1      26.785 -16.173  -1.448  0.00  0.00     0.045 A 
ATOM     26  C   UNL d   1      27.514 -15.944  -2.628  0.00  0.00     0.039 A 
ATOM     27 BR   UNL d   1      27.770 -17.196  -0.177  0.00  0.00    -0.048 Br
BRANCH  24  28
ATOM     28  O   UNL d   1      24.616 -15.948  -0.252  0.00  0.00    -0.350 OA
BRANCH  28  29
ATOM     29  C   UNL d   1      23.458 -16.736  -0.521  0.00  0.00     0.175 C 
BRANCH  29  30
ATOM     30  C   UNL d   1      23.850 -18.183  -0.770  0.00  0.00     0.027 C 
BRANCH  30  31
ATOM     31  C   UNL d   1      22.650 -18.951  -1.324  0.00  0.00     0.002 C 
BRANCH  31  32
ATOM     32  C   UNL d   1      21.417 -18.702  -0.470  0.00  0.00    -0.000 C 
BRANCH  32  33
ATOM     33  C   UNL d   1      20.269 -19.612  -0.891  0.00  0.00    -0.005 C 
ATOM     34  C   UNL d   1      19.234 -19.701   0.215  0.00  0.00     0.005 C 
ENDBRANCH  32  33
ENDBRANCH  31  32
ENDBRANCH  30  31
ENDBRANCH  29  30
ENDBRANCH  28  29
ENDBRANCH  24  28
ENDBRANCH   1  21
TORSDOF 15
ENDMDL
MODEL 6
REMARK VINA RESULT:    -7.952      6.623      9.903
REMARK INTER + INTRA:         -14.139
REMARK INTER:                 -12.426
REMARK INTRA:                  -1.713
REMARK CONF_INDEPENDENT:        4.474
REMARK UNBOUND:                -1.713
REMARK  15 active torsions:
REMARK  status: ('A' for Active; 'I' for Inactive)
REMARK    1  A    between atoms: C_2  and  C_3 
REMARK    2  A    between atoms: C_3  and  C_4 
REMARK    3  A    between atoms: C_4  and  C_5 
REMARK    4  A    between atoms: C_5  and  C_6 
REMARK    5  A    between atoms: C_6  and  O_7 
REMARK    6  A    between atoms: O_7  and  C_8 
REMARK    7  A    between atoms: C_11  and  C_12 
REMARK       I    between atoms: C_12  and  N_14 
REMARK    8  A    between atoms: N_14  and  C_15 
REMARK    9  A    between atoms: C_15  and  N_17 
REMARK   10  A    between atoms: N_17  and  C_18 
REMARK   11  A    between atoms: C_21  and  O_22 
REMARK   12  A    between atoms: O_22  and  C_23 
REMARK   13  A    between atoms: C_23  and  C_24 
REMARK   14  A    between atoms: C_24  and  O_25 
REMARK   15  A    between atoms: O_25  and  C_26 
ROOT
ATOM      1  C   UNL d   1      25.667 -14.459  -3.242  0.00  0.00     0.257 C 
ATOM      2  O   UNL d   1      25.231 -14.712  -4.372  0.00  0.00    -0.267 OA
ATOM      3  N   UNL d   1      26.491 -13.350  -2.932  0.00  0.00    -0.299 N 
ATOM      4  H   UNL d   1      26.755 -13.205  -1.970  0.00  0.00     0.171 HD
ENDROOT
BRANCH   3   5
ATOM      5  C   UNL d   1      27.020 -12.443  -3.883  0.00  0.00     0.179 C 
ATOM      6  S   UNL d   1      26.235 -11.001  -4.296  0.00  0.00    -0.040 SA
BRANCH   5   7
ATOM      7  N   UNL d   1      28.234 -12.864  -4.492  0.00  0.00    -0.333 N 
ATOM      8  H   UNL d   1      28.887 -12.181  -4.858  0.00  0.00     0.168 HD
BRANCH   7   9
ATOM      9  C   UNL d   1      28.755 -14.202  -4.361  0.00  0.00     0.034 A 
ATOM     10  C   UNL d   1      29.041 -14.797  -3.126  0.00  0.00     0.032 A 
ATOM     11  C   UNL d   1      29.515 -16.135  -3.075  0.00  0.00     0.039 A 
ATOM     12  C   UNL d   1      29.656 -16.903  -4.239  0.00  0.00     0.069 A 
ATOM     13  C   UNL d   1      29.405 -16.293  -5.458  0.00  0.00     0.039 A 
ATOM     14  C   UNL d   1      29.002 -14.960  -5.511  0.00  0.00     0.032 A 
BRANCH  12  15
ATOM     15  O   UNL d   1      30.031 -18.215  -4.093  0.00  0.00    -0.349 OA
BRANCH  15  16
ATOM     16  C   UNL d   1      31.107 -18.663  -4.937  0.00  0.00     0.201 C 
BRANCH  16  17
ATOM     17  C   UNL d   1      30.542 -19.425  -6.133  0.00  0.00     0.194 C 
BRANCH  17  18
ATOM     18  O   UNL d   1      30.762 -18.690  -7.342  0.00  0.00    -0.389 OA
BRANCH  18  19
ATOM     19  C   UNL d   1      31.562 -19.443  -8.254  0.00  0.00     0.163 C 
ATOM     20  C   UNL d   1      30.780 -19.700  -9.526  0.00  0.00     0.033 C 
ENDBRANCH  18  19
ENDBRANCH  17  18
ENDBRANCH  16  17
ENDBRANCH  15  16
ENDBRANCH  12  15
ENDBRANCH   7   9
ENDBRANCH   5   7
ENDBRANCH   3   5
BRANCH   1  21
ATOM     21  C   UNL d   1      25.213 -15.433  -2.211  0.00  0.00     0.033 A 
ATOM     22  C   UNL d   1      23.826 -15.595  -1.997  0.00  0.00     0.020 A 
ATOM     23  C   UNL d   1      23.335 -16.503  -1.050  0.00  0.00     0.039 A 
ATOM     24  C   UNL d   1      24.222 -17.266  -0.278  0.00  0.00     0.086 A 
ATOM     25  C   UNL d   1      25.603 -17.129  -0.521  0.00  0.00     0.045 A 
ATOM     26  C   UNL d   1      26.086 -16.205  -1.465  0.00  0.00     0.039 A 
ATOM     27 BR   UNL d   1      26.995 -18.194   0.227  0.00  0.00    -0.048 Br
BRANCH  24  28
ATOM     28  O   UNL d   1      23.621 -18.151   0.582  0.00  0.00    -0.350 OA
BRANCH  28  29
ATOM     29  C   UNL d   1      22.215 -18.308   0.400  0.00  0.00     0.175 C 
BRANCH  29  30
ATOM     30  C   UNL d   1      21.934 -19.301  -0.716  0.00  0.00     0.027 C 
BRANCH  30  31
ATOM     31  C   UNL d   1      20.436 -19.325  -1.016  0.00  0.00     0.002 C 
BRANCH  31  32
ATOM     32  C   UNL d   1      19.633 -19.357   0.275  0.00  0.00    -0.000 C 
BRANCH  32  33
ATOM     33  C   UNL d   1      19.487 -20.783   0.792  0.00  0.00    -0.005 C 
ATOM     34  C   UNL d   1      18.029 -21.202   0.780  0.00  0.00     0.005 C 
ENDBRANCH  32  33
ENDBRANCH  31  32
ENDBRANCH  30  31
ENDBRANCH  29  30
ENDBRANCH  28  29
ENDBRANCH  24  28
ENDBRANCH   1  21
TORSDOF 15
ENDMDL
MODEL 7
REMARK VINA RESULT:    -7.868      6.770     10.264
REMARK INTER + INTRA:         -14.103
REMARK INTER:                 -12.343
REMARK INTRA:                  -1.760
REMARK CONF_INDEPENDENT:        4.474
REMARK UNBOUND:                -1.760
REMARK  15 active torsions:
REMARK  status: ('A' for Active; 'I' for Inactive)
REMARK    1  A    between atoms: C_2  and  C_3 
REMARK    2  A    between atoms: C_3  and  C_4 
REMARK    3  A    between atoms: C_4  and  C_5 
REMARK    4  A    between atoms: C_5  and  C_6 
REMARK    5  A    between atoms: C_6  and  O_7 
REMARK    6  A    between atoms: O_7  and  C_8 
REMARK    7  A    between atoms: C_11  and  C_12 
REMARK       I    between atoms: C_12  and  N_14 
REMARK    8  A    between atoms: N_14  and  C_15 
REMARK    9  A    between atoms: C_15  and  N_17 
REMARK   10  A    between atoms: N_17  and  C_18 
REMARK   11  A    between atoms: C_21  and  O_22 
REMARK   12  A    between atoms: O_22  and  C_23 
REMARK   13  A    between atoms: C_23  and  C_24 
REMARK   14  A    between atoms: C_24  and  O_25 
REMARK   15  A    between atoms: O_25  and  C_26 
ROOT
ATOM      1  C   UNL d   1      27.236 -14.868  -4.746  0.00  0.00     0.257 C 
ATOM      2  O   UNL d   1      26.872 -15.514  -5.736  0.00  0.00    -0.267 OA
ATOM      3  N   UNL d   1      28.220 -13.849  -4.774  0.00  0.00    -0.299 N 
ATOM      4  H   UNL d   1      28.412 -13.348  -3.921  0.00  0.00     0.171 HD
ENDROOT
BRANCH   3   5
ATOM      5  C   UNL d   1      28.997 -13.504  -5.906  0.00  0.00     0.179 C 
ATOM      6  S   UNL d   1      28.459 -12.405  -7.077  0.00  0.00    -0.040 SA
BRANCH   5   7
ATOM      7  N   UNL d   1      30.240 -14.188  -6.003  0.00  0.00    -0.333 N 
ATOM      8  H   UNL d   1      31.110 -13.670  -6.020  0.00  0.00     0.168 HD
BRANCH   7   9
ATOM      9  C   UNL d   1      30.375 -15.606  -5.775  0.00  0.00     0.034 A 
ATOM     10  C   UNL d   1      30.338 -16.185  -4.501  0.00  0.00     0.032 A 
ATOM     11  C   UNL d   1      30.438 -17.594  -4.358  0.00  0.00     0.039 A 
ATOM     12  C   UNL d   1      30.521 -18.436  -5.477  0.00  0.00     0.069 A 
ATOM     13  C   UNL d   1      30.594 -17.850  -6.731  0.00  0.00     0.039 A 
ATOM     14  C   UNL d   1      30.560 -16.463  -6.865  0.00  0.00     0.032 A 
BRANCH  12  15
ATOM     15  O   UNL d   1      30.521 -19.791  -5.254  0.00  0.00    -0.349 OA
BRANCH  15  16
ATOM     16  C   UNL d   1      31.739 -20.485  -5.580  0.00  0.00     0.201 C 
BRANCH  16  17
ATOM     17  C   UNL d   1      31.534 -21.322  -6.840  0.00  0.00     0.194 C 
BRANCH  17  18
ATOM     18  O   UNL d   1      30.900 -20.541  -7.859  0.00  0.00    -0.389 OA
BRANCH  18  19
ATOM     19  C   UNL d   1      31.869 -19.996  -8.756  0.00  0.00     0.163 C 
ATOM     20  C   UNL d   1      31.516 -20.376 -10.180  0.00  0.00     0.033 C 
ENDBRANCH  18  19
ENDBRANCH  17  18
ENDBRANCH  16  17
ENDBRANCH  15  16
ENDBRANCH  12  15
ENDBRANCH   7   9
ENDBRANCH   5   7
ENDBRANCH   3   5
BRANCH   1  21
ATOM     21  C   UNL d   1      26.512 -15.249  -3.503  0.00  0.00     0.033 A 
ATOM     22  C   UNL d   1      25.153 -14.885  -3.372  0.00  0.00     0.020 A 
ATOM     23  C   UNL d   1      24.413 -15.224  -2.231  0.00  0.00     0.039 A 
ATOM     24  C   UNL d   1      25.020 -15.925  -1.181  0.00  0.00     0.086 A 
ATOM     25  C   UNL d   1      26.363 -16.319  -1.331  0.00  0.00     0.045 A 
ATOM     26  C   UNL d   1      27.100 -15.963  -2.474  0.00  0.00     0.039 A 
ATOM     27 BR   UNL d   1      27.347 -17.457  -0.161  0.00  0.00    -0.048 Br
BRANCH  24  28
ATOM     28  O   UNL d   1      24.181 -16.238  -0.139  0.00  0.00    -0.350 OA
BRANCH  28  29
ATOM     29  C   UNL d   1      22.896 -16.721  -0.525  0.00  0.00     0.175 C 
BRANCH  29  30
ATOM     30  C   UNL d   1      22.970 -18.199  -0.875  0.00  0.00     0.027 C 
BRANCH  30  31
ATOM     31  C   UNL d   1      21.865 -18.956  -0.140  0.00  0.00     0.002 C 
BRANCH  31  32
ATOM     32  C   UNL d   1      20.725 -19.291  -1.089  0.00  0.00    -0.000 C 
BRANCH  32  33
ATOM     33  C   UNL d   1      19.403 -19.397  -0.339  0.00  0.00    -0.005 C 
ATOM     34  C   UNL d   1      19.502 -20.438   0.760  0.00  0.00     0.005 C 
ENDBRANCH  32  33
ENDBRANCH  31  32
ENDBRANCH  30  31
ENDBRANCH  29  30
ENDBRANCH  28  29
ENDBRANCH  24  28
ENDBRANCH   1  21
TORSDOF 15
ENDMDL
MODEL 8
REMARK VINA RESULT:    -7.699      7.079     11.021
REMARK INTER + INTRA:         -14.007
REMARK INTER:                 -12.173
REMARK INTRA:                  -1.834
REMARK CONF_INDEPENDENT:        4.474
REMARK UNBOUND:                -1.834
REMARK  15 active torsions:
REMARK  status: ('A' for Active; 'I' for Inactive)
REMARK    1  A    between atoms: C_2  and  C_3 
REMARK    2  A    between atoms: C_3  and  C_4 
REMARK    3  A    between atoms: C_4  and  C_5 
REMARK    4  A    between atoms: C_5  and  C_6 
REMARK    5  A    between atoms: C_6  and  O_7 
REMARK    6  A    between atoms: O_7  and  C_8 
REMARK    7  A    between atoms: C_11  and  C_12 
REMARK       I    between atoms: C_12  and  N_14 
REMARK    8  A    between atoms: N_14  and  C_15 
REMARK    9  A    between atoms: C_15  and  N_17 
REMARK   10  A    between atoms: N_17  and  C_18 
REMARK   11  A    between atoms: C_21  and  O_22 
REMARK   12  A    between atoms: O_22  and  C_23 
REMARK   13  A    between atoms: C_23  and  C_24 
REMARK   14  A    between atoms: C_24  and  O_25 
REMARK   15  A    between atoms: O_25  and  C_26 
ROOT
ATOM      1  C   UNL d   1      25.572 -14.113  -3.319  0.00  0.00     0.257 C 
ATOM      2  O   UNL d   1      24.898 -14.234  -4.349  0.00  0.00    -0.267 OA
ATOM      3  N   UNL d   1      26.504 -13.070  -3.090  0.00  0.00    -0.299 N 
ATOM      4  H   UNL d   1      26.970 -13.034  -2.197  0.00  0.00     0.171 HD
ENDROOT
BRANCH   3   5
ATOM      5  C   UNL d   1      26.872 -12.091  -4.043  0.00  0.00     0.179 C 
ATOM      6  S   UNL d   1      28.468 -11.550  -4.219  0.00  0.00    -0.040 SA
BRANCH   5   7
ATOM      7  N   UNL d   1      25.792 -11.568  -4.805  0.00  0.00    -0.333 N 
ATOM      8  H   UNL d   1      25.043 -12.176  -5.116  0.00  0.00     0.168 HD
BRANCH   7   9
ATOM      9  C   UNL d   1      25.521 -10.156  -4.918  0.00  0.00     0.034 A 
ATOM     10  C   UNL d   1      25.217  -9.527  -6.131  0.00  0.00     0.032 A 
ATOM     11  C   UNL d   1      24.923  -8.138  -6.157  0.00  0.00     0.039 A 
ATOM     12  C   UNL d   1      24.876  -7.381  -4.978  0.00  0.00     0.069 A 
ATOM     13  C   UNL d   1      25.214  -8.005  -3.787  0.00  0.00     0.039 A 
ATOM     14  C   UNL d   1      25.566  -9.354  -3.772  0.00  0.00     0.032 A 
BRANCH  12  15
ATOM     15  O   UNL d   1      24.493  -6.067  -5.082  0.00  0.00    -0.349 OA
BRANCH  15  16
ATOM     16  C   UNL d   1      24.348  -5.554  -6.419  0.00  0.00     0.201 C 
BRANCH  16  17
ATOM     17  C   UNL d   1      22.869  -5.498  -6.792  0.00  0.00     0.194 C 
BRANCH  17  18
ATOM     18  O   UNL d   1      22.587  -6.418  -7.854  0.00  0.00    -0.389 OA
BRANCH  18  19
ATOM     19  C   UNL d   1      21.178  -6.566  -8.034  0.00  0.00     0.163 C 
ATOM     20  C   UNL d   1      20.446  -5.922  -6.874  0.00  0.00     0.033 C 
ENDBRANCH  18  19
ENDBRANCH  17  18
ENDBRANCH  16  17
ENDBRANCH  15  16
ENDBRANCH  12  15
ENDBRANCH   7   9
ENDBRANCH   5   7
ENDBRANCH   3   5
BRANCH   1  21
ATOM     21  C   UNL d   1      25.290 -15.171  -2.310  0.00  0.00     0.033 A 
ATOM     22  C   UNL d   1      23.944 -15.488  -2.020  0.00  0.00     0.020 A 
ATOM     23  C   UNL d   1      23.613 -16.482  -1.089  0.00  0.00     0.039 A 
ATOM     24  C   UNL d   1      24.623 -17.177  -0.410  0.00  0.00     0.086 A 
ATOM     25  C   UNL d   1      25.963 -16.884  -0.730  0.00  0.00     0.045 A 
ATOM     26  C   UNL d   1      26.285 -15.877  -1.656  0.00  0.00     0.039 A 
ATOM     27 BR   UNL d   1      27.503 -17.825  -0.119  0.00  0.00    -0.048 Br
BRANCH  24  28
ATOM     28  O   UNL d   1      24.174 -18.155   0.441  0.00  0.00    -0.350 OA
BRANCH  28  29
ATOM     29  C   UNL d   1      23.303 -19.117  -0.151  0.00  0.00     0.175 C 
BRANCH  29  30
ATOM     30  C   UNL d   1      21.857 -18.808   0.200  0.00  0.00     0.027 C 
BRANCH  30  31
ATOM     31  C   UNL d   1      20.958 -19.144  -0.989  0.00  0.00     0.002 C 
BRANCH  31  32
ATOM     32  C   UNL d   1      19.512 -19.290  -0.541  0.00  0.00    -0.000 C 
BRANCH  32  33
ATOM     33  C   UNL d   1      19.339 -20.509   0.357  0.00  0.00    -0.005 C 
ATOM     34  C   UNL d   1      19.017 -20.079   1.775  0.00  0.00     0.005 C 
ENDBRANCH  32  33
ENDBRANCH  31  32
ENDBRANCH  30  31
ENDBRANCH  29  30
ENDBRANCH  28  29
ENDBRANCH  24  28
ENDBRANCH   1  21
TORSDOF 15
ENDMDL
MODEL 9
REMARK VINA RESULT:    -7.672      6.704      9.764
REMARK INTER + INTRA:         -13.970
REMARK INTER:                 -12.147
REMARK INTRA:                  -1.823
REMARK CONF_INDEPENDENT:        4.474
REMARK UNBOUND:                -1.823
REMARK  15 active torsions:
REMARK  status: ('A' for Active; 'I' for Inactive)
REMARK    1  A    between atoms: C_2  and  C_3 
REMARK    2  A    between atoms: C_3  and  C_4 
REMARK    3  A    between atoms: C_4  and  C_5 
REMARK    4  A    between atoms: C_5  and  C_6 
REMARK    5  A    between atoms: C_6  and  O_7 
REMARK    6  A    between atoms: O_7  and  C_8 
REMARK    7  A    between atoms: C_11  and  C_12 
REMARK       I    between atoms: C_12  and  N_14 
REMARK    8  A    between atoms: N_14  and  C_15 
REMARK    9  A    between atoms: C_15  and  N_17 
REMARK   10  A    between atoms: N_17  and  C_18 
REMARK   11  A    between atoms: C_21  and  O_22 
REMARK   12  A    between atoms: O_22  and  C_23 
REMARK   13  A    between atoms: C_23  and  C_24 
REMARK   14  A    between atoms: C_24  and  O_25 
REMARK   15  A    between atoms: O_25  and  C_26 
ROOT
ATOM      1  C   UNL d   1      27.261 -14.933  -4.734  0.00  0.00     0.257 C 
ATOM      2  O   UNL d   1      26.656 -15.244  -5.768  0.00  0.00    -0.267 OA
ATOM      3  N   UNL d   1      28.520 -14.285  -4.708  0.00  0.00    -0.299 N 
ATOM      4  H   UNL d   1      28.908 -14.032  -3.813  0.00  0.00     0.171 HD
ENDROOT
BRANCH   3   5
ATOM      5  C   UNL d   1      29.309 -14.003  -5.849  0.00  0.00     0.179 C 
ATOM      6  S   UNL d   1      29.814 -12.434  -6.238  0.00  0.00    -0.040 SA
BRANCH   5   7
ATOM      7  N   UNL d   1      29.602 -15.132  -6.662  0.00  0.00    -0.333 N 
ATOM      8  H   UNL d   1      29.755 -15.022  -7.657  0.00  0.00     0.168 HD
BRANCH   7   9
ATOM      9  C   UNL d   1      29.999 -16.408  -6.119  0.00  0.00     0.034 A 
ATOM     10  C   UNL d   1      30.007 -16.690  -4.747  0.00  0.00     0.032 A 
ATOM     11  C   UNL d   1      30.373 -17.984  -4.290  0.00  0.00     0.039 A 
ATOM     12  C   UNL d   1      30.678 -19.015  -5.190  0.00  0.00     0.069 A 
ATOM     13  C   UNL d   1      30.702 -18.716  -6.543  0.00  0.00     0.039 A 
ATOM     14  C   UNL d   1      30.406 -17.428  -6.986  0.00  0.00     0.032 A 
BRANCH  12  15
ATOM     15  O   UNL d   1      30.930 -20.260  -4.668  0.00  0.00    -0.349 OA
BRANCH  15  16
ATOM     16  C   UNL d   1      32.287 -20.509  -4.256  0.00  0.00     0.201 C 
BRANCH  16  17
ATOM     17  C   UNL d   1      32.454 -20.147  -2.783  0.00  0.00     0.194 C 
BRANCH  17  18
ATOM     18  O   UNL d   1      31.187 -20.180  -2.115  0.00  0.00    -0.389 OA
BRANCH  18  19
ATOM     19  C   UNL d   1      31.273 -19.548  -0.837  0.00  0.00     0.163 C 
ATOM     20  C   UNL d   1      30.679 -18.156  -0.916  0.00  0.00     0.033 C 
ENDBRANCH  18  19
ENDBRANCH  17  18
ENDBRANCH  16  17
ENDBRANCH  15  16
ENDBRANCH  12  15
ENDBRANCH   7   9
ENDBRANCH   5   7
ENDBRANCH   3   5
BRANCH   1  21
ATOM     21  C   UNL d   1      26.515 -15.286  -3.495  0.00  0.00     0.033 A 
ATOM     22  C   UNL d   1      25.164 -14.888  -3.380  0.00  0.00     0.020 A 
ATOM     23  C   UNL d   1      24.406 -15.200  -2.245  0.00  0.00     0.039 A 
ATOM     24  C   UNL d   1      24.984 -15.908  -1.183  0.00  0.00     0.086 A 
ATOM     25  C   UNL d   1      26.319 -16.335  -1.316  0.00  0.00     0.045 A 
ATOM     26  C   UNL d   1      27.076 -16.007  -2.454  0.00  0.00     0.039 A 
ATOM     27 BR   UNL d   1      27.263 -17.487  -0.127  0.00  0.00    -0.048 Br
BRANCH  24  28
ATOM     28  O   UNL d   1      24.128 -16.191  -0.147  0.00  0.00    -0.350 OA
BRANCH  28  29
ATOM     29  C   UNL d   1      22.853 -16.696  -0.540  0.00  0.00     0.175 C 
BRANCH  29  30
ATOM     30  C   UNL d   1      22.956 -18.170  -0.897  0.00  0.00     0.027 C 
BRANCH  30  31
ATOM     31  C   UNL d   1      21.896 -18.958  -0.127  0.00  0.00     0.002 C 
BRANCH  31  32
ATOM     32  C   UNL d   1      20.638 -19.120  -0.964  0.00  0.00    -0.000 C 
BRANCH  32  33
ATOM     33  C   UNL d   1      19.524 -19.774  -0.156  0.00  0.00    -0.005 C 
ATOM     34  C   UNL d   1      19.902 -19.831   1.312  0.00  0.00     0.005 C 
ENDBRANCH  32  33
ENDBRANCH  31  32
ENDBRANCH  30  31
ENDBRANCH  29  30
ENDBRANCH  28  29
ENDBRANCH  24  28
ENDBRANCH   1  21
TORSDOF 15
ENDMDL
