MODEL 1
REMARK VINA RESULT:    -9.538      0.000      0.000
REMARK INTER + INTRA:         -12.198
REMARK INTER:                 -11.328
REMARK INTRA:                  -0.871
REMARK CONF_INDEPENDENT:        1.790
REMARK UNBOUND:                -0.871
REMARK  6 active torsions:
REMARK  status: ('A' for Active; 'I' for Inactive)
REMARK    1  A    between atoms: O_2  and  C_3 
REMARK       I    between atoms: C_3  and  N_5 
REMARK    2  A    between atoms: N_5  and  C_6 
REMARK    3  A    between atoms: C_9  and  C_10 
REMARK    4  A    between atoms: C_10  and  N_11 
REMARK       I    between atoms: N_11  and  C_12 
REMARK    5  A    between atoms: C_12  and  C_14 
REMARK       I    between atoms: C_14  and  N_16 
REMARK    6  A    between atoms: N_16  and  C_17 
ROOT
ATOM      1  N   UNL d   1      26.407 -15.771  -2.247  0.00  0.00    -0.349 N 
ATOM      2  C   UNL d   1      25.886 -15.308  -3.439  0.00  0.00     0.309 C 
ATOM      3  O   UNL d   1      24.784 -14.802  -3.593  0.00  0.00    -0.262 OA
ATOM      4  H   UNL d   1      27.362 -16.105  -2.314  0.00  0.00     0.163 HD
ENDROOT
BRANCH   1   5
ATOM      5  C   UNL d   1      25.712 -15.734  -0.963  0.00  0.00     0.161 C 
BRANCH   5   6
ATOM      6  C   UNL d   1      24.572 -16.734  -0.802  0.00  0.00    -0.040 A 
ATOM      7  C   UNL d   1      23.222 -16.327  -0.897  0.00  0.00     0.011 A 
ATOM      8  C   UNL d   1      22.156 -17.215  -0.598  0.00  0.00     0.030 A 
ATOM      9  C   UNL d   1      22.433 -18.530  -0.217  0.00  0.00     0.036 A 
ATOM     10  C   UNL d   1      23.759 -18.949  -0.209  0.00  0.00     0.030 A 
ATOM     11  C   UNL d   1      24.804 -18.077  -0.501  0.00  0.00     0.011 A 
BRANCH   9  12
ATOM     12  N   UNL d   1      21.434 -19.465   0.144  0.00  0.00    -0.303 N 
ATOM     13  C   UNL d   1      20.403 -19.794  -0.717  0.00  0.00     0.364 C 
ATOM     14  O   UNL d   1      20.314 -19.427  -1.892  0.00  0.00    -0.238 OA
ATOM     15  H   UNL d   1      21.498 -19.959   1.024  0.00  0.00     0.171 HD
BRANCH  13  16
ATOM     16  O   UNL d   1      19.487 -20.625  -0.144  0.00  0.00    -0.309 OA
ATOM     17  C   UNL d   1      19.048 -20.158   1.145  0.00  0.00     0.215 C 
ENDBRANCH  13  16
ENDBRANCH   9  12
ENDBRANCH   5   6
ENDBRANCH   1   5
BRANCH   2  18
ATOM     18  C   UNL d   1      26.856 -15.488  -4.648  0.00  0.00     0.313 C 
ATOM     19  O   UNL d   1      26.363 -15.561  -5.769  0.00  0.00    -0.262 OA
ATOM     20  N   UNL d   1      28.206 -15.599  -4.328  0.00  0.00    -0.319 N 
ATOM     21  H   UNL d   1      28.442 -15.692  -3.343  0.00  0.00     0.169 HD
BRANCH  20  22
ATOM     22  C   UNL d   1      29.237 -15.691  -5.293  0.00  0.00     0.035 A 
ATOM     23  C   UNL d   1      29.445 -14.659  -6.219  0.00  0.00     0.031 A 
ATOM     24  C   UNL d   1      30.439 -14.781  -7.207  0.00  0.00     0.026 A 
ATOM     25  C   UNL d   1      31.242 -15.921  -7.254  0.00  0.00     0.034 A 
ATOM     26 CL   UNL d   1      32.525 -16.032  -8.395  0.00  0.00    -0.084 Cl
ATOM     27  C   UNL d   1      31.028 -16.958  -6.354  0.00  0.00     0.026 A 
ATOM     28  C   UNL d   1      30.034 -16.838  -5.376  0.00  0.00     0.031 A 
ENDBRANCH  20  22
ENDBRANCH   2  18
TORSDOF 6
ENDMDL
MODEL 2
REMARK VINA RESULT:    -9.473      5.696      7.764
REMARK INTER + INTRA:         -12.765
REMARK INTER:                 -11.262
REMARK INTRA:                  -1.503
REMARK CONF_INDEPENDENT:        1.790
REMARK UNBOUND:                -1.503
REMARK  6 active torsions:
REMARK  status: ('A' for Active; 'I' for Inactive)
REMARK    1  A    between atoms: O_2  and  C_3 
REMARK       I    between atoms: C_3  and  N_5 
REMARK    2  A    between atoms: N_5  and  C_6 
REMARK    3  A    between atoms: C_9  and  C_10 
REMARK    4  A    between atoms: C_10  and  N_11 
REMARK       I    between atoms: N_11  and  C_12 
REMARK    5  A    between atoms: C_12  and  C_14 
REMARK       I    between atoms: C_14  and  N_16 
REMARK    6  A    between atoms: N_16  and  C_17 
ROOT
ATOM      1  N   UNL d   1      26.232 -15.108   0.259  0.00  0.00    -0.349 N 
ATOM      2  C   UNL d   1      27.398 -15.269   0.980  0.00  0.00     0.309 C 
ATOM      3  O   UNL d   1      28.299 -16.054   0.723  0.00  0.00    -0.262 OA
ATOM      4  H   UNL d   1      25.633 -14.365   0.601  0.00  0.00     0.163 HD
ENDROOT
BRANCH   1   5
ATOM      5  C   UNL d   1      25.882 -15.864  -0.941  0.00  0.00     0.161 C 
BRANCH   5   6
ATOM      6  C   UNL d   1      24.689 -16.804  -0.803  0.00  0.00    -0.040 A 
ATOM      7  C   UNL d   1      23.364 -16.324  -0.907  0.00  0.00     0.011 A 
ATOM      8  C   UNL d   1      22.249 -17.157  -0.629  0.00  0.00     0.030 A 
ATOM      9  C   UNL d   1      22.450 -18.488  -0.259  0.00  0.00     0.036 A 
ATOM     10  C   UNL d   1      23.752 -18.978  -0.243  0.00  0.00     0.030 A 
ATOM     11  C   UNL d   1      24.846 -18.160  -0.513  0.00  0.00     0.011 A 
BRANCH   9  12
ATOM     12  N   UNL d   1      21.399 -19.372   0.081  0.00  0.00    -0.303 N 
ATOM     13  C   UNL d   1      20.411 -19.708  -0.826  0.00  0.00     0.364 C 
ATOM     14  O   UNL d   1      20.406 -19.394  -2.020  0.00  0.00    -0.238 OA
ATOM     15  H   UNL d   1      21.393 -19.826   0.985  0.00  0.00     0.171 HD
BRANCH  13  16
ATOM     16  O   UNL d   1      19.433 -20.480  -0.274  0.00  0.00    -0.309 OA
ATOM     17  C   UNL d   1      19.152 -20.123   1.092  0.00  0.00     0.215 C 
ENDBRANCH  13  16
ENDBRANCH   9  12
ENDBRANCH   5   6
ENDBRANCH   1   5
BRANCH   2  18
ATOM     18  C   UNL d   1      27.492 -14.328   2.221  0.00  0.00     0.313 C 
ATOM     19  O   UNL d   1      26.868 -13.272   2.184  0.00  0.00    -0.262 OA
ATOM     20  N   UNL d   1      28.327 -14.762   3.247  0.00  0.00    -0.319 N 
ATOM     21  H   UNL d   1      28.908 -15.575   3.058  0.00  0.00     0.169 HD
BRANCH  20  22
ATOM     22  C   UNL d   1      28.478 -14.082   4.478  0.00  0.00     0.035 A 
ATOM     23  C   UNL d   1      29.124 -14.693   5.561  0.00  0.00     0.031 A 
ATOM     24  C   UNL d   1      29.224 -14.029   6.797  0.00  0.00     0.026 A 
ATOM     25  C   UNL d   1      28.701 -12.744   6.943  0.00  0.00     0.034 A 
ATOM     26 CL   UNL d   1      28.909 -11.887   8.421  0.00  0.00    -0.084 Cl
ATOM     27  C   UNL d   1      28.039 -12.139   5.882  0.00  0.00     0.026 A 
ATOM     28  C   UNL d   1      27.934 -12.804   4.656  0.00  0.00     0.031 A 
ENDBRANCH  20  22
ENDBRANCH   2  18
TORSDOF 6
ENDMDL
MODEL 3
REMARK VINA RESULT:    -8.939      6.090      8.174
REMARK INTER + INTRA:         -11.640
REMARK INTER:                 -10.729
REMARK INTRA:                  -0.911
REMARK CONF_INDEPENDENT:        1.790
REMARK UNBOUND:                -0.911
REMARK  6 active torsions:
REMARK  status: ('A' for Active; 'I' for Inactive)
REMARK    1  A    between atoms: O_2  and  C_3 
REMARK       I    between atoms: C_3  and  N_5 
REMARK    2  A    between atoms: N_5  and  C_6 
REMARK    3  A    between atoms: C_9  and  C_10 
REMARK    4  A    between atoms: C_10  and  N_11 
REMARK       I    between atoms: N_11  and  C_12 
REMARK    5  A    between atoms: C_12  and  C_14 
REMARK       I    between atoms: C_14  and  N_16 
REMARK    6  A    between atoms: N_16  and  C_17 
ROOT
ATOM      1  N   UNL d   1      28.190 -15.610   1.052  0.00  0.00    -0.349 N 
ATOM      2  C   UNL d   1      27.374 -14.531   1.325  0.00  0.00     0.309 C 
ATOM      3  O   UNL d   1      26.438 -14.146   0.641  0.00  0.00    -0.262 OA
ATOM      4  H   UNL d   1      28.877 -15.803   1.772  0.00  0.00     0.163 HD
ENDROOT
BRANCH   1   5
ATOM      5  C   UNL d   1      28.066 -16.473  -0.120  0.00  0.00     0.161 C 
BRANCH   5   6
ATOM      6  C   UNL d   1      26.657 -16.967  -0.428  0.00  0.00    -0.040 A 
ATOM      7  C   UNL d   1      26.050 -17.979   0.350  0.00  0.00     0.011 A 
ATOM      8  C   UNL d   1      24.805 -18.553  -0.020  0.00  0.00     0.030 A 
ATOM      9  C   UNL d   1      24.145 -18.103  -1.166  0.00  0.00     0.036 A 
ATOM     10  C   UNL d   1      24.704 -17.048  -1.877  0.00  0.00     0.030 A 
ATOM     11  C   UNL d   1      25.927 -16.487  -1.516  0.00  0.00     0.011 A 
BRANCH   9  12
ATOM     12  N   UNL d   1      22.926 -18.652  -1.630  0.00  0.00    -0.303 N 
ATOM     13  C   UNL d   1      21.871 -18.906  -0.774  0.00  0.00     0.364 C 
ATOM     14  O   UNL d   1      21.825 -18.576   0.415  0.00  0.00    -0.238 OA
ATOM     15  H   UNL d   1      22.787 -18.808  -2.620  0.00  0.00     0.171 HD
BRANCH  13  16
ATOM     16  O   UNL d   1      20.833 -19.534  -1.393  0.00  0.00    -0.309 OA
ATOM     17  C   UNL d   1      19.552 -19.108  -0.895  0.00  0.00     0.215 C 
ENDBRANCH  13  16
ENDBRANCH   9  12
ENDBRANCH   5   6
ENDBRANCH   1   5
BRANCH   2  18
ATOM     18  C   UNL d   1      27.752 -13.789   2.645  0.00  0.00     0.313 C 
ATOM     19  O   UNL d   1      27.668 -12.565   2.656  0.00  0.00    -0.262 OA
ATOM     20  N   UNL d   1      28.204 -14.598   3.684  0.00  0.00    -0.319 N 
ATOM     21  H   UNL d   1      28.381 -15.575   3.466  0.00  0.00     0.169 HD
BRANCH  20  22
ATOM     22  C   UNL d   1      28.519 -14.114   4.976  0.00  0.00     0.035 A 
ATOM     23  C   UNL d   1      27.734 -13.123   5.581  0.00  0.00     0.031 A 
ATOM     24  C   UNL d   1      28.084 -12.612   6.844  0.00  0.00     0.026 A 
ATOM     25  C   UNL d   1      29.203 -13.108   7.513  0.00  0.00     0.034 A 
ATOM     26 CL   UNL d   1      29.579 -12.560   9.100  0.00  0.00    -0.084 Cl
ATOM     27  C   UNL d   1      29.999 -14.075   6.911  0.00  0.00     0.026 A 
ATOM     28  C   UNL d   1      29.653 -14.578   5.652  0.00  0.00     0.031 A 
ENDBRANCH  20  22
ENDBRANCH   2  18
TORSDOF 6
ENDMDL
MODEL 4
REMARK VINA RESULT:    -8.835      6.247      8.346
REMARK INTER + INTRA:         -12.165
REMARK INTER:                 -10.625
REMARK INTRA:                  -1.540
REMARK CONF_INDEPENDENT:        1.790
REMARK UNBOUND:                -1.540
REMARK  6 active torsions:
REMARK  status: ('A' for Active; 'I' for Inactive)
REMARK    1  A    between atoms: O_2  and  C_3 
REMARK       I    between atoms: C_3  and  N_5 
REMARK    2  A    between atoms: N_5  and  C_6 
REMARK    3  A    between atoms: C_9  and  C_10 
REMARK    4  A    between atoms: C_10  and  N_11 
REMARK       I    between atoms: N_11  and  C_12 
REMARK    5  A    between atoms: C_12  and  C_14 
REMARK       I    between atoms: C_14  and  N_16 
REMARK    6  A    between atoms: N_16  and  C_17 
ROOT
ATOM      1  N   UNL d   1      28.298 -15.796   0.886  0.00  0.00    -0.349 N 
ATOM      2  C   UNL d   1      27.676 -14.779   1.583  0.00  0.00     0.309 C 
ATOM      3  O   UNL d   1      26.651 -14.202   1.251  0.00  0.00    -0.262 OA
ATOM      4  H   UNL d   1      29.108 -16.185   1.356  0.00  0.00     0.163 HD
ENDROOT
BRANCH   1   5
ATOM      5  C   UNL d   1      27.826 -16.348  -0.381  0.00  0.00     0.161 C 
BRANCH   5   6
ATOM      6  C   UNL d   1      26.372 -16.809  -0.398  0.00  0.00    -0.040 A 
ATOM      7  C   UNL d   1      25.398 -16.130  -1.163  0.00  0.00     0.011 A 
ATOM      8  C   UNL d   1      24.019 -16.454  -1.066  0.00  0.00     0.030 A 
ATOM      9  C   UNL d   1      23.604 -17.478  -0.213  0.00  0.00     0.036 A 
ATOM     10  C   UNL d   1      24.576 -18.200   0.472  0.00  0.00     0.030 A 
ATOM     11  C   UNL d   1      25.928 -17.880   0.379  0.00  0.00     0.011 A 
BRANCH   9  12
ATOM     12  N   UNL d   1      22.248 -17.833  -0.021  0.00  0.00    -0.303 N 
ATOM     13  C   UNL d   1      21.582 -18.659  -0.908  0.00  0.00     0.364 C 
ATOM     14  O   UNL d   1      22.106 -19.259  -1.851  0.00  0.00    -0.238 OA
ATOM     15  H   UNL d   1      21.760 -17.535   0.813  0.00  0.00     0.171 HD
BRANCH  13  16
ATOM     16  O   UNL d   1      20.259 -18.791  -0.609  0.00  0.00    -0.309 OA
ATOM     17  C   UNL d   1      19.953 -20.058   0.002  0.00  0.00     0.215 C 
ENDBRANCH  13  16
ENDBRANCH   9  12
ENDBRANCH   5   6
ENDBRANCH   1   5
BRANCH   2  18
ATOM     18  C   UNL d   1      28.416 -14.392   2.901  0.00  0.00     0.313 C 
ATOM     19  O   UNL d   1      29.642 -14.448   2.905  0.00  0.00    -0.262 OA
ATOM     20  N   UNL d   1      27.599 -14.061   3.978  0.00  0.00    -0.319 N 
ATOM     21  H   UNL d   1      26.601 -14.226   3.870  0.00  0.00     0.169 HD
BRANCH  20  22
ATOM     22  C   UNL d   1      28.089 -13.611   5.227  0.00  0.00     0.035 A 
ATOM     23  C   UNL d   1      28.844 -14.459   6.049  0.00  0.00     0.031 A 
ATOM     24  C   UNL d   1      29.284 -14.020   7.311  0.00  0.00     0.026 A 
ATOM     25  C   UNL d   1      28.991 -12.726   7.741  0.00  0.00     0.034 A 
ATOM     26 CL   UNL d   1      29.611 -12.149   9.239  0.00  0.00    -0.084 Cl
ATOM     27  C   UNL d   1      28.223 -11.886   6.943  0.00  0.00     0.026 A 
ATOM     28  C   UNL d   1      27.781 -12.327   5.691  0.00  0.00     0.031 A 
ENDBRANCH  20  22
ENDBRANCH   2  18
TORSDOF 6
ENDMDL
MODEL 5
REMARK VINA RESULT:    -8.483      4.169      5.162
REMARK INTER + INTRA:         -12.092
REMARK INTER:                 -10.273
REMARK INTRA:                  -1.819
REMARK CONF_INDEPENDENT:        1.790
REMARK UNBOUND:                -1.819
REMARK  6 active torsions:
REMARK  status: ('A' for Active; 'I' for Inactive)
REMARK    1  A    between atoms: O_2  and  C_3 
REMARK       I    between atoms: C_3  and  N_5 
REMARK    2  A    between atoms: N_5  and  C_6 
REMARK    3  A    between atoms: C_9  and  C_10 
REMARK    4  A    between atoms: C_10  and  N_11 
REMARK       I    between atoms: N_11  and  C_12 
REMARK    5  A    between atoms: C_12  and  C_14 
REMARK       I    between atoms: C_14  and  N_16 
REMARK    6  A    between atoms: N_16  and  C_17 
ROOT
ATOM      1  N   UNL d   1      26.267 -14.974  -2.081  0.00  0.00    -0.349 N 
ATOM      2  C   UNL d   1      25.694 -14.310  -3.147  0.00  0.00     0.309 C 
ATOM      3  O   UNL d   1      25.071 -14.825  -4.063  0.00  0.00    -0.262 OA
ATOM      4  H   UNL d   1      26.693 -14.363  -1.393  0.00  0.00     0.163 HD
ENDROOT
BRANCH   1   5
ATOM      5  C   UNL d   1      26.224 -16.420  -1.879  0.00  0.00     0.161 C 
BRANCH   5   6
ATOM      6  C   UNL d   1      24.955 -16.956  -1.225  0.00  0.00    -0.040 A 
ATOM      7  C   UNL d   1      24.949 -18.197  -0.549  0.00  0.00     0.011 A 
ATOM      8  C   UNL d   1      23.744 -18.776  -0.073  0.00  0.00     0.030 A 
ATOM      9  C   UNL d   1      22.531 -18.106  -0.252  0.00  0.00     0.036 A 
ATOM     10  C   UNL d   1      22.556 -16.846  -0.840  0.00  0.00     0.030 A 
ATOM     11  C   UNL d   1      23.737 -16.279  -1.310  0.00  0.00     0.011 A 
BRANCH   9  12
ATOM     12  N   UNL d   1      21.281 -18.632   0.149  0.00  0.00    -0.303 N 
ATOM     13  C   UNL d   1      20.460 -19.309  -0.735  0.00  0.00     0.364 C 
ATOM     14  O   UNL d   1      20.768 -19.631  -1.886  0.00  0.00    -0.238 OA
ATOM     15  H   UNL d   1      20.995 -18.575   1.118  0.00  0.00     0.171 HD
BRANCH  13  16
ATOM     16  O   UNL d   1      19.257 -19.638  -0.186  0.00  0.00    -0.309 OA
ATOM     17  C   UNL d   1      19.318 -20.843   0.598  0.00  0.00     0.215 C 
ENDBRANCH  13  16
ENDBRANCH   9  12
ENDBRANCH   5   6
ENDBRANCH   1   5
BRANCH   2  18
ATOM     18  C   UNL d   1      25.911 -12.765  -3.101  0.00  0.00     0.313 C 
ATOM     19  O   UNL d   1      26.494 -12.300  -2.127  0.00  0.00    -0.262 OA
ATOM     20  N   UNL d   1      25.371 -12.047  -4.164  0.00  0.00    -0.319 N 
ATOM     21  H   UNL d   1      24.768 -12.555  -4.807  0.00  0.00     0.169 HD
BRANCH  20  22
ATOM     22  C   UNL d   1      25.533 -10.652  -4.333  0.00  0.00     0.035 A 
ATOM     23  C   UNL d   1      25.640  -9.803  -3.222  0.00  0.00     0.031 A 
ATOM     24  C   UNL d   1      25.750  -8.412  -3.399  0.00  0.00     0.026 A 
ATOM     25  C   UNL d   1      25.778  -7.871  -4.684  0.00  0.00     0.034 A 
ATOM     26 CL   UNL d   1      26.014  -6.181  -4.909  0.00  0.00    -0.084 Cl
ATOM     27  C   UNL d   1      25.650  -8.702  -5.790  0.00  0.00     0.026 A 
ATOM     28  C   UNL d   1      25.534 -10.085  -5.613  0.00  0.00     0.031 A 
ENDBRANCH  20  22
ENDBRANCH   2  18
TORSDOF 6
ENDMDL
MODEL 6
REMARK VINA RESULT:    -8.000      4.877      9.990
REMARK INTER + INTRA:         -11.589
REMARK INTER:                  -9.789
REMARK INTRA:                  -1.800
REMARK CONF_INDEPENDENT:        1.790
REMARK UNBOUND:                -1.800
REMARK  6 active torsions:
REMARK  status: ('A' for Active; 'I' for Inactive)
REMARK    1  A    between atoms: O_2  and  C_3 
REMARK       I    between atoms: C_3  and  N_5 
REMARK    2  A    between atoms: N_5  and  C_6 
REMARK    3  A    between atoms: C_9  and  C_10 
REMARK    4  A    between atoms: C_10  and  N_11 
REMARK       I    between atoms: N_11  and  C_12 
REMARK    5  A    between atoms: C_12  and  C_14 
REMARK       I    between atoms: C_14  and  N_16 
REMARK    6  A    between atoms: N_16  and  C_17 
ROOT
ATOM      1  N   UNL d   1      25.554 -17.082  -0.838  0.00  0.00    -0.349 N 
ATOM      2  C   UNL d   1      24.206 -16.872  -1.048  0.00  0.00     0.309 C 
ATOM      3  O   UNL d   1      23.707 -15.903  -1.601  0.00  0.00    -0.262 OA
ATOM      4  H   UNL d   1      25.773 -17.975  -0.413  0.00  0.00     0.163 HD
ENDROOT
BRANCH   1   5
ATOM      5  C   UNL d   1      26.614 -16.162  -1.244  0.00  0.00     0.161 C 
BRANCH   5   6
ATOM      6  C   UNL d   1      26.223 -15.128  -2.294  0.00  0.00    -0.040 A 
ATOM      7  C   UNL d   1      25.926 -15.509  -3.622  0.00  0.00     0.011 A 
ATOM      8  C   UNL d   1      25.712 -14.544  -4.640  0.00  0.00     0.030 A 
ATOM      9  C   UNL d   1      25.774 -13.183  -4.333  0.00  0.00     0.036 A 
ATOM     10  C   UNL d   1      25.980 -12.815  -3.008  0.00  0.00     0.030 A 
ATOM     11  C   UNL d   1      26.193 -13.761  -2.009  0.00  0.00     0.011 A 
BRANCH   9  12
ATOM     12  N   UNL d   1      25.620 -12.157  -5.295  0.00  0.00    -0.303 N 
ATOM     13  C   UNL d   1      26.710 -11.571  -5.913  0.00  0.00     0.364 C 
ATOM     14  O   UNL d   1      27.880 -11.948  -5.798  0.00  0.00    -0.238 OA
ATOM     15  H   UNL d   1      24.695 -11.879  -5.595  0.00  0.00     0.171 HD
BRANCH  13  16
ATOM     16  O   UNL d   1      26.359 -10.532  -6.721  0.00  0.00    -0.309 OA
ATOM     17  C   UNL d   1      26.877 -10.671  -8.057  0.00  0.00     0.215 C 
ENDBRANCH  13  16
ENDBRANCH   9  12
ENDBRANCH   5   6
ENDBRANCH   1   5
BRANCH   2  18
ATOM     18  C   UNL d   1      23.309 -18.023  -0.497  0.00  0.00     0.313 C 
ATOM     19  O   UNL d   1      23.866 -18.962   0.064  0.00  0.00    -0.262 OA
ATOM     20  N   UNL d   1      21.945 -17.897  -0.743  0.00  0.00    -0.319 N 
ATOM     21  H   UNL d   1      21.654 -17.150  -1.369  0.00  0.00     0.169 HD
BRANCH  20  22
ATOM     22  C   UNL d   1      20.971 -18.801  -0.255  0.00  0.00     0.035 A 
ATOM     23  C   UNL d   1      19.908 -19.217  -1.067  0.00  0.00     0.031 A 
ATOM     24  C   UNL d   1      18.917 -20.076  -0.557  0.00  0.00     0.026 A 
ATOM     25  C   UNL d   1      19.002 -20.538   0.756  0.00  0.00     0.034 A 
ATOM     26 CL   UNL d   1      17.849 -21.667   1.354  0.00  0.00    -0.084 Cl
ATOM     27  C   UNL d   1      20.040 -20.113   1.576  0.00  0.00     0.026 A 
ATOM     28  C   UNL d   1      21.021 -19.254   1.069  0.00  0.00     0.031 A 
ENDBRANCH  20  22
ENDBRANCH   2  18
TORSDOF 6
ENDMDL
MODEL 7
REMARK VINA RESULT:    -7.298      5.446      7.251
REMARK INTER + INTRA:         -10.852
REMARK INTER:                  -9.087
REMARK INTRA:                  -1.765
REMARK CONF_INDEPENDENT:        1.790
REMARK UNBOUND:                -1.765
REMARK  6 active torsions:
REMARK  status: ('A' for Active; 'I' for Inactive)
REMARK    1  A    between atoms: O_2  and  C_3 
REMARK       I    between atoms: C_3  and  N_5 
REMARK    2  A    between atoms: N_5  and  C_6 
REMARK    3  A    between atoms: C_9  and  C_10 
REMARK    4  A    between atoms: C_10  and  N_11 
REMARK       I    between atoms: N_11  and  C_12 
REMARK    5  A    between atoms: C_12  and  C_14 
REMARK       I    between atoms: C_14  and  N_16 
REMARK    6  A    between atoms: N_16  and  C_17 
ROOT
ATOM      1  N   UNL d   1      26.376 -15.151   0.079  0.00  0.00    -0.349 N 
ATOM      2  C   UNL d   1      26.509 -13.776   0.076  0.00  0.00     0.309 C 
ATOM      3  O   UNL d   1      26.333 -13.040  -0.883  0.00  0.00    -0.262 OA
ATOM      4  H   UNL d   1      26.510 -15.578   0.989  0.00  0.00     0.163 HD
ENDROOT
BRANCH   1   5
ATOM      5  C   UNL d   1      26.003 -15.955  -1.081  0.00  0.00     0.161 C 
BRANCH   5   6
ATOM      6  C   UNL d   1      24.792 -16.863  -0.892  0.00  0.00    -0.040 A 
ATOM      7  C   UNL d   1      23.477 -16.366  -1.033  0.00  0.00     0.011 A 
ATOM      8  C   UNL d   1      22.346 -17.160  -0.710  0.00  0.00     0.030 A 
ATOM      9  C   UNL d   1      22.521 -18.470  -0.259  0.00  0.00     0.036 A 
ATOM     10  C   UNL d   1      23.814 -18.981  -0.206  0.00  0.00     0.030 A 
ATOM     11  C   UNL d   1      24.923 -18.201  -0.520  0.00  0.00     0.011 A 
BRANCH   9  12
ATOM     12  N   UNL d   1      21.453 -19.313   0.129  0.00  0.00    -0.303 N 
ATOM     13  C   UNL d   1      20.472 -19.699  -0.765  0.00  0.00     0.364 C 
ATOM     14  O   UNL d   1      20.486 -19.472  -1.978  0.00  0.00    -0.238 OA
ATOM     15  H   UNL d   1      21.428 -19.700   1.063  0.00  0.00     0.171 HD
BRANCH  13  16
ATOM     16  O   UNL d   1      19.476 -20.416  -0.173  0.00  0.00    -0.309 OA
ATOM     17  C   UNL d   1      19.065 -19.855   1.087  0.00  0.00     0.215 C 
ENDBRANCH  13  16
ENDBRANCH   9  12
ENDBRANCH   5   6
ENDBRANCH   1   5
BRANCH   2  18
ATOM     18  C   UNL d   1      26.928 -13.193   1.461  0.00  0.00     0.313 C 
ATOM     19  O   UNL d   1      27.104 -13.984   2.383  0.00  0.00    -0.262 OA
ATOM     20  N   UNL d   1      27.016 -11.806   1.531  0.00  0.00    -0.319 N 
ATOM     21  H   UNL d   1      26.674 -11.279   0.731  0.00  0.00     0.169 HD
BRANCH  20  22
ATOM     22  C   UNL d   1      27.454 -11.103   2.679  0.00  0.00     0.035 A 
ATOM     23  C   UNL d   1      26.857  -9.890   3.048  0.00  0.00     0.031 A 
ATOM     24  C   UNL d   1      27.332  -9.173   4.161  0.00  0.00     0.026 A 
ATOM     25  C   UNL d   1      28.387  -9.680   4.919  0.00  0.00     0.034 A 
ATOM     26 CL   UNL d   1      28.908  -8.859   6.340  0.00  0.00    -0.084 Cl
ATOM     27  C   UNL d   1      29.000 -10.871   4.548  0.00  0.00     0.026 A 
ATOM     28  C   UNL d   1      28.530 -11.579   3.437  0.00  0.00     0.031 A 
ENDBRANCH  20  22
ENDBRANCH   2  18
TORSDOF 6
ENDMDL
MODEL 8
REMARK VINA RESULT:    -7.140      1.713      2.293
REMARK INTER + INTRA:         -10.810
REMARK INTER:                  -8.930
REMARK INTRA:                  -1.880
REMARK CONF_INDEPENDENT:        1.790
REMARK UNBOUND:                -1.880
REMARK  6 active torsions:
REMARK  status: ('A' for Active; 'I' for Inactive)
REMARK    1  A    between atoms: O_2  and  C_3 
REMARK       I    between atoms: C_3  and  N_5 
REMARK    2  A    between atoms: N_5  and  C_6 
REMARK    3  A    between atoms: C_9  and  C_10 
REMARK    4  A    between atoms: C_10  and  N_11 
REMARK       I    between atoms: N_11  and  C_12 
REMARK    5  A    between atoms: C_12  and  C_14 
REMARK       I    between atoms: C_14  and  N_16 
REMARK    6  A    between atoms: N_16  and  C_17 
ROOT
ATOM      1  N   UNL d   1      28.130 -16.074  -1.442  0.00  0.00    -0.349 N 
ATOM      2  C   UNL d   1      27.989 -15.783  -2.784  0.00  0.00     0.309 C 
ATOM      3  O   UNL d   1      27.026 -15.241  -3.305  0.00  0.00    -0.262 OA
ATOM      4  H   UNL d   1      29.028 -16.474  -1.197  0.00  0.00     0.163 HD
ENDROOT
BRANCH   1   5
ATOM      5  C   UNL d   1      27.131 -15.781  -0.417  0.00  0.00     0.161 C 
BRANCH   5   6
ATOM      6  C   UNL d   1      25.854 -16.611  -0.485  0.00  0.00    -0.040 A 
ATOM      7  C   UNL d   1      25.645 -17.705   0.385  0.00  0.00     0.011 A 
ATOM      8  C   UNL d   1      24.534 -18.575   0.229  0.00  0.00     0.030 A 
ATOM      9  C   UNL d   1      23.609 -18.346  -0.792  0.00  0.00     0.036 A 
ATOM     10  C   UNL d   1      23.773 -17.219  -1.589  0.00  0.00     0.030 A 
ATOM     11  C   UNL d   1      24.864 -16.367  -1.438  0.00  0.00     0.011 A 
BRANCH   9  12
ATOM     12  N   UNL d   1      22.502 -19.190  -1.047  0.00  0.00    -0.303 N 
ATOM     13  C   UNL d   1      21.205 -18.712  -1.022  0.00  0.00     0.364 C 
ATOM     14  O   UNL d   1      20.887 -17.525  -0.911  0.00  0.00    -0.238 OA
ATOM     15  H   UNL d   1      22.652 -20.153  -1.316  0.00  0.00     0.171 HD
BRANCH  13  16
ATOM     16  O   UNL d   1      20.280 -19.700  -1.181  0.00  0.00    -0.309 OA
ATOM     17  C   UNL d   1      19.276 -19.689  -0.151  0.00  0.00     0.215 C 
ENDBRANCH  13  16
ENDBRANCH   9  12
ENDBRANCH   5   6
ENDBRANCH   1   5
BRANCH   2  18
ATOM     18  C   UNL d   1      29.216 -16.222  -3.643  0.00  0.00     0.313 C 
ATOM     19  O   UNL d   1      30.213 -16.623  -3.050  0.00  0.00    -0.262 OA
ATOM     20  N   UNL d   1      29.077 -16.067  -5.019  0.00  0.00    -0.319 N 
ATOM     21  H   UNL d   1      28.258 -15.562  -5.348  0.00  0.00     0.169 HD
BRANCH  20  22
ATOM     22  C   UNL d   1      30.052 -16.480  -5.958  0.00  0.00     0.035 A 
ATOM     23  C   UNL d   1      30.405 -17.831  -6.077  0.00  0.00     0.031 A 
ATOM     24  C   UNL d   1      31.411 -18.227  -6.977  0.00  0.00     0.026 A 
ATOM     25  C   UNL d   1      32.045 -17.277  -7.777  0.00  0.00     0.034 A 
ATOM     26 CL   UNL d   1      33.204 -17.765  -8.952  0.00  0.00    -0.084 Cl
ATOM     27  C   UNL d   1      31.717 -15.932  -7.651  0.00  0.00     0.026 A 
ATOM     28  C   UNL d   1      30.721 -15.540  -6.750  0.00  0.00     0.031 A 
ENDBRANCH  20  22
ENDBRANCH   2  18
TORSDOF 6
ENDMDL
MODEL 9
REMARK VINA RESULT:    -6.877      4.309      9.672
REMARK INTER + INTRA:         -10.373
REMARK INTER:                  -8.666
REMARK INTRA:                  -1.707
REMARK CONF_INDEPENDENT:        1.790
REMARK UNBOUND:                -1.707
REMARK  6 active torsions:
REMARK  status: ('A' for Active; 'I' for Inactive)
REMARK    1  A    between atoms: O_2  and  C_3 
REMARK       I    between atoms: C_3  and  N_5 
REMARK    2  A    between atoms: N_5  and  C_6 
REMARK    3  A    between atoms: C_9  and  C_10 
REMARK    4  A    between atoms: C_10  and  N_11 
REMARK       I    between atoms: N_11  and  C_12 
REMARK    5  A    between atoms: C_12  and  C_14 
REMARK       I    between atoms: C_14  and  N_16 
REMARK    6  A    between atoms: N_16  and  C_17 
ROOT
ATOM      1  N   UNL d   1      26.297 -16.875  -0.060  0.00  0.00    -0.349 N 
ATOM      2  C   UNL d   1      25.122 -16.812  -0.783  0.00  0.00     0.309 C 
ATOM      3  O   UNL d   1      24.862 -16.003  -1.661  0.00  0.00    -0.262 OA
ATOM      4  H   UNL d   1      26.345 -17.655   0.586  0.00  0.00     0.163 HD
ENDROOT
BRANCH   1   5
ATOM      5  C   UNL d   1      27.430 -15.968  -0.229  0.00  0.00     0.161 C 
BRANCH   5   6
ATOM      6  C   UNL d   1      28.116 -16.018  -1.590  0.00  0.00    -0.040 A 
ATOM      7  C   UNL d   1      27.627 -15.270  -2.685  0.00  0.00     0.011 A 
ATOM      8  C   UNL d   1      28.163 -15.427  -3.989  0.00  0.00     0.030 A 
ATOM      9  C   UNL d   1      29.211 -16.324  -4.208  0.00  0.00     0.036 A 
ATOM     10  C   UNL d   1      29.746 -16.992  -3.111  0.00  0.00     0.030 A 
ATOM     11  C   UNL d   1      29.218 -16.840  -1.832  0.00  0.00     0.011 A 
BRANCH   9  12
ATOM     12  N   UNL d   1      29.771 -16.576  -5.482  0.00  0.00    -0.303 N 
ATOM     13  C   UNL d   1      30.352 -17.792  -5.793  0.00  0.00     0.364 C 
ATOM     14  O   UNL d   1      30.331 -18.794  -5.072  0.00  0.00    -0.238 OA
ATOM     15  H   UNL d   1      29.696 -15.881  -6.214  0.00  0.00     0.171 HD
BRANCH  13  16
ATOM     16  O   UNL d   1      30.930 -17.797  -7.027  0.00  0.00    -0.309 OA
ATOM     17  C   UNL d   1      31.000 -19.115  -7.599  0.00  0.00     0.215 C 
ENDBRANCH  13  16
ENDBRANCH   9  12
ENDBRANCH   5   6
ENDBRANCH   1   5
BRANCH   2  18
ATOM     18  C   UNL d   1      24.088 -17.906  -0.376  0.00  0.00     0.313 C 
ATOM     19  O   UNL d   1      24.505 -18.888   0.231  0.00  0.00    -0.262 OA
ATOM     20  N   UNL d   1      22.778 -17.684  -0.791  0.00  0.00    -0.319 N 
ATOM     21  H   UNL d   1      22.620 -16.911  -1.432  0.00  0.00     0.169 HD
BRANCH  20  22
ATOM     22  C   UNL d   1      21.692 -18.525  -0.450  0.00  0.00     0.035 A 
ATOM     23  C   UNL d   1      20.750 -18.906  -1.416  0.00  0.00     0.031 A 
ATOM     24  C   UNL d   1      19.646 -19.701  -1.058  0.00  0.00     0.026 A 
ATOM     25  C   UNL d   1      19.497 -20.136   0.259  0.00  0.00     0.034 A 
ATOM     26 CL   UNL d   1      18.205 -21.191   0.683  0.00  0.00    -0.084 Cl
ATOM     27  C   UNL d   1      20.414 -19.745   1.228  0.00  0.00     0.026 A 
ATOM     28  C   UNL d   1      21.507 -18.949   0.871  0.00  0.00     0.031 A 
ENDBRANCH  20  22
ENDBRANCH   2  18
TORSDOF 6
ENDMDL
