MODEL 1
REMARK VINA RESULT:    -8.028      0.000      0.000
REMARK INTER + INTRA:         -14.743
REMARK INTER:                 -12.204
REMARK INTRA:                  -2.538
REMARK CONF_INDEPENDENT:        4.176
REMARK UNBOUND:                -2.538
REMARK  14 active torsions:
REMARK  status: ('A' for Active; 'I' for Inactive)
REMARK    1  A    between atoms: C_2  and  C_3 
REMARK    2  A    between atoms: C_3  and  C_4 
REMARK    3  A    between atoms: C_4  and  C_5 
REMARK    4  A    between atoms: C_5  and  C_6 
REMARK    5  A    between atoms: C_6  and  O_7 
REMARK    6  A    between atoms: O_7  and  C_8 
REMARK    7  A    between atoms: C_13  and  C_14 
REMARK       I    between atoms: C_14  and  N_16 
REMARK    8  A    between atoms: N_16  and  C_17 
REMARK    9  A    between atoms: C_17  and  N_19 
REMARK   10  A    between atoms: C_25  and  C_26 
REMARK   11  A    between atoms: C_26  and  C_27 
REMARK   12  A    between atoms: C_27  and  O_29 
REMARK   13  A    between atoms: O_29  and  C_30 
REMARK   14  A    between atoms: C_30  and  C_32 
ROOT
ATOM      1  C   UNL d   1      26.659 -12.318  -1.909  0.00  0.00     0.177 C 
ATOM      2  S   UNL d   1      27.446 -11.351  -0.766  0.00  0.00    -0.041 SA
ENDROOT
BRANCH   1   3
ATOM      3  N   UNL d   1      26.280 -13.663  -1.672  0.00  0.00    -0.299 N 
ATOM      4  C   UNL d   1      26.321 -14.303  -0.401  0.00  0.00     0.260 C 
ATOM      5  O   UNL d   1      26.277 -13.680   0.659  0.00  0.00    -0.267 OA
ATOM      6  H   UNL d   1      26.182 -14.289  -2.461  0.00  0.00     0.171 HD
BRANCH   4   7
ATOM      7  C   UNL d   1      26.411 -15.804  -0.229  0.00  0.00     0.065 A 
ATOM      8  C   UNL d   1      27.729 -16.339  -0.172  0.00  0.00     0.020 A 
ATOM      9  C   UNL d   1      27.990 -17.700   0.040  0.00  0.00     0.001 A 
ATOM     10  C   UNL d   1      26.930 -18.576   0.195  0.00  0.00     0.003 A 
ATOM     11  C   UNL d   1      25.627 -18.096   0.053  0.00  0.00     0.038 A 
ATOM     12  C   UNL d   1      25.361 -16.723  -0.165  0.00  0.00     0.084 A 
BRANCH  12  13
ATOM     13  O   UNL d   1      24.040 -16.393  -0.145  0.00  0.00    -0.350 OA
BRANCH  13  14
ATOM     14  C   UNL d   1      23.213 -17.086  -1.076  0.00  0.00     0.175 C 
BRANCH  14  15
ATOM     15  C   UNL d   1      22.455 -18.124  -0.242  0.00  0.00     0.027 C 
BRANCH  15  16
ATOM     16  C   UNL d   1      21.561 -18.947  -1.168  0.00  0.00     0.002 C 
BRANCH  16  17
ATOM     17  C   UNL d   1      20.276 -19.546  -0.531  0.00  0.00    -0.000 C 
BRANCH  17  18
ATOM     18  C   UNL d   1      20.231 -19.969   0.994  0.00  0.00    -0.005 C 
ATOM     19  C   UNL d   1      18.826 -20.381   1.471  0.00  0.00     0.005 C 
ENDBRANCH  17  18
ENDBRANCH  16  17
ENDBRANCH  15  16
ENDBRANCH  14  15
ENDBRANCH  13  14
ENDBRANCH  12  13
ENDBRANCH   4   7
ENDBRANCH   1   3
BRANCH   1  20
ATOM     20  N   UNL d   1      26.447 -11.796  -3.204  0.00  0.00    -0.343 N 
ATOM     21  C   UNL d   1      25.630 -10.552  -3.378  0.00  0.00     0.146 C 
ATOM     22  C   UNL d   1      26.211  -9.679  -4.436  0.00  0.00     0.142 C 
ATOM     23  N   UNL d   1      26.182 -10.486  -5.661  0.00  0.00    -0.358 N 
ATOM     24  C   UNL d   1      26.758 -11.713  -5.744  0.00  0.00     0.241 C 
ATOM     25  H   UNL d   1      26.062 -10.065  -6.569  0.00  0.00     0.162 HD
ATOM     26  O   UNL d   1      27.034 -12.198  -6.859  0.00  0.00    -0.271 OA
ATOM     27  C   UNL d   1      26.693 -12.542  -4.474  0.00  0.00     0.188 C 
BRANCH  27  28
ATOM     28  C   UNL d   1      25.518 -13.395  -4.949  0.00  0.00     0.146 C 
BRANCH  28  29
ATOM     29  C   UNL d   1      25.990 -14.795  -4.651  0.00  0.00     0.261 C 
ATOM     30  O   UNL d   1      25.553 -15.449  -3.728  0.00  0.00    -0.265 OA
BRANCH  29  31
ATOM     31  O   UNL d   1      26.960 -15.200  -5.519  0.00  0.00    -0.316 OA
BRANCH  31  32
ATOM     32  C   UNL d   1      28.289 -14.954  -5.020  0.00  0.00     0.127 C 
ATOM     33  C   UNL d   1      28.527 -15.894  -3.833  0.00  0.00     0.040 C 
BRANCH  32  34
ATOM     34  C   UNL d   1      29.278 -15.257  -6.152  0.00  0.00     0.027 C 
ATOM     35  C   UNL d   1      30.032 -16.559  -5.918  0.00  0.00     0.007 C 
ENDBRANCH  32  34
ENDBRANCH  31  32
ENDBRANCH  29  31
ENDBRANCH  28  29
ENDBRANCH  27  28
ENDBRANCH   1  20
TORSDOF 14
ENDMDL
MODEL 2
REMARK VINA RESULT:    -7.712      2.443      3.392
REMARK INTER + INTRA:         -14.212
REMARK INTER:                 -11.889
REMARK INTRA:                  -2.323
REMARK CONF_INDEPENDENT:        4.176
REMARK UNBOUND:                -2.323
REMARK  14 active torsions:
REMARK  status: ('A' for Active; 'I' for Inactive)
REMARK    1  A    between atoms: C_2  and  C_3 
REMARK    2  A    between atoms: C_3  and  C_4 
REMARK    3  A    between atoms: C_4  and  C_5 
REMARK    4  A    between atoms: C_5  and  C_6 
REMARK    5  A    between atoms: C_6  and  O_7 
REMARK    6  A    between atoms: O_7  and  C_8 
REMARK    7  A    between atoms: C_13  and  C_14 
REMARK       I    between atoms: C_14  and  N_16 
REMARK    8  A    between atoms: N_16  and  C_17 
REMARK    9  A    between atoms: C_17  and  N_19 
REMARK   10  A    between atoms: C_25  and  C_26 
REMARK   11  A    between atoms: C_26  and  C_27 
REMARK   12  A    between atoms: C_27  and  O_29 
REMARK   13  A    between atoms: O_29  and  C_30 
REMARK   14  A    between atoms: C_30  and  C_32 
ROOT
ATOM      1  C   UNL d   1      27.639 -13.928  -4.034  0.00  0.00     0.177 C 
ATOM      2  S   UNL d   1      27.077 -12.427  -3.495  0.00  0.00    -0.041 SA
ENDROOT
BRANCH   1   3
ATOM      3  N   UNL d   1      27.470 -15.135  -3.311  0.00  0.00    -0.299 N 
ATOM      4  C   UNL d   1      26.243 -15.568  -2.734  0.00  0.00     0.260 C 
ATOM      5  O   UNL d   1      25.146 -15.186  -3.141  0.00  0.00    -0.267 OA
ATOM      6  H   UNL d   1      28.292 -15.627  -2.983  0.00  0.00     0.171 HD
BRANCH   4   7
ATOM      7  C   UNL d   1      26.166 -16.544  -1.581  0.00  0.00     0.065 A 
ATOM      8  C   UNL d   1      27.291 -16.557  -0.709  0.00  0.00     0.020 A 
ATOM      9  C   UNL d   1      27.357 -17.360   0.437  0.00  0.00     0.001 A 
ATOM     10  C   UNL d   1      26.291 -18.188   0.747  0.00  0.00     0.003 A 
ATOM     11  C   UNL d   1      25.213 -18.264  -0.137  0.00  0.00     0.038 A 
ATOM     12  C   UNL d   1      25.147 -17.456  -1.298  0.00  0.00     0.084 A 
BRANCH  12  13
ATOM     13  O   UNL d   1      23.973 -17.547  -1.983  0.00  0.00    -0.350 OA
BRANCH  13  14
ATOM     14  C   UNL d   1      23.124 -18.632  -1.619  0.00  0.00     0.175 C 
BRANCH  14  15
ATOM     15  C   UNL d   1      21.964 -17.990  -0.849  0.00  0.00     0.027 C 
BRANCH  15  16
ATOM     16  C   UNL d   1      21.400 -19.010   0.139  0.00  0.00     0.002 C 
BRANCH  16  17
ATOM     17  C   UNL d   1      19.971 -19.543  -0.163  0.00  0.00    -0.000 C 
BRANCH  17  18
ATOM     18  C   UNL d   1      19.389 -20.812   0.583  0.00  0.00    -0.005 C 
ATOM     19  C   UNL d   1      18.405 -20.458   1.714  0.00  0.00     0.005 C 
ENDBRANCH  17  18
ENDBRANCH  16  17
ENDBRANCH  15  16
ENDBRANCH  14  15
ENDBRANCH  13  14
ENDBRANCH  12  13
ENDBRANCH   4   7
ENDBRANCH   1   3
BRANCH   1  20
ATOM     20  N   UNL d   1      28.402 -13.976  -5.222  0.00  0.00    -0.343 N 
ATOM     21  C   UNL d   1      27.789 -13.532  -6.515  0.00  0.00     0.146 C 
ATOM     22  C   UNL d   1      28.780 -12.788  -7.343  0.00  0.00     0.142 C 
ATOM     23  N   UNL d   1      29.867 -13.741  -7.593  0.00  0.00    -0.358 N 
ATOM     24  C   UNL d   1      30.527 -14.378  -6.592  0.00  0.00     0.241 C 
ATOM     25  H   UNL d   1      30.407 -13.716  -8.443  0.00  0.00     0.162 HD
ATOM     26  O   UNL d   1      31.650 -14.877  -6.804  0.00  0.00    -0.271 OA
ATOM     27  C   UNL d   1      29.678 -14.734  -5.385  0.00  0.00     0.188 C 
BRANCH  27  28
ATOM     28  C   UNL d   1      29.503 -16.197  -5.790  0.00  0.00     0.146 C 
BRANCH  28  29
ATOM     29  C   UNL d   1      29.840 -16.931  -4.518  0.00  0.00     0.261 C 
ATOM     30  O   UNL d   1      30.109 -16.357  -3.484  0.00  0.00    -0.265 OA
BRANCH  29  31
ATOM     31  O   UNL d   1      29.826 -18.283  -4.693  0.00  0.00    -0.316 OA
BRANCH  31  32
ATOM     32  C   UNL d   1      31.076 -18.791  -5.195  0.00  0.00     0.127 C 
ATOM     33  C   UNL d   1      31.588 -19.844  -4.206  0.00  0.00     0.040 C 
BRANCH  32  34
ATOM     34  C   UNL d   1      30.807 -19.427  -6.564  0.00  0.00     0.027 C 
ATOM     35  C   UNL d   1      31.122 -18.475  -7.709  0.00  0.00     0.007 C 
ENDBRANCH  32  34
ENDBRANCH  31  32
ENDBRANCH  29  31
ENDBRANCH  28  29
ENDBRANCH  27  28
ENDBRANCH   1  20
TORSDOF 14
ENDMDL
MODEL 3
REMARK VINA RESULT:    -7.486      1.764      2.351
REMARK INTER + INTRA:         -14.128
REMARK INTER:                 -11.662
REMARK INTRA:                  -2.466
REMARK CONF_INDEPENDENT:        4.176
REMARK UNBOUND:                -2.466
REMARK  14 active torsions:
REMARK  status: ('A' for Active; 'I' for Inactive)
REMARK    1  A    between atoms: C_2  and  C_3 
REMARK    2  A    between atoms: C_3  and  C_4 
REMARK    3  A    between atoms: C_4  and  C_5 
REMARK    4  A    between atoms: C_5  and  C_6 
REMARK    5  A    between atoms: C_6  and  O_7 
REMARK    6  A    between atoms: O_7  and  C_8 
REMARK    7  A    between atoms: C_13  and  C_14 
REMARK       I    between atoms: C_14  and  N_16 
REMARK    8  A    between atoms: N_16  and  C_17 
REMARK    9  A    between atoms: C_17  and  N_19 
REMARK   10  A    between atoms: C_25  and  C_26 
REMARK   11  A    between atoms: C_26  and  C_27 
REMARK   12  A    between atoms: C_27  and  O_29 
REMARK   13  A    between atoms: O_29  and  C_30 
REMARK   14  A    between atoms: C_30  and  C_32 
ROOT
ATOM      1  C   UNL d   1      26.500 -12.340  -4.296  0.00  0.00     0.177 C 
ATOM      2  S   UNL d   1      25.557 -11.205  -3.470  0.00  0.00    -0.041 SA
ENDROOT
BRANCH   1   3
ATOM      3  N   UNL d   1      26.813 -13.623  -3.782  0.00  0.00    -0.299 N 
ATOM      4  C   UNL d   1      25.890 -14.473  -3.111  0.00  0.00     0.260 C 
ATOM      5  O   UNL d   1      24.672 -14.390  -3.270  0.00  0.00    -0.267 OA
ATOM      6  H   UNL d   1      27.785 -13.883  -3.676  0.00  0.00     0.171 HD
BRANCH   4   7
ATOM      7  C   UNL d   1      26.310 -15.564  -2.151  0.00  0.00     0.065 A 
ATOM      8  C   UNL d   1      27.703 -15.629  -1.864  0.00  0.00     0.020 A 
ATOM      9  C   UNL d   1      28.253 -16.543  -0.955  0.00  0.00     0.001 A 
ATOM     10  C   UNL d   1      27.418 -17.434  -0.302  0.00  0.00     0.003 A 
ATOM     11  C   UNL d   1      26.060 -17.455  -0.630  0.00  0.00     0.038 A 
ATOM     12  C   UNL d   1      25.505 -16.535  -1.551  0.00  0.00     0.084 A 
BRANCH  12  13
ATOM     13  O   UNL d   1      24.149 -16.595  -1.661  0.00  0.00    -0.350 OA
BRANCH  13  14
ATOM     14  C   UNL d   1      23.574 -17.895  -1.555  0.00  0.00     0.175 C 
BRANCH  14  15
ATOM     15  C   UNL d   1      22.386 -17.730  -0.602  0.00  0.00     0.027 C 
BRANCH  15  16
ATOM     16  C   UNL d   1      21.376 -18.845  -0.870  0.00  0.00     0.002 C 
BRANCH  16  17
ATOM     17  C   UNL d   1      20.719 -19.494   0.381  0.00  0.00    -0.000 C 
BRANCH  17  18
ATOM     18  C   UNL d   1      19.580 -20.585   0.242  0.00  0.00    -0.005 C 
ATOM     19  C   UNL d   1      18.447 -20.417   1.272  0.00  0.00     0.005 C 
ENDBRANCH  17  18
ENDBRANCH  16  17
ENDBRANCH  15  16
ENDBRANCH  14  15
ENDBRANCH  13  14
ENDBRANCH  12  13
ENDBRANCH   4   7
ENDBRANCH   1   3
BRANCH   1  20
ATOM     20  N   UNL d   1      27.091 -11.963  -5.522  0.00  0.00    -0.343 N 
ATOM     21  C   UNL d   1      26.284 -11.204  -6.531  0.00  0.00     0.146 C 
ATOM     22  C   UNL d   1      27.115 -10.164  -7.200  0.00  0.00     0.142 C 
ATOM     23  N   UNL d   1      28.198 -10.900  -7.860  0.00  0.00    -0.358 N 
ATOM     24  C   UNL d   1      29.019 -11.751  -7.193  0.00  0.00     0.241 C 
ATOM     25  H   UNL d   1      28.612 -10.575  -8.719  0.00  0.00     0.162 HD
ATOM     26  O   UNL d   1      30.122 -12.065  -7.681  0.00  0.00    -0.271 OA
ATOM     27  C   UNL d   1      28.364 -12.525  -6.063  0.00  0.00     0.188 C 
BRANCH  27  28
ATOM     28  C   UNL d   1      28.199 -13.807  -6.877  0.00  0.00     0.146 C 
BRANCH  28  29
ATOM     29  C   UNL d   1      28.114 -14.865  -5.808  0.00  0.00     0.261 C 
ATOM     30  O   UNL d   1      27.137 -15.569  -5.661  0.00  0.00    -0.265 OA
BRANCH  29  31
ATOM     31  O   UNL d   1      29.239 -14.902  -5.039  0.00  0.00    -0.316 OA
BRANCH  31  32
ATOM     32  C   UNL d   1      30.128 -15.974  -5.407  0.00  0.00     0.127 C 
ATOM     33  C   UNL d   1      31.553 -15.410  -5.446  0.00  0.00     0.040 C 
BRANCH  32  34
ATOM     34  C   UNL d   1      30.012 -17.067  -4.338  0.00  0.00     0.027 C 
ATOM     35  C   UNL d   1      30.460 -18.425  -4.859  0.00  0.00     0.007 C 
ENDBRANCH  32  34
ENDBRANCH  31  32
ENDBRANCH  29  31
ENDBRANCH  28  29
ENDBRANCH  27  28
ENDBRANCH   1  20
TORSDOF 14
ENDMDL
MODEL 4
REMARK VINA RESULT:    -7.444      1.918      2.374
REMARK INTER + INTRA:         -14.361
REMARK INTER:                 -11.620
REMARK INTRA:                  -2.741
REMARK CONF_INDEPENDENT:        4.176
REMARK UNBOUND:                -2.741
REMARK  14 active torsions:
REMARK  status: ('A' for Active; 'I' for Inactive)
REMARK    1  A    between atoms: C_2  and  C_3 
REMARK    2  A    between atoms: C_3  and  C_4 
REMARK    3  A    between atoms: C_4  and  C_5 
REMARK    4  A    between atoms: C_5  and  C_6 
REMARK    5  A    between atoms: C_6  and  O_7 
REMARK    6  A    between atoms: O_7  and  C_8 
REMARK    7  A    between atoms: C_13  and  C_14 
REMARK       I    between atoms: C_14  and  N_16 
REMARK    8  A    between atoms: N_16  and  C_17 
REMARK    9  A    between atoms: C_17  and  N_19 
REMARK   10  A    between atoms: C_25  and  C_26 
REMARK   11  A    between atoms: C_26  and  C_27 
REMARK   12  A    between atoms: C_27  and  O_29 
REMARK   13  A    between atoms: O_29  and  C_30 
REMARK   14  A    between atoms: C_30  and  C_32 
ROOT
ATOM      1  C   UNL d   1      25.451 -14.050  -3.698  0.00  0.00     0.177 C 
ATOM      2  S   UNL d   1      23.899 -13.699  -4.270  0.00  0.00    -0.041 SA
ENDROOT
BRANCH   1   3
ATOM      3  N   UNL d   1      25.797 -15.270  -3.064  0.00  0.00    -0.299 N 
ATOM      4  C   UNL d   1      25.026 -15.899  -2.047  0.00  0.00     0.260 C 
ATOM      5  O   UNL d   1      23.818 -15.703  -1.910  0.00  0.00    -0.267 OA
ATOM      6  H   UNL d   1      26.741 -15.619  -3.159  0.00  0.00     0.171 HD
BRANCH   4   7
ATOM      7  C   UNL d   1      25.607 -16.875  -1.047  0.00  0.00     0.065 A 
ATOM      8  C   UNL d   1      27.024 -17.009  -1.070  0.00  0.00     0.020 A 
ATOM      9  C   UNL d   1      27.726 -17.827  -0.175  0.00  0.00     0.001 A 
ATOM     10  C   UNL d   1      27.026 -18.549   0.776  0.00  0.00     0.003 A 
ATOM     11  C   UNL d   1      25.629 -18.509   0.764  0.00  0.00     0.038 A 
ATOM     12  C   UNL d   1      24.918 -17.686  -0.142  0.00  0.00     0.084 A 
BRANCH  12  13
ATOM     13  O   UNL d   1      23.572 -17.653   0.062  0.00  0.00    -0.350 OA
BRANCH  13  14
ATOM     14  C   UNL d   1      22.902 -18.908  -0.011  0.00  0.00     0.175 C 
BRANCH  14  15
ATOM     15  C   UNL d   1      22.018 -18.817  -1.259  0.00  0.00     0.027 C 
BRANCH  15  16
ATOM     16  C   UNL d   1      20.571 -19.106  -0.864  0.00  0.00     0.002 C 
BRANCH  16  17
ATOM     17  C   UNL d   1      20.365 -19.927   0.441  0.00  0.00    -0.000 C 
BRANCH  17  18
ATOM     18  C   UNL d   1      18.937 -20.069   1.110  0.00  0.00    -0.005 C 
ATOM     19  C   UNL d   1      18.313 -21.465   0.924  0.00  0.00     0.005 C 
ENDBRANCH  17  18
ENDBRANCH  16  17
ENDBRANCH  15  16
ENDBRANCH  14  15
ENDBRANCH  13  14
ENDBRANCH  12  13
ENDBRANCH   4   7
ENDBRANCH   1   3
BRANCH   1  20
ATOM     20  N   UNL d   1      26.440 -13.044  -3.769  0.00  0.00    -0.343 N 
ATOM     21  C   UNL d   1      26.112 -11.726  -4.400  0.00  0.00     0.146 C 
ATOM     22  C   UNL d   1      26.749 -10.606  -3.651  0.00  0.00     0.142 C 
ATOM     23  N   UNL d   1      28.192 -10.865  -3.725  0.00  0.00    -0.358 N 
ATOM     24  C   UNL d   1      28.749 -12.034  -3.318  0.00  0.00     0.241 C 
ATOM     25  H   UNL d   1      28.863 -10.113  -3.740  0.00  0.00     0.162 HD
ATOM     26  O   UNL d   1      29.966 -12.086  -3.051  0.00  0.00    -0.271 OA
ATOM     27  C   UNL d   1      27.901 -13.270  -3.561  0.00  0.00     0.188 C 
BRANCH  27  28
ATOM     28  C   UNL d   1      28.665 -13.693  -4.814  0.00  0.00     0.146 C 
BRANCH  28  29
ATOM     29  C   UNL d   1      28.132 -15.080  -5.069  0.00  0.00     0.261 C 
ATOM     30  O   UNL d   1      27.523 -15.370  -6.077  0.00  0.00    -0.265 OA
BRANCH  29  31
ATOM     31  O   UNL d   1      28.398 -15.925  -4.033  0.00  0.00    -0.316 OA
BRANCH  31  32
ATOM     32  C   UNL d   1      29.810 -16.083  -3.794  0.00  0.00     0.127 C 
ATOM     33  C   UNL d   1      30.048 -15.966  -2.285  0.00  0.00     0.040 C 
BRANCH  32  34
ATOM     34  C   UNL d   1      30.218 -17.474  -4.295  0.00  0.00     0.027 C 
ATOM     35  C   UNL d   1      30.171 -17.571  -5.814  0.00  0.00     0.007 C 
ENDBRANCH  32  34
ENDBRANCH  31  32
ENDBRANCH  29  31
ENDBRANCH  28  29
ENDBRANCH  27  28
ENDBRANCH   1  20
TORSDOF 14
ENDMDL
MODEL 5
REMARK VINA RESULT:    -7.313      2.429      3.467
REMARK INTER + INTRA:         -14.246
REMARK INTER:                 -11.489
REMARK INTRA:                  -2.757
REMARK CONF_INDEPENDENT:        4.176
REMARK UNBOUND:                -2.757
REMARK  14 active torsions:
REMARK  status: ('A' for Active; 'I' for Inactive)
REMARK    1  A    between atoms: C_2  and  C_3 
REMARK    2  A    between atoms: C_3  and  C_4 
REMARK    3  A    between atoms: C_4  and  C_5 
REMARK    4  A    between atoms: C_5  and  C_6 
REMARK    5  A    between atoms: C_6  and  O_7 
REMARK    6  A    between atoms: O_7  and  C_8 
REMARK    7  A    between atoms: C_13  and  C_14 
REMARK       I    between atoms: C_14  and  N_16 
REMARK    8  A    between atoms: N_16  and  C_17 
REMARK    9  A    between atoms: C_17  and  N_19 
REMARK   10  A    between atoms: C_25  and  C_26 
REMARK   11  A    between atoms: C_26  and  C_27 
REMARK   12  A    between atoms: C_27  and  O_29 
REMARK   13  A    between atoms: O_29  and  C_30 
REMARK   14  A    between atoms: C_30  and  C_32 
ROOT
ATOM      1  C   UNL d   1      27.025 -13.977  -4.681  0.00  0.00     0.177 C 
ATOM      2  S   UNL d   1      25.946 -12.675  -4.662  0.00  0.00    -0.041 SA
ENDROOT
BRANCH   1   3
ATOM      3  N   UNL d   1      26.862 -15.142  -3.891  0.00  0.00    -0.299 N 
ATOM      4  C   UNL d   1      25.771 -15.376  -3.008  0.00  0.00     0.260 C 
ATOM      5  O   UNL d   1      24.678 -14.826  -3.142  0.00  0.00    -0.267 OA
ATOM      6  H   UNL d   1      27.655 -15.757  -3.759  0.00  0.00     0.171 HD
BRANCH   4   7
ATOM      7  C   UNL d   1      25.841 -16.326  -1.833  0.00  0.00     0.065 A 
ATOM      8  C   UNL d   1      27.150 -16.640  -1.371  0.00  0.00     0.020 A 
ATOM      9  C   UNL d   1      27.391 -17.458  -0.260  0.00  0.00     0.001 A 
ATOM     10  C   UNL d   1      26.318 -18.000   0.427  0.00  0.00     0.003 A 
ATOM     11  C   UNL d   1      25.025 -17.785  -0.056  0.00  0.00     0.038 A 
ATOM     12  C   UNL d   1      24.781 -16.961  -1.181  0.00  0.00     0.084 A 
BRANCH  12  13
ATOM     13  O   UNL d   1      23.463 -16.741  -1.444  0.00  0.00    -0.350 OA
BRANCH  13  14
ATOM     14  C   UNL d   1      22.542 -17.292  -0.507  0.00  0.00     0.175 C 
BRANCH  14  15
ATOM     15  C   UNL d   1      22.028 -18.579  -1.161  0.00  0.00     0.027 C 
BRANCH  15  16
ATOM     16  C   UNL d   1      21.166 -19.338  -0.154  0.00  0.00     0.002 C 
BRANCH  16  17
ATOM     17  C   UNL d   1      19.644 -19.400  -0.459  0.00  0.00    -0.000 C 
BRANCH  17  18
ATOM     18  C   UNL d   1      18.705 -20.470   0.233  0.00  0.00    -0.005 C 
ATOM     19  C   UNL d   1      18.782 -20.444   1.771  0.00  0.00     0.005 C 
ENDBRANCH  17  18
ENDBRANCH  16  17
ENDBRANCH  15  16
ENDBRANCH  14  15
ENDBRANCH  13  14
ENDBRANCH  12  13
ENDBRANCH   4   7
ENDBRANCH   1   3
BRANCH   1  20
ATOM     20  N   UNL d   1      28.202 -13.867  -5.454  0.00  0.00    -0.343 N 
ATOM     21  C   UNL d   1      28.153 -13.186  -6.787  0.00  0.00     0.146 C 
ATOM     22  C   UNL d   1      29.378 -12.367  -7.008  0.00  0.00     0.142 C 
ATOM     23  N   UNL d   1      30.493 -13.319  -6.961  0.00  0.00    -0.358 N 
ATOM     24  C   UNL d   1      30.707 -14.145  -5.905  0.00  0.00     0.241 C 
ATOM     25  H   UNL d   1      31.330 -13.182  -7.506  0.00  0.00     0.162 HD
ATOM     26  O   UNL d   1      31.830 -14.658  -5.732  0.00  0.00    -0.271 OA
ATOM     27  C   UNL d   1      29.451 -14.652  -5.219  0.00  0.00     0.188 C 
BRANCH  27  28
ATOM     28  C   UNL d   1      29.484 -16.017  -5.905  0.00  0.00     0.146 C 
BRANCH  28  29
ATOM     29  C   UNL d   1      29.710 -16.957  -4.749  0.00  0.00     0.261 C 
ATOM     30  O   UNL d   1      30.112 -18.092  -4.900  0.00  0.00    -0.265 OA
BRANCH  29  31
ATOM     31  O   UNL d   1      29.389 -16.383  -3.555  0.00  0.00    -0.316 OA
BRANCH  31  32
ATOM     32  C   UNL d   1      30.518 -16.283  -2.666  0.00  0.00     0.127 C 
ATOM     33  C   UNL d   1      30.392 -14.966  -1.892  0.00  0.00     0.040 C 
BRANCH  32  34
ATOM     34  C   UNL d   1      30.464 -17.478  -1.705  0.00  0.00     0.027 C 
ATOM     35  C   UNL d   1      30.713 -17.062  -0.263  0.00  0.00     0.007 C 
ENDBRANCH  32  34
ENDBRANCH  31  32
ENDBRANCH  29  31
ENDBRANCH  28  29
ENDBRANCH  27  28
ENDBRANCH   1  20
TORSDOF 14
ENDMDL
MODEL 6
REMARK VINA RESULT:    -6.805      1.775      7.571
REMARK INTER + INTRA:         -14.448
REMARK INTER:                 -10.981
REMARK INTRA:                  -3.466
REMARK CONF_INDEPENDENT:        4.176
REMARK UNBOUND:                -3.466
REMARK  14 active torsions:
REMARK  status: ('A' for Active; 'I' for Inactive)
REMARK    1  A    between atoms: C_2  and  C_3 
REMARK    2  A    between atoms: C_3  and  C_4 
REMARK    3  A    between atoms: C_4  and  C_5 
REMARK    4  A    between atoms: C_5  and  C_6 
REMARK    5  A    between atoms: C_6  and  O_7 
REMARK    6  A    between atoms: O_7  and  C_8 
REMARK    7  A    between atoms: C_13  and  C_14 
REMARK       I    between atoms: C_14  and  N_16 
REMARK    8  A    between atoms: N_16  and  C_17 
REMARK    9  A    between atoms: C_17  and  N_19 
REMARK   10  A    between atoms: C_25  and  C_26 
REMARK   11  A    between atoms: C_26  and  C_27 
REMARK   12  A    between atoms: C_27  and  O_29 
REMARK   13  A    between atoms: O_29  and  C_30 
REMARK   14  A    between atoms: C_30  and  C_32 
ROOT
ATOM      1  C   UNL d   1      26.673 -13.942  -0.264  0.00  0.00     0.177 C 
ATOM      2  S   UNL d   1      26.347 -13.230   1.235  0.00  0.00    -0.041 SA
ENDROOT
BRANCH   1   3
ATOM      3  N   UNL d   1      26.353 -13.337  -1.505  0.00  0.00    -0.299 N 
ATOM      4  C   UNL d   1      27.073 -12.257  -2.089  0.00  0.00     0.260 C 
ATOM      5  O   UNL d   1      28.250 -12.018  -1.817  0.00  0.00    -0.267 OA
ATOM      6  H   UNL d   1      25.444 -13.512  -1.914  0.00  0.00     0.171 HD
BRANCH   4   7
ATOM      7  C   UNL d   1      26.473 -11.309  -3.104  0.00  0.00     0.065 A 
ATOM      8  C   UNL d   1      26.311  -9.963  -2.669  0.00  0.00     0.020 A 
ATOM      9  C   UNL d   1      25.822  -8.947  -3.501  0.00  0.00     0.001 A 
ATOM     10  C   UNL d   1      25.470  -9.250  -4.805  0.00  0.00     0.003 A 
ATOM     11  C   UNL d   1      25.532 -10.579  -5.232  0.00  0.00     0.038 A 
ATOM     12  C   UNL d   1      26.022 -11.607  -4.392  0.00  0.00     0.084 A 
BRANCH  12  13
ATOM     13  O   UNL d   1      26.147 -12.820  -4.998  0.00  0.00    -0.350 OA
BRANCH  13  14
ATOM     14  C   UNL d   1      25.174 -13.797  -4.639  0.00  0.00     0.175 C 
BRANCH  14  15
ATOM     15  C   UNL d   1      25.905 -15.141  -4.730  0.00  0.00     0.027 C 
BRANCH  15  16
ATOM     16  C   UNL d   1      27.213 -15.048  -3.946  0.00  0.00     0.002 C 
BRANCH  16  17
ATOM     17  C   UNL d   1      28.474 -15.634  -4.640  0.00  0.00    -0.000 C 
BRANCH  17  18
ATOM     18  C   UNL d   1      28.880 -15.209  -6.111  0.00  0.00    -0.005 C 
ATOM     19  C   UNL d   1      28.465 -13.769  -6.465  0.00  0.00     0.005 C 
ENDBRANCH  17  18
ENDBRANCH  16  17
ENDBRANCH  15  16
ENDBRANCH  14  15
ENDBRANCH  13  14
ENDBRANCH  12  13
ENDBRANCH   4   7
ENDBRANCH   1   3
BRANCH   1  20
ATOM     20  N   UNL d   1      27.206 -15.249  -0.290  0.00  0.00    -0.343 N 
ATOM     21  C   UNL d   1      28.572 -15.482  -0.861  0.00  0.00     0.146 C 
ATOM     22  C   UNL d   1      29.314 -16.497  -0.062  0.00  0.00     0.142 C 
ATOM     23  N   UNL d   1      28.508 -17.720  -0.148  0.00  0.00    -0.358 N 
ATOM     24  C   UNL d   1      27.198 -17.761   0.206  0.00  0.00     0.241 C 
ATOM     25  H   UNL d   1      28.931 -18.635  -0.130  0.00  0.00     0.162 HD
ATOM     26  O   UNL d   1      26.657 -18.853   0.469  0.00  0.00    -0.271 OA
ATOM     27  C   UNL d   1      26.411 -16.497  -0.092  0.00  0.00     0.188 C 
BRANCH  27  28
ATOM     28  C   UNL d   1      25.771 -17.053  -1.364  0.00  0.00     0.146 C 
BRANCH  28  29
ATOM     29  C   UNL d   1      24.454 -16.323  -1.413  0.00  0.00     0.261 C 
ATOM     30  O   UNL d   1      24.285 -15.325  -2.081  0.00  0.00    -0.265 OA
BRANCH  29  31
ATOM     31  O   UNL d   1      23.519 -16.906  -0.610  0.00  0.00    -0.316 OA
BRANCH  31  32
ATOM     32  C   UNL d   1      22.973 -18.111  -1.179  0.00  0.00     0.127 C 
ATOM     33  C   UNL d   1      23.656 -19.303  -0.500  0.00  0.00     0.040 C 
BRANCH  32  34
ATOM     34  C   UNL d   1      21.466 -18.123  -0.895  0.00  0.00     0.027 C 
ATOM     35  C   UNL d   1      21.034 -19.381  -0.154  0.00  0.00     0.007 C 
ENDBRANCH  32  34
ENDBRANCH  31  32
ENDBRANCH  29  31
ENDBRANCH  28  29
ENDBRANCH  27  28
ENDBRANCH   1  20
TORSDOF 14
ENDMDL
MODEL 7
REMARK VINA RESULT:    -6.219      3.454      6.536
REMARK INTER + INTRA:         -14.130
REMARK INTER:                 -10.396
REMARK INTRA:                  -3.734
REMARK CONF_INDEPENDENT:        4.176
REMARK UNBOUND:                -3.734
REMARK  14 active torsions:
REMARK  status: ('A' for Active; 'I' for Inactive)
REMARK    1  A    between atoms: C_2  and  C_3 
REMARK    2  A    between atoms: C_3  and  C_4 
REMARK    3  A    between atoms: C_4  and  C_5 
REMARK    4  A    between atoms: C_5  and  C_6 
REMARK    5  A    between atoms: C_6  and  O_7 
REMARK    6  A    between atoms: O_7  and  C_8 
REMARK    7  A    between atoms: C_13  and  C_14 
REMARK       I    between atoms: C_14  and  N_16 
REMARK    8  A    between atoms: N_16  and  C_17 
REMARK    9  A    between atoms: C_17  and  N_19 
REMARK   10  A    between atoms: C_25  and  C_26 
REMARK   11  A    between atoms: C_26  and  C_27 
REMARK   12  A    between atoms: C_27  and  O_29 
REMARK   13  A    between atoms: O_29  and  C_30 
REMARK   14  A    between atoms: C_30  and  C_32 
ROOT
ATOM      1  C   UNL d   1      30.275 -16.268  -4.934  0.00  0.00     0.177 C 
ATOM      2  S   UNL d   1      31.106 -15.641  -6.267  0.00  0.00    -0.041 SA
ENDROOT
BRANCH   1   3
ATOM      3  N   UNL d   1      29.169 -15.623  -4.324  0.00  0.00    -0.299 N 
ATOM      4  C   UNL d   1      28.047 -15.102  -5.028  0.00  0.00     0.260 C 
ATOM      5  O   UNL d   1      27.711 -15.511  -6.139  0.00  0.00    -0.267 OA
ATOM      6  H   UNL d   1      29.257 -15.306  -3.368  0.00  0.00     0.171 HD
BRANCH   4   7
ATOM      7  C   UNL d   1      27.155 -14.011  -4.478  0.00  0.00     0.065 A 
ATOM      8  C   UNL d   1      27.713 -12.702  -4.477  0.00  0.00     0.020 A 
ATOM      9  C   UNL d   1      27.001 -11.571  -4.054  0.00  0.00     0.001 A 
ATOM     10  C   UNL d   1      25.699 -11.717  -3.609  0.00  0.00     0.003 A 
ATOM     11  C   UNL d   1      25.156 -13.001  -3.513  0.00  0.00     0.038 A 
ATOM     12  C   UNL d   1      25.875 -14.144  -3.935  0.00  0.00     0.084 A 
BRANCH  12  13
ATOM     13  O   UNL d   1      25.160 -15.303  -3.905  0.00  0.00    -0.350 OA
BRANCH  13  14
ATOM     14  C   UNL d   1      25.316 -16.098  -2.733  0.00  0.00     0.175 C 
BRANCH  14  15
ATOM     15  C   UNL d   1      24.166 -15.680  -1.811  0.00  0.00     0.027 C 
BRANCH  15  16
ATOM     16  C   UNL d   1      23.968 -16.757  -0.745  0.00  0.00     0.002 C 
BRANCH  16  17
ATOM     17  C   UNL d   1      23.656 -18.189  -1.262  0.00  0.00    -0.000 C 
BRANCH  17  18
ATOM     18  C   UNL d   1      22.610 -19.123  -0.527  0.00  0.00    -0.005 C 
ATOM     19  C   UNL d   1      21.147 -18.806  -0.893  0.00  0.00     0.005 C 
ENDBRANCH  17  18
ENDBRANCH  16  17
ENDBRANCH  15  16
ENDBRANCH  14  15
ENDBRANCH  13  14
ENDBRANCH  12  13
ENDBRANCH   4   7
ENDBRANCH   1   3
BRANCH   1  20
ATOM     20  N   UNL d   1      30.758 -17.450  -4.332  0.00  0.00    -0.343 N 
ATOM     21  C   UNL d   1      30.353 -18.783  -4.883  0.00  0.00     0.146 C 
ATOM     22  C   UNL d   1      31.495 -19.739  -4.850  0.00  0.00     0.142 C 
ATOM     23  N   UNL d   1      31.856 -19.860  -3.433  0.00  0.00    -0.358 N 
ATOM     24  C   UNL d   1      32.165 -18.787  -2.661  0.00  0.00     0.241 C 
ATOM     25  H   UNL d   1      32.230 -20.716  -3.054  0.00  0.00     0.162 HD
ATOM     26  O   UNL d   1      32.806 -18.943  -1.603  0.00  0.00    -0.271 OA
ATOM     27  C   UNL d   1      31.391 -17.520  -2.981  0.00  0.00     0.188 C 
BRANCH  27  28
ATOM     28  C   UNL d   1      30.407 -17.687  -1.824  0.00  0.00     0.146 C 
BRANCH  28  29
ATOM     29  C   UNL d   1      29.857 -16.294  -1.660  0.00  0.00     0.261 C 
ATOM     30  O   UNL d   1      30.566 -15.311  -1.624  0.00  0.00    -0.265 OA
BRANCH  29  31
ATOM     31  O   UNL d   1      28.499 -16.295  -1.539  0.00  0.00    -0.316 OA
BRANCH  31  32
ATOM     32  C   UNL d   1      28.050 -15.682  -0.315  0.00  0.00     0.127 C 
ATOM     33  C   UNL d   1      27.388 -14.347  -0.672  0.00  0.00     0.040 C 
BRANCH  32  34
ATOM     34  C   UNL d   1      27.034 -16.628   0.337  0.00  0.00     0.027 C 
ATOM     35  C   UNL d   1      27.221 -18.068  -0.117  0.00  0.00     0.007 C 
ENDBRANCH  32  34
ENDBRANCH  31  32
ENDBRANCH  29  31
ENDBRANCH  28  29
ENDBRANCH  27  28
ENDBRANCH   1  20
TORSDOF 14
ENDMDL
MODEL 8
REMARK VINA RESULT:    -5.719      2.751      4.981
REMARK INTER + INTRA:         -13.994
REMARK INTER:                  -9.895
REMARK INTRA:                  -4.098
REMARK CONF_INDEPENDENT:        4.176
REMARK UNBOUND:                -4.098
REMARK  14 active torsions:
REMARK  status: ('A' for Active; 'I' for Inactive)
REMARK    1  A    between atoms: C_2  and  C_3 
REMARK    2  A    between atoms: C_3  and  C_4 
REMARK    3  A    between atoms: C_4  and  C_5 
REMARK    4  A    between atoms: C_5  and  C_6 
REMARK    5  A    between atoms: C_6  and  O_7 
REMARK    6  A    between atoms: O_7  and  C_8 
REMARK    7  A    between atoms: C_13  and  C_14 
REMARK       I    between atoms: C_14  and  N_16 
REMARK    8  A    between atoms: N_16  and  C_17 
REMARK    9  A    between atoms: C_17  and  N_19 
REMARK   10  A    between atoms: C_25  and  C_26 
REMARK   11  A    between atoms: C_26  and  C_27 
REMARK   12  A    between atoms: C_27  and  O_29 
REMARK   13  A    between atoms: O_29  and  C_30 
REMARK   14  A    between atoms: C_30  and  C_32 
ROOT
ATOM      1  C   UNL d   1      27.641 -13.836  -3.626  0.00  0.00     0.177 C 
ATOM      2  S   UNL d   1      27.674 -12.360  -2.800  0.00  0.00    -0.041 SA
ENDROOT
BRANCH   1   3
ATOM      3  N   UNL d   1      27.144 -15.038  -3.064  0.00  0.00    -0.299 N 
ATOM      4  C   UNL d   1      25.768 -15.311  -2.825  0.00  0.00     0.260 C 
ATOM      5  O   UNL d   1      24.861 -14.751  -3.442  0.00  0.00    -0.267 OA
ATOM      6  H   UNL d   1      27.789 -15.662  -2.597  0.00  0.00     0.171 HD
BRANCH   4   7
ATOM      7  C   UNL d   1      25.285 -16.319  -1.806  0.00  0.00     0.065 A 
ATOM      8  C   UNL d   1      23.890 -16.290  -1.523  0.00  0.00     0.020 A 
ATOM      9  C   UNL d   1      23.271 -17.191  -0.647  0.00  0.00     0.001 A 
ATOM     10  C   UNL d   1      24.037 -18.155  -0.013  0.00  0.00     0.003 A 
ATOM     11  C   UNL d   1      25.421 -18.150  -0.200  0.00  0.00     0.038 A 
ATOM     12  C   UNL d   1      26.048 -17.238  -1.082  0.00  0.00     0.084 A 
BRANCH  12  13
ATOM     13  O   UNL d   1      27.382 -17.450  -1.258  0.00  0.00    -0.350 OA
BRANCH  13  14
ATOM     14  C   UNL d   1      28.170 -17.474  -0.071  0.00  0.00     0.175 C 
BRANCH  14  15
ATOM     15  C   UNL d   1      29.314 -16.489  -0.330  0.00  0.00     0.027 C 
BRANCH  15  16
ATOM     16  C   UNL d   1      29.000 -15.167   0.369  0.00  0.00     0.002 C 
BRANCH  16  17
ATOM     17  C   UNL d   1      27.559 -15.012   0.931  0.00  0.00    -0.000 C 
BRANCH  17  18
ATOM     18  C   UNL d   1      26.642 -13.787   0.524  0.00  0.00    -0.005 C 
ATOM     19  C   UNL d   1      26.679 -12.633   1.544  0.00  0.00     0.005 C 
ENDBRANCH  17  18
ENDBRANCH  16  17
ENDBRANCH  15  16
ENDBRANCH  14  15
ENDBRANCH  13  14
ENDBRANCH  12  13
ENDBRANCH   4   7
ENDBRANCH   1   3
BRANCH   1  20
ATOM     20  N   UNL d   1      28.224 -13.904  -4.911  0.00  0.00    -0.343 N 
ATOM     21  C   UNL d   1      27.420 -13.509  -6.111  0.00  0.00     0.146 C 
ATOM     22  C   UNL d   1      28.262 -12.771  -7.094  0.00  0.00     0.142 C 
ATOM     23  N   UNL d   1      29.323 -13.710  -7.475  0.00  0.00    -0.358 N 
ATOM     24  C   UNL d   1      30.136 -14.306  -6.565  0.00  0.00     0.241 C 
ATOM     25  H   UNL d   1      29.733 -13.700  -8.395  0.00  0.00     0.162 HD
ATOM     26  O   UNL d   1      31.227 -14.790  -6.925  0.00  0.00    -0.271 OA
ATOM     27  C   UNL d   1      29.479 -14.643  -5.238  0.00  0.00     0.188 C 
BRANCH  27  28
ATOM     28  C   UNL d   1      29.280 -16.119  -5.576  0.00  0.00     0.146 C 
BRANCH  28  29
ATOM     29  C   UNL d   1      29.702 -16.805  -4.302  0.00  0.00     0.261 C 
ATOM     30  O   UNL d   1      29.755 -16.228  -3.236  0.00  0.00    -0.265 OA
BRANCH  29  31
ATOM     31  O   UNL d   1      30.027 -18.112  -4.512  0.00  0.00    -0.316 OA
BRANCH  31  32
ATOM     32  C   UNL d   1      30.874 -18.295  -5.662  0.00  0.00     0.127 C 
ATOM     33  C   UNL d   1      32.306 -17.927  -5.256  0.00  0.00     0.040 C 
BRANCH  32  34
ATOM     34  C   UNL d   1      30.796 -19.771  -6.072  0.00  0.00     0.027 C 
ATOM     35  C   UNL d   1      30.781 -19.945  -7.584  0.00  0.00     0.007 C 
ENDBRANCH  32  34
ENDBRANCH  31  32
ENDBRANCH  29  31
ENDBRANCH  28  29
ENDBRANCH  27  28
ENDBRANCH   1  20
TORSDOF 14
ENDMDL
MODEL 9
REMARK VINA RESULT:    -5.053      2.767      6.095
REMARK INTER + INTRA:         -14.187
REMARK INTER:                  -9.229
REMARK INTRA:                  -4.958
REMARK CONF_INDEPENDENT:        4.176
REMARK UNBOUND:                -4.958
REMARK  14 active torsions:
REMARK  status: ('A' for Active; 'I' for Inactive)
REMARK    1  A    between atoms: C_2  and  C_3 
REMARK    2  A    between atoms: C_3  and  C_4 
REMARK    3  A    between atoms: C_4  and  C_5 
REMARK    4  A    between atoms: C_5  and  C_6 
REMARK    5  A    between atoms: C_6  and  O_7 
REMARK    6  A    between atoms: O_7  and  C_8 
REMARK    7  A    between atoms: C_13  and  C_14 
REMARK       I    between atoms: C_14  and  N_16 
REMARK    8  A    between atoms: N_16  and  C_17 
REMARK    9  A    between atoms: C_17  and  N_19 
REMARK   10  A    between atoms: C_25  and  C_26 
REMARK   11  A    between atoms: C_26  and  C_27 
REMARK   12  A    between atoms: C_27  and  O_29 
REMARK   13  A    between atoms: O_29  and  C_30 
REMARK   14  A    between atoms: C_30  and  C_32 
ROOT
ATOM      1  C   UNL d   1      29.147 -16.724  -1.473  0.00  0.00     0.177 C 
ATOM      2  S   UNL d   1      30.390 -17.142  -0.406  0.00  0.00    -0.041 SA
ENDROOT
BRANCH   1   3
ATOM      3  N   UNL d   1      27.806 -16.505  -1.068  0.00  0.00    -0.299 N 
ATOM      4  C   UNL d   1      26.947 -17.509  -0.540  0.00  0.00     0.260 C 
ATOM      5  O   UNL d   1      27.370 -18.527   0.007  0.00  0.00    -0.267 OA
ATOM      6  H   UNL d   1      27.339 -15.657  -1.363  0.00  0.00     0.171 HD
BRANCH   4   7
ATOM      7  C   UNL d   1      25.437 -17.419  -0.585  0.00  0.00     0.065 A 
ATOM      8  C   UNL d   1      24.737 -18.570  -0.126  0.00  0.00     0.020 A 
ATOM      9  C   UNL d   1      23.339 -18.633  -0.049  0.00  0.00     0.001 A 
ATOM     10  C   UNL d   1      22.590 -17.536  -0.441  0.00  0.00     0.003 A 
ATOM     11  C   UNL d   1      23.244 -16.427  -0.982  0.00  0.00     0.038 A 
ATOM     12  C   UNL d   1      24.656 -16.364  -1.063  0.00  0.00     0.084 A 
BRANCH  12  13
ATOM     13  O   UNL d   1      25.144 -15.165  -1.486  0.00  0.00    -0.350 OA
BRANCH  13  14
ATOM     14  C   UNL d   1      24.681 -14.719  -2.757  0.00  0.00     0.175 C 
BRANCH  14  15
ATOM     15  C   UNL d   1      25.575 -15.428  -3.780  0.00  0.00     0.027 C 
BRANCH  15  16
ATOM     16  C   UNL d   1      25.981 -14.428  -4.861  0.00  0.00     0.002 C 
BRANCH  16  17
ATOM     17  C   UNL d   1      25.522 -12.958  -4.647  0.00  0.00    -0.000 C 
BRANCH  17  18
ATOM     18  C   UNL d   1      26.157 -11.766  -5.473  0.00  0.00    -0.005 C 
ATOM     19  C   UNL d   1      27.456 -12.154  -6.204  0.00  0.00     0.005 C 
ENDBRANCH  17  18
ENDBRANCH  16  17
ENDBRANCH  15  16
ENDBRANCH  14  15
ENDBRANCH  13  14
ENDBRANCH  12  13
ENDBRANCH   4   7
ENDBRANCH   1   3
BRANCH   1  20
ATOM     20  N   UNL d   1      29.430 -16.679  -2.856  0.00  0.00    -0.343 N 
ATOM     21  C   UNL d   1      30.551 -17.504  -3.410  0.00  0.00     0.146 C 
ATOM     22  C   UNL d   1      30.183 -18.076  -4.735  0.00  0.00     0.142 C 
ATOM     23  N   UNL d   1      29.926 -16.918  -5.598  0.00  0.00    -0.358 N 
ATOM     24  C   UNL d   1      29.029 -15.950  -5.277  0.00  0.00     0.241 C 
ATOM     25  H   UNL d   1      30.113 -16.943  -6.588  0.00  0.00     0.162 HD
ATOM     26  O   UNL d   1      28.573 -15.202  -6.165  0.00  0.00    -0.271 OA
ATOM     27  C   UNL d   1      28.924 -15.635  -3.796  0.00  0.00     0.188 C 
BRANCH  27  28
ATOM     28  C   UNL d   1      29.790 -14.379  -3.880  0.00  0.00     0.146 C 
BRANCH  28  29
ATOM     29  C   UNL d   1      28.958 -13.359  -3.147  0.00  0.00     0.261 C 
ATOM     30  O   UNL d   1      28.952 -12.184  -3.447  0.00  0.00    -0.265 OA
BRANCH  29  31
ATOM     31  O   UNL d   1      28.257 -13.917  -2.119  0.00  0.00    -0.316 OA
BRANCH  31  32
ATOM     32  C   UNL d   1      27.815 -12.943  -1.155  0.00  0.00     0.127 C 
ATOM     33  C   UNL d   1      26.658 -12.155  -1.780  0.00  0.00     0.040 C 
BRANCH  32  34
ATOM     34  C   UNL d   1      27.338 -13.699   0.091  0.00  0.00     0.027 C 
ATOM     35  C   UNL d   1      28.501 -14.227   0.919  0.00  0.00     0.007 C 
ENDBRANCH  32  34
ENDBRANCH  31  32
ENDBRANCH  29  31
ENDBRANCH  28  29
ENDBRANCH  27  28
ENDBRANCH   1  20
TORSDOF 14
ENDMDL
