MODEL 1
REMARK VINA RESULT:   -31.666      0.000      0.000
REMARK INTER + INTRA:         -33.281
REMARK INTER:                 -32.859
REMARK INTRA:                  -0.422
REMARK CONF_INDEPENDENT:        1.193
REMARK UNBOUND:                -0.422
REMARK  4 active torsions:
REMARK  status: ('A' for Active; 'I' for Inactive)
REMARK    1  A    between atoms: C_2  and  C_3 
REMARK       I    between atoms: C_2  and  N_14 
REMARK    2  A    between atoms: C_3  and  S_4 
REMARK    3  A    between atoms: S_4  and  C_5 
REMARK       I    between atoms: N_14  and  C_15 
REMARK       I    between atoms: C_15  and  N_17 
REMARK    4  A    between atoms: N_17  and  C_18 
ROOT
ATOM      1  O   UNL d   1      26.056 -18.934   0.622  0.00  0.00    -0.272 OA
ATOM      2  C   UNL d   1      25.555 -18.152  -0.184  0.00  0.00     0.235 C 
ATOM      3  N   UNL d   1      26.341 -17.101  -0.677  0.00  0.00    -0.278 N 
ATOM      4  C   UNL d   1      25.951 -16.113  -1.560  0.00  0.00     0.327 C 
ATOM      5  O   UNL d   1      24.811 -16.098  -2.032  0.00  0.00    -0.247 OA
ATOM      6  N   UNL d   1      26.915 -15.172  -1.902  0.00  0.00    -0.309 N 
ATOM      7  H   UNL d   1      27.274 -17.095  -0.289  0.00  0.00     0.173 HD
ATOM      8  H   UNL d   1      27.895 -15.382  -1.757  0.00  0.00     0.170 HD
ENDROOT
BRANCH   2   9
ATOM      9  C   UNL d   1      24.103 -18.235  -0.673  0.00  0.00     0.185 C 
BRANCH   9  10
ATOM     10  S   UNL d   1      22.842 -17.823   0.544  0.00  0.00    -0.081 SA
BRANCH  10  11
ATOM     11  C   UNL d   1      21.347 -18.610   0.077  0.00  0.00     0.196 A 
ATOM     12  N   UNL d   1      20.932 -18.599  -1.178  0.00  0.00    -0.122 NA
ATOM     13  N   UNL d   1      19.766 -19.324  -1.270  0.00  0.00    -0.129 NA
ATOM     14  C   UNL d   1      19.483 -19.776  -0.069  0.00  0.00     0.158 A 
ATOM     15  C   UNL d   1      18.413 -20.583   0.418  0.00  0.00     0.053 A 
ATOM     16  N   UNL d   1      20.456 -19.348   0.841  0.00  0.00    -0.283 N 
ATOM     17  C   UNL d   1      18.364 -20.913   1.723  0.00  0.00     0.005 A 
ATOM     18  C   UNL d   1      19.377 -20.452   2.648  0.00  0.00     0.018 A 
ATOM     19  C   UNL d   1      20.381 -19.690   2.191  0.00  0.00     0.101 A 
ENDBRANCH  10  11
ENDBRANCH   9  10
ENDBRANCH   2   9
BRANCH   6  20
ATOM     20  C   UNL d   1      26.601 -14.125  -2.829  0.00  0.00     0.039 A 
ATOM     21  C   UNL d   1      26.218 -14.404  -4.149  0.00  0.00     0.032 A 
ATOM     22  C   UNL d   1      25.840 -13.357  -5.015  0.00  0.00     0.042 A 
ATOM     23  C   UNL d   1      25.897 -12.027  -4.591  0.00  0.00     0.102 A 
ATOM     24  C   UNL d   1      26.302 -11.746  -3.289  0.00  0.00     0.104 A 
ATOM     25  O   UNL d   1      25.541 -11.056  -5.492  0.00  0.00    -0.346 OA
ATOM     26  C   UNL d   1      26.653 -12.784  -2.424  0.00  0.00     0.069 A 
ATOM     27  O   UNL d   1      26.393 -10.474  -2.784  0.00  0.00    -0.346 OA
ATOM     28  C   UNL d   1      25.693  -9.528  -3.596  0.00  0.00     0.202 C 
ATOM     29  C   UNL d   1      25.977  -9.755  -5.071  0.00  0.00     0.202 C 
ENDBRANCH   6  20
TORSDOF 4
ENDMDL
MODEL 2
REMARK VINA RESULT:   -31.580      1.218      1.746
REMARK INTER + INTRA:         -33.155
REMARK INTER:                 -32.773
REMARK INTRA:                  -0.382
REMARK CONF_INDEPENDENT:        1.193
REMARK UNBOUND:                -0.382
REMARK  4 active torsions:
REMARK  status: ('A' for Active; 'I' for Inactive)
REMARK    1  A    between atoms: C_2  and  C_3 
REMARK       I    between atoms: C_2  and  N_14 
REMARK    2  A    between atoms: C_3  and  S_4 
REMARK    3  A    between atoms: S_4  and  C_5 
REMARK       I    between atoms: N_14  and  C_15 
REMARK       I    between atoms: C_15  and  N_17 
REMARK    4  A    between atoms: N_17  and  C_18 
ROOT
ATOM      1  O   UNL d   1      25.949 -18.944   0.001  0.00  0.00    -0.272 OA
ATOM      2  C   UNL d   1      25.470 -18.045  -0.689  0.00  0.00     0.235 C 
ATOM      3  N   UNL d   1      26.343 -17.163  -1.342  0.00  0.00    -0.278 N 
ATOM      4  C   UNL d   1      25.997 -16.084  -2.131  0.00  0.00     0.327 C 
ATOM      5  O   UNL d   1      24.815 -15.814  -2.356  0.00  0.00    -0.247 OA
ATOM      6  N   UNL d   1      27.048 -15.352  -2.674  0.00  0.00    -0.309 N 
ATOM      7  H   UNL d   1      27.314 -17.367  -1.157  0.00  0.00     0.173 HD
ATOM      8  H   UNL d   1      27.969 -15.767  -2.735  0.00  0.00     0.170 HD
ENDROOT
BRANCH   2   9
ATOM      9  C   UNL d   1      23.965 -17.805  -0.864  0.00  0.00     0.185 C 
BRANCH   9  10
ATOM     10  S   UNL d   1      22.955 -18.056   0.605  0.00  0.00    -0.081 SA
BRANCH  10  11
ATOM     11  C   UNL d   1      21.417 -18.732   0.108  0.00  0.00     0.196 A 
ATOM     12  N   UNL d   1      21.024 -18.683  -1.152  0.00  0.00    -0.122 NA
ATOM     13  N   UNL d   1      19.811 -19.324  -1.269  0.00  0.00    -0.129 NA
ATOM     14  C   UNL d   1      19.478 -19.763  -0.077  0.00  0.00     0.158 A 
ATOM     15  C   UNL d   1      18.346 -20.498   0.386  0.00  0.00     0.053 A 
ATOM     16  N   UNL d   1      20.463 -19.412   0.852  0.00  0.00    -0.283 N 
ATOM     17  C   UNL d   1      18.253 -20.832   1.688  0.00  0.00     0.005 A 
ATOM     18  C   UNL d   1      19.280 -20.450   2.633  0.00  0.00     0.018 A 
ATOM     19  C   UNL d   1      20.343 -19.757   2.198  0.00  0.00     0.101 A 
ENDBRANCH  10  11
ENDBRANCH   9  10
ENDBRANCH   2   9
BRANCH   6  20
ATOM     20  C   UNL d   1      26.779 -14.229  -3.523  0.00  0.00     0.039 A 
ATOM     21  C   UNL d   1      25.937 -13.186  -3.113  0.00  0.00     0.032 A 
ATOM     22  C   UNL d   1      25.752 -12.056  -3.939  0.00  0.00     0.042 A 
ATOM     23  C   UNL d   1      26.356 -11.989  -5.197  0.00  0.00     0.102 A 
ATOM     24  C   UNL d   1      27.172 -13.036  -5.617  0.00  0.00     0.104 A 
ATOM     25  O   UNL d   1      26.113 -10.875  -5.960  0.00  0.00    -0.346 OA
ATOM     26  C   UNL d   1      27.374 -14.142  -4.789  0.00  0.00     0.069 A 
ATOM     27  O   UNL d   1      27.802 -13.061  -6.834  0.00  0.00    -0.346 OA
ATOM     28  C   UNL d   1      27.830 -11.769  -7.446  0.00  0.00     0.202 C 
ATOM     29  C   UNL d   1      26.480 -11.081  -7.333  0.00  0.00     0.202 C 
ENDBRANCH   6  20
TORSDOF 4
ENDMDL
MODEL 3
REMARK VINA RESULT:   -31.273      2.499      3.321
REMARK INTER + INTRA:         -33.016
REMARK INTER:                 -32.466
REMARK INTRA:                  -0.550
REMARK CONF_INDEPENDENT:        1.193
REMARK UNBOUND:                -0.550
REMARK  4 active torsions:
REMARK  status: ('A' for Active; 'I' for Inactive)
REMARK    1  A    between atoms: C_2  and  C_3 
REMARK       I    between atoms: C_2  and  N_14 
REMARK    2  A    between atoms: C_3  and  S_4 
REMARK    3  A    between atoms: S_4  and  C_5 
REMARK       I    between atoms: N_14  and  C_15 
REMARK       I    between atoms: C_15  and  N_17 
REMARK    4  A    between atoms: N_17  and  C_18 
ROOT
ATOM      1  O   UNL d   1      21.894 -16.150  -0.858  0.00  0.00    -0.272 OA
ATOM      2  C   UNL d   1      23.054 -16.251  -1.252  0.00  0.00     0.235 C 
ATOM      3  N   UNL d   1      23.591 -15.214  -2.029  0.00  0.00    -0.278 N 
ATOM      4  C   UNL d   1      24.855 -15.158  -2.583  0.00  0.00     0.327 C 
ATOM      5  O   UNL d   1      25.669 -16.068  -2.401  0.00  0.00    -0.247 OA
ATOM      6  N   UNL d   1      25.159 -14.018  -3.319  0.00  0.00    -0.309 N 
ATOM      7  H   UNL d   1      22.931 -14.468  -2.195  0.00  0.00     0.173 HD
ATOM      8  H   UNL d   1      24.610 -13.178  -3.191  0.00  0.00     0.170 HD
ENDROOT
BRANCH   2   9
ATOM      9  C   UNL d   1      23.956 -17.460  -0.972  0.00  0.00     0.185 C 
BRANCH   9  10
ATOM     10  S   UNL d   1      23.371 -18.597   0.296  0.00  0.00    -0.081 SA
BRANCH  10  11
ATOM     11  C   UNL d   1      21.701 -18.996  -0.049  0.00  0.00     0.196 A 
ATOM     12  N   UNL d   1      21.217 -18.912  -1.276  0.00  0.00    -0.122 NA
ATOM     13  N   UNL d   1      19.904 -19.325  -1.270  0.00  0.00    -0.129 NA
ATOM     14  C   UNL d   1      19.600 -19.662  -0.037  0.00  0.00     0.158 A 
ATOM     15  C   UNL d   1      18.398 -20.163   0.545  0.00  0.00     0.053 A 
ATOM     16  N   UNL d   1      20.707 -19.468   0.796  0.00  0.00    -0.283 N 
ATOM     17  C   UNL d   1      18.357 -20.437   1.863  0.00  0.00     0.005 A 
ATOM     18  C   UNL d   1      19.513 -20.221   2.707  0.00  0.00     0.018 A 
ATOM     19  C   UNL d   1      20.641 -19.747   2.161  0.00  0.00     0.101 A 
ENDBRANCH  10  11
ENDBRANCH   9  10
ENDBRANCH   2   9
BRANCH   6  20
ATOM     20  C   UNL d   1      26.456 -13.870  -3.910  0.00  0.00     0.039 A 
ATOM     21  C   UNL d   1      27.361 -12.898  -3.460  0.00  0.00     0.032 A 
ATOM     22  C   UNL d   1      28.658 -12.827  -4.010  0.00  0.00     0.042 A 
ATOM     23  C   UNL d   1      29.039 -13.680  -5.047  0.00  0.00     0.102 A 
ATOM     24  C   UNL d   1      28.133 -14.629  -5.515  0.00  0.00     0.104 A 
ATOM     25  O   UNL d   1      30.306 -13.540  -5.555  0.00  0.00    -0.346 OA
ATOM     26  C   UNL d   1      26.857 -14.715  -4.954  0.00  0.00     0.069 A 
ATOM     27  O   UNL d   1      28.413 -15.506  -6.531  0.00  0.00    -0.346 OA
ATOM     28  C   UNL d   1      29.817 -15.585  -6.793  0.00  0.00     0.202 C 
ATOM     29  C   UNL d   1      30.448 -14.204  -6.820  0.00  0.00     0.202 C 
ENDBRANCH   6  20
TORSDOF 4
ENDMDL
MODEL 4
REMARK VINA RESULT:   -30.135      3.385      4.511
REMARK INTER + INTRA:         -31.768
REMARK INTER:                 -31.328
REMARK INTRA:                  -0.440
REMARK CONF_INDEPENDENT:        1.193
REMARK UNBOUND:                -0.440
REMARK  4 active torsions:
REMARK  status: ('A' for Active; 'I' for Inactive)
REMARK    1  A    between atoms: C_2  and  C_3 
REMARK       I    between atoms: C_2  and  N_14 
REMARK    2  A    between atoms: C_3  and  S_4 
REMARK    3  A    between atoms: S_4  and  C_5 
REMARK       I    between atoms: N_14  and  C_15 
REMARK       I    between atoms: C_15  and  N_17 
REMARK    4  A    between atoms: N_17  and  C_18 
ROOT
ATOM      1  O   UNL d   1      24.378 -17.825  -2.714  0.00  0.00    -0.272 OA
ATOM      2  C   UNL d   1      24.550 -17.053  -1.772  0.00  0.00     0.235 C 
ATOM      3  N   UNL d   1      25.762 -16.353  -1.692  0.00  0.00    -0.278 N 
ATOM      4  C   UNL d   1      26.149 -15.470  -0.702  0.00  0.00     0.327 C 
ATOM      5  O   UNL d   1      25.394 -15.195   0.234  0.00  0.00    -0.247 OA
ATOM      6  N   UNL d   1      27.408 -14.896  -0.842  0.00  0.00    -0.309 N 
ATOM      7  H   UNL d   1      26.394 -16.578  -2.447  0.00  0.00     0.173 HD
ATOM      8  H   UNL d   1      27.859 -14.892  -1.748  0.00  0.00     0.170 HD
ENDROOT
BRANCH   2   9
ATOM      9  C   UNL d   1      23.528 -16.822  -0.652  0.00  0.00     0.185 C 
BRANCH   9  10
ATOM     10  S   UNL d   1      23.170 -18.247   0.389  0.00  0.00    -0.081 SA
BRANCH  10  11
ATOM     11  C   UNL d   1      21.564 -18.826  -0.002  0.00  0.00     0.196 A 
ATOM     12  N   UNL d   1      21.096 -18.763  -1.237  0.00  0.00    -0.122 NA
ATOM     13  N   UNL d   1      19.840 -19.325  -1.270  0.00  0.00    -0.129 NA
ATOM     14  C   UNL d   1      19.555 -19.732  -0.054  0.00  0.00     0.158 A 
ATOM     15  C   UNL d   1      18.410 -20.387   0.488  0.00  0.00     0.053 A 
ATOM     16  N   UNL d   1      20.617 -19.436   0.808  0.00  0.00    -0.283 N 
ATOM     17  C   UNL d   1      18.377 -20.703   1.797  0.00  0.00     0.005 A 
ATOM     18  C   UNL d   1      19.485 -20.380   2.672  0.00  0.00     0.018 A 
ATOM     19  C   UNL d   1      20.560 -19.762   2.163  0.00  0.00     0.101 A 
ENDBRANCH  10  11
ENDBRANCH   9  10
ENDBRANCH   2   9
BRANCH   6  20
ATOM     20  C   UNL d   1      27.879 -13.953   0.129  0.00  0.00     0.039 A 
ATOM     21  C   UNL d   1      28.422 -12.718  -0.252  0.00  0.00     0.032 A 
ATOM     22  C   UNL d   1      28.807 -11.779   0.729  0.00  0.00     0.042 A 
ATOM     23  C   UNL d   1      28.707 -12.088   2.087  0.00  0.00     0.102 A 
ATOM     24  C   UNL d   1      28.192 -13.324   2.467  0.00  0.00     0.104 A 
ATOM     25  O   UNL d   1      29.123 -11.140   2.988  0.00  0.00    -0.346 OA
ATOM     26  C   UNL d   1      27.789 -14.244   1.497  0.00  0.00     0.069 A 
ATOM     27  O   UNL d   1      28.061 -13.719   3.774  0.00  0.00    -0.346 OA
ATOM     28  C   UNL d   1      28.156 -12.613   4.676  0.00  0.00     0.202 C 
ATOM     29  C   UNL d   1      29.308 -11.696   4.298  0.00  0.00     0.202 C 
ENDBRANCH   6  20
TORSDOF 4
ENDMDL
MODEL 5
REMARK VINA RESULT:   -29.916      1.378      1.842
REMARK INTER + INTRA:         -31.611
REMARK INTER:                 -31.109
REMARK INTRA:                  -0.502
REMARK CONF_INDEPENDENT:        1.193
REMARK UNBOUND:                -0.502
REMARK  4 active torsions:
REMARK  status: ('A' for Active; 'I' for Inactive)
REMARK    1  A    between atoms: C_2  and  C_3 
REMARK       I    between atoms: C_2  and  N_14 
REMARK    2  A    between atoms: C_3  and  S_4 
REMARK    3  A    between atoms: S_4  and  C_5 
REMARK       I    between atoms: N_14  and  C_15 
REMARK       I    between atoms: C_15  and  N_17 
REMARK    4  A    between atoms: N_17  and  C_18 
ROOT
ATOM      1  O   UNL d   1      23.545 -18.867  -2.290  0.00  0.00    -0.272 OA
ATOM      2  C   UNL d   1      23.901 -17.759  -1.893  0.00  0.00     0.235 C 
ATOM      3  N   UNL d   1      24.771 -17.007  -2.694  0.00  0.00    -0.278 N 
ATOM      4  C   UNL d   1      25.300 -15.764  -2.408  0.00  0.00     0.327 C 
ATOM      5  O   UNL d   1      25.004 -15.172  -1.367  0.00  0.00    -0.247 OA
ATOM      6  N   UNL d   1      26.147 -15.216  -3.366  0.00  0.00    -0.309 N 
ATOM      7  H   UNL d   1      25.031 -17.486  -3.545  0.00  0.00     0.173 HD
ATOM      8  H   UNL d   1      26.122 -15.564  -4.315  0.00  0.00     0.170 HD
ENDROOT
BRANCH   2   9
ATOM      9  C   UNL d   1      23.472 -17.148  -0.553  0.00  0.00     0.185 C 
BRANCH   9  10
ATOM     10  S   UNL d   1      22.851 -18.309   0.676  0.00  0.00    -0.081 SA
BRANCH  10  11
ATOM     11  C   UNL d   1      21.292 -18.900   0.137  0.00  0.00     0.196 A 
ATOM     12  N   UNL d   1      20.889 -18.727  -1.110  0.00  0.00    -0.122 NA
ATOM     13  N   UNL d   1      19.660 -19.325  -1.270  0.00  0.00    -0.129 NA
ATOM     14  C   UNL d   1      19.327 -19.862  -0.118  0.00  0.00     0.158 A 
ATOM     15  C   UNL d   1      18.181 -20.608   0.289  0.00  0.00     0.053 A 
ATOM     16  N   UNL d   1      20.328 -19.620   0.827  0.00  0.00    -0.283 N 
ATOM     17  C   UNL d   1      18.090 -21.056   1.556  0.00  0.00     0.005 A 
ATOM     18  C   UNL d   1      19.136 -20.786   2.520  0.00  0.00     0.018 A 
ATOM     19  C   UNL d   1      20.211 -20.083   2.138  0.00  0.00     0.101 A 
ENDBRANCH  10  11
ENDBRANCH   9  10
ENDBRANCH   2   9
BRANCH   6  20
ATOM     20  C   UNL d   1      26.722 -13.919  -3.158  0.00  0.00     0.039 A 
ATOM     21  C   UNL d   1      28.047 -13.765  -2.726  0.00  0.00     0.032 A 
ATOM     22  C   UNL d   1      28.609 -12.477  -2.605  0.00  0.00     0.042 A 
ATOM     23  C   UNL d   1      27.840 -11.339  -2.856  0.00  0.00     0.102 A 
ATOM     24  C   UNL d   1      26.516 -11.488  -3.261  0.00  0.00     0.104 A 
ATOM     25  O   UNL d   1      28.440 -10.116  -2.694  0.00  0.00    -0.346 OA
ATOM     26  C   UNL d   1      25.967 -12.764  -3.404  0.00  0.00     0.069 A 
ATOM     27  O   UNL d   1      25.683 -10.432  -3.526  0.00  0.00    -0.346 OA
ATOM     28  C   UNL d   1      26.409  -9.212  -3.698  0.00  0.00     0.202 C 
ATOM     29  C   UNL d   1      27.476  -9.055  -2.628  0.00  0.00     0.202 C 
ENDBRANCH   6  20
TORSDOF 4
ENDMDL
MODEL 6
REMARK VINA RESULT:   -28.951      2.368      3.364
REMARK INTER + INTRA:         -30.646
REMARK INTER:                 -30.144
REMARK INTRA:                  -0.502
REMARK CONF_INDEPENDENT:        1.193
REMARK UNBOUND:                -0.502
REMARK  4 active torsions:
REMARK  status: ('A' for Active; 'I' for Inactive)
REMARK    1  A    between atoms: C_2  and  C_3 
REMARK       I    between atoms: C_2  and  N_14 
REMARK    2  A    between atoms: C_3  and  S_4 
REMARK    3  A    between atoms: S_4  and  C_5 
REMARK       I    between atoms: N_14  and  C_15 
REMARK       I    between atoms: C_15  and  N_17 
REMARK    4  A    between atoms: N_17  and  C_18 
ROOT
ATOM      1  O   UNL d   1      22.895 -19.329  -2.355  0.00  0.00    -0.272 OA
ATOM      2  C   UNL d   1      23.669 -18.620  -1.714  0.00  0.00     0.235 C 
ATOM      3  N   UNL d   1      24.399 -17.637  -2.397  0.00  0.00    -0.278 N 
ATOM      4  C   UNL d   1      25.331 -16.770  -1.860  0.00  0.00     0.327 C 
ATOM      5  O   UNL d   1      25.585 -16.779  -0.653  0.00  0.00    -0.247 OA
ATOM      6  N   UNL d   1      25.928 -15.878  -2.744  0.00  0.00    -0.309 N 
ATOM      7  H   UNL d   1      24.208 -17.626  -3.389  0.00  0.00     0.173 HD
ATOM      8  H   UNL d   1      25.486 -15.681  -3.633  0.00  0.00     0.170 HD
ENDROOT
BRANCH   2   9
ATOM      9  C   UNL d   1      23.912 -18.757  -0.206  0.00  0.00     0.185 C 
BRANCH   9  10
ATOM     10  S   UNL d   1      22.567 -18.207   0.858  0.00  0.00    -0.081 SA
BRANCH  10  11
ATOM     11  C   UNL d   1      21.066 -18.854   0.229  0.00  0.00     0.196 A 
ATOM     12  N   UNL d   1      20.722 -18.679  -1.036  0.00  0.00    -0.122 NA
ATOM     13  N   UNL d   1      19.530 -19.325  -1.270  0.00  0.00    -0.129 NA
ATOM     14  C   UNL d   1      19.159 -19.894  -0.145  0.00  0.00     0.158 A 
ATOM     15  C   UNL d   1      18.026 -20.692   0.190  0.00  0.00     0.053 A 
ATOM     16  N   UNL d   1      20.098 -19.625   0.856  0.00  0.00    -0.283 N 
ATOM     17  C   UNL d   1      17.888 -21.164   1.444  0.00  0.00     0.005 A 
ATOM     18  C   UNL d   1      18.868 -20.866   2.467  0.00  0.00     0.018 A 
ATOM     19  C   UNL d   1      19.931 -20.113   2.152  0.00  0.00     0.101 A 
ENDBRANCH  10  11
ENDBRANCH   9  10
ENDBRANCH   2   9
BRANCH   6  20
ATOM     20  C   UNL d   1      26.889 -14.928  -2.267  0.00  0.00     0.039 A 
ATOM     21  C   UNL d   1      26.701 -13.549  -2.429  0.00  0.00     0.032 A 
ATOM     22  C   UNL d   1      27.627 -12.636  -1.880  0.00  0.00     0.042 A 
ATOM     23  C   UNL d   1      28.771 -13.093  -1.221  0.00  0.00     0.102 A 
ATOM     24  C   UNL d   1      28.973 -14.463  -1.082  0.00  0.00     0.104 A 
ATOM     25  O   UNL d   1      29.644 -12.153  -0.735  0.00  0.00    -0.346 OA
ATOM     26  C   UNL d   1      28.045 -15.366  -1.603  0.00  0.00     0.069 A 
ATOM     27  O   UNL d   1      30.066 -15.006  -0.456  0.00  0.00    -0.346 OA
ATOM     28  C   UNL d   1      30.759 -14.039   0.338  0.00  0.00     0.202 C 
ATOM     29  C   UNL d   1      30.919 -12.727  -0.412  0.00  0.00     0.202 C 
ENDBRANCH   6  20
TORSDOF 4
ENDMDL
MODEL 7
REMARK VINA RESULT:   -28.949      3.231      3.604
REMARK INTER + INTRA:         -30.720
REMARK INTER:                 -30.142
REMARK INTRA:                  -0.577
REMARK CONF_INDEPENDENT:        1.193
REMARK UNBOUND:                -0.577
REMARK  4 active torsions:
REMARK  status: ('A' for Active; 'I' for Inactive)
REMARK    1  A    between atoms: C_2  and  C_3 
REMARK       I    between atoms: C_2  and  N_14 
REMARK    2  A    between atoms: C_3  and  S_4 
REMARK    3  A    between atoms: S_4  and  C_5 
REMARK       I    between atoms: N_14  and  C_15 
REMARK       I    between atoms: C_15  and  N_17 
REMARK    4  A    between atoms: N_17  and  C_18 
ROOT
ATOM      1  O   UNL d   1      23.660 -20.124  -0.214  0.00  0.00    -0.272 OA
ATOM      2  C   UNL d   1      23.985 -18.942  -0.126  0.00  0.00     0.235 C 
ATOM      3  N   UNL d   1      25.333 -18.601  -0.310  0.00  0.00    -0.278 N 
ATOM      4  C   UNL d   1      25.892 -17.341  -0.223  0.00  0.00     0.327 C 
ATOM      5  O   UNL d   1      25.194 -16.352   0.013  0.00  0.00    -0.247 OA
ATOM      6  N   UNL d   1      27.262 -17.255  -0.446  0.00  0.00    -0.309 N 
ATOM      7  H   UNL d   1      25.917 -19.404  -0.492  0.00  0.00     0.173 HD
ATOM      8  H   UNL d   1      27.738 -18.002  -0.934  0.00  0.00     0.170 HD
ENDROOT
BRANCH   2   9
ATOM      9  C   UNL d   1      23.010 -17.803   0.201  0.00  0.00     0.185 C 
BRANCH   9  10
ATOM     10  S   UNL d   1      21.593 -17.645  -0.899  0.00  0.00    -0.081 SA
BRANCH  10  11
ATOM     11  C   UNL d   1      20.374 -18.799  -0.397  0.00  0.00     0.196 A 
ATOM     12  N   UNL d   1      19.531 -19.325  -1.269  0.00  0.00    -0.122 NA
ATOM     13  N   UNL d   1      18.719 -20.227  -0.619  0.00  0.00    -0.129 NA
ATOM     14  C   UNL d   1      19.079 -20.247   0.644  0.00  0.00     0.158 A 
ATOM     15  C   UNL d   1      18.599 -20.994   1.760  0.00  0.00     0.053 A 
ATOM     16  N   UNL d   1      20.131 -19.349   0.853  0.00  0.00    -0.283 N 
ATOM     17  C   UNL d   1      19.161 -20.822   2.972  0.00  0.00     0.005 A 
ATOM     18  C   UNL d   1      20.244 -19.881   3.166  0.00  0.00     0.018 A 
ATOM     19  C   UNL d   1      20.693 -19.177   2.118  0.00  0.00     0.101 A 
ENDBRANCH  10  11
ENDBRANCH   9  10
ENDBRANCH   2   9
BRANCH   6  20
ATOM     20  C   UNL d   1      27.919 -15.982  -0.396  0.00  0.00     0.039 A 
ATOM     21  C   UNL d   1      28.648 -15.490  -1.488  0.00  0.00     0.032 A 
ATOM     22  C   UNL d   1      29.220 -14.201  -1.437  0.00  0.00     0.042 A 
ATOM     23  C   UNL d   1      29.117 -13.423  -0.282  0.00  0.00     0.102 A 
ATOM     24  C   UNL d   1      28.415 -13.920   0.813  0.00  0.00     0.104 A 
ATOM     25  O   UNL d   1      29.718 -12.189  -0.289  0.00  0.00    -0.346 OA
ATOM     26  C   UNL d   1      27.829 -15.186   0.754  0.00  0.00     0.069 A 
ATOM     27  O   UNL d   1      28.265 -13.232   1.990  0.00  0.00    -0.346 OA
ATOM     28  C   UNL d   1      28.577 -11.845   1.839  0.00  0.00     0.202 C 
ATOM     29  C   UNL d   1      29.852 -11.655   1.036  0.00  0.00     0.202 C 
ENDBRANCH   6  20
TORSDOF 4
ENDMDL
