MODEL 1
REMARK VINA RESULT:    -7.591      0.000      0.000
REMARK INTER + INTRA:         -12.137
REMARK INTER:                 -10.873
REMARK INTRA:                  -1.265
REMARK CONF_INDEPENDENT:        3.281
REMARK UNBOUND:                -1.265
REMARK  11 active torsions:
REMARK  status: ('A' for Active; 'I' for Inactive)
REMARK    1  A    between atoms: C_2  and  C_3 
REMARK    2  A    between atoms: C_3  and  C_4 
REMARK    3  A    between atoms: C_4  and  C_5 
REMARK    4  A    between atoms: C_5  and  N_6 
REMARK    5  A    between atoms: N_6  and  C_7 
REMARK    6  A    between atoms: C_7  and  N_9 
REMARK    7  A    between atoms: N_9  and  N_10 
REMARK       I    between atoms: N_10  and  C_11 
REMARK    8  A    between atoms: C_13  and  C_11 
REMARK    9  A    between atoms: C_13  and  S_15 
REMARK   10  A    between atoms: S_15  and  C_16 
REMARK   11  A    between atoms: C_19  and  N_20 
ROOT
ATOM      1  N   UNL d   1      24.993 -15.803  -1.408  0.00  0.00    -0.267 N 
ATOM      2  C   UNL d   1      25.477 -15.097  -2.497  0.00  0.00     0.249 C 
ATOM      3  O   UNL d   1      25.386 -15.553  -3.642  0.00  0.00    -0.271 OA
ATOM      4  H   UNL d   1      25.077 -15.471  -0.454  0.00  0.00     0.190 HD
ENDROOT
BRANCH   2   5
ATOM      5  C   UNL d   1      26.050 -13.683  -2.203  0.00  0.00     0.142 C 
ATOM      6  C   UNL d   1      26.761 -13.111  -3.445  0.00  0.00     0.031 C 
BRANCH   5   7
ATOM      7  S   UNL d   1      27.337 -13.729  -0.877  0.00  0.00    -0.116 SA
BRANCH   7   8
ATOM      8  C   UNL d   1      27.092 -12.223   0.042  0.00  0.00     0.001 A 
ATOM      9  C   UNL d   1      27.405 -10.957  -0.469  0.00  0.00     0.021 A 
ATOM     10  C   UNL d   1      27.197  -9.809   0.306  0.00  0.00     0.037 A 
ATOM     11  C   UNL d   1      26.622  -9.923   1.583  0.00  0.00     0.102 A 
ATOM     12  C   UNL d   1      26.310 -11.184   2.106  0.00  0.00     0.037 A 
ATOM     13  C   UNL d   1      26.558 -12.326   1.336  0.00  0.00     0.021 A 
BRANCH  11  14
ATOM     14  N   UNL d   1      26.188  -8.704   2.291  0.00  0.00    -0.116 N 
ATOM     15  O   UNL d   1      25.376  -7.965   1.725  0.00  0.00    -0.532 OA
ATOM     16  O   UNL d   1      26.655  -8.501   3.425  0.00  0.00    -0.532 OA
ENDBRANCH  11  14
ENDBRANCH   7   8
ENDBRANCH   5   7
ENDBRANCH   2   5
BRANCH   1  17
ATOM     17  N   UNL d   1      24.538 -17.151  -1.526  0.00  0.00    -0.274 N 
ATOM     18  H   UNL d   1      24.197 -17.421  -2.446  0.00  0.00     0.189 HD
BRANCH  17  19
ATOM     19  C   UNL d   1      24.501 -17.971  -0.405  0.00  0.00     0.186 C 
ATOM     20  S   UNL d   1      25.821 -18.200   0.592  0.00  0.00    -0.040 SA
BRANCH  19  21
ATOM     21  N   UNL d   1      23.293 -18.593  -0.159  0.00  0.00    -0.366 N 
ATOM     22  H   UNL d   1      23.287 -19.519   0.243  0.00  0.00     0.161 HD
BRANCH  21  23
ATOM     23  C   UNL d   1      22.002 -17.988  -0.533  0.00  0.00     0.122 C 
BRANCH  23  24
ATOM     24  C   UNL d   1      20.918 -18.991  -0.894  0.00  0.00     0.020 C 
BRANCH  24  25
ATOM     25  C   UNL d   1      20.734 -20.018   0.230  0.00  0.00     0.001 C 
BRANCH  25  26
ATOM     26  C   UNL d   1      19.442 -19.756   1.000  0.00  0.00    -0.004 C 
ATOM     27  C   UNL d   1      18.402 -20.826   0.712  0.00  0.00     0.005 C 
ENDBRANCH  25  26
ENDBRANCH  24  25
ENDBRANCH  23  24
ENDBRANCH  21  23
ENDBRANCH  19  21
ENDBRANCH  17  19
ENDBRANCH   1  17
TORSDOF 11
ENDMDL
MODEL 2
REMARK VINA RESULT:    -7.101      4.950      9.338
REMARK INTER + INTRA:         -11.439
REMARK INTER:                 -10.383
REMARK INTRA:                  -1.056
REMARK CONF_INDEPENDENT:        3.281
REMARK UNBOUND:                -1.056
REMARK  11 active torsions:
REMARK  status: ('A' for Active; 'I' for Inactive)
REMARK    1  A    between atoms: C_2  and  C_3 
REMARK    2  A    between atoms: C_3  and  C_4 
REMARK    3  A    between atoms: C_4  and  C_5 
REMARK    4  A    between atoms: C_5  and  N_6 
REMARK    5  A    between atoms: N_6  and  C_7 
REMARK    6  A    between atoms: C_7  and  N_9 
REMARK    7  A    between atoms: N_9  and  N_10 
REMARK       I    between atoms: N_10  and  C_11 
REMARK    8  A    between atoms: C_13  and  C_11 
REMARK    9  A    between atoms: C_13  and  S_15 
REMARK   10  A    between atoms: S_15  and  C_16 
REMARK   11  A    between atoms: C_19  and  N_20 
ROOT
ATOM      1  N   UNL d   1      27.795 -14.803   1.899  0.00  0.00    -0.267 N 
ATOM      2  C   UNL d   1      27.066 -14.955   0.731  0.00  0.00     0.249 C 
ATOM      3  O   UNL d   1      26.670 -13.970   0.097  0.00  0.00    -0.271 OA
ATOM      4  H   UNL d   1      28.110 -15.588   2.458  0.00  0.00     0.190 HD
ENDROOT
BRANCH   2   5
ATOM      5  C   UNL d   1      26.857 -16.410   0.232  0.00  0.00     0.142 C 
ATOM      6  C   UNL d   1      28.209 -17.116   0.017  0.00  0.00     0.031 C 
BRANCH   5   7
ATOM      7  S   UNL d   1      26.010 -16.455  -1.410  0.00  0.00    -0.116 SA
BRANCH   7   8
ATOM      8  C   UNL d   1      24.432 -17.213  -1.086  0.00  0.00     0.001 A 
ATOM      9  C   UNL d   1      23.220 -16.517  -1.167  0.00  0.00     0.021 A 
ATOM     10  C   UNL d   1      22.009 -17.167  -0.893  0.00  0.00     0.037 A 
ATOM     11  C   UNL d   1      22.007 -18.538  -0.587  0.00  0.00     0.102 A 
ATOM     12  C   UNL d   1      23.214 -19.243  -0.498  0.00  0.00     0.037 A 
ATOM     13  C   UNL d   1      24.419 -18.573  -0.737  0.00  0.00     0.021 A 
BRANCH  11  14
ATOM     14  N   UNL d   1      20.725 -19.264  -0.534  0.00  0.00    -0.116 N 
ATOM     15  O   UNL d   1      20.171 -19.381   0.564  0.00  0.00    -0.532 OA
ATOM     16  O   UNL d   1      20.268 -19.704  -1.604  0.00  0.00    -0.532 OA
ENDBRANCH  11  14
ENDBRANCH   7   8
ENDBRANCH   5   7
ENDBRANCH   2   5
BRANCH   1  17
ATOM     17  N   UNL d   1      27.969 -13.529   2.519  0.00  0.00    -0.274 N 
ATOM     18  H   UNL d   1      27.847 -12.723   1.910  0.00  0.00     0.189 HD
BRANCH  17  19
ATOM     19  C   UNL d   1      28.365 -13.453   3.848  0.00  0.00     0.186 C 
ATOM     20  S   UNL d   1      28.424 -12.013   4.694  0.00  0.00    -0.040 SA
BRANCH  19  21
ATOM     21  N   UNL d   1      28.711 -14.652   4.439  0.00  0.00    -0.366 N 
ATOM     22  H   UNL d   1      28.932 -15.445   3.855  0.00  0.00     0.161 HD
BRANCH  21  23
ATOM     23  C   UNL d   1      28.697 -14.846   5.899  0.00  0.00     0.122 C 
BRANCH  23  24
ATOM     24  C   UNL d   1      29.805 -14.116   6.642  0.00  0.00     0.020 C 
BRANCH  24  25
ATOM     25  C   UNL d   1      29.241 -13.363   7.853  0.00  0.00     0.001 C 
BRANCH  25  26
ATOM     26  C   UNL d   1      28.905 -14.328   8.987  0.00  0.00    -0.004 C 
ATOM     27  C   UNL d   1      30.135 -14.655   9.816  0.00  0.00     0.005 C 
ENDBRANCH  25  26
ENDBRANCH  24  25
ENDBRANCH  23  24
ENDBRANCH  21  23
ENDBRANCH  19  21
ENDBRANCH  17  19
ENDBRANCH   1  17
TORSDOF 11
ENDMDL
MODEL 3
REMARK VINA RESULT:    -6.926      3.221      4.481
REMARK INTER + INTRA:         -11.658
REMARK INTER:                 -10.208
REMARK INTRA:                  -1.450
REMARK CONF_INDEPENDENT:        3.281
REMARK UNBOUND:                -1.450
REMARK  11 active torsions:
REMARK  status: ('A' for Active; 'I' for Inactive)
REMARK    1  A    between atoms: C_2  and  C_3 
REMARK    2  A    between atoms: C_3  and  C_4 
REMARK    3  A    between atoms: C_4  and  C_5 
REMARK    4  A    between atoms: C_5  and  N_6 
REMARK    5  A    between atoms: N_6  and  C_7 
REMARK    6  A    between atoms: C_7  and  N_9 
REMARK    7  A    between atoms: N_9  and  N_10 
REMARK       I    between atoms: N_10  and  C_11 
REMARK    8  A    between atoms: C_13  and  C_11 
REMARK    9  A    between atoms: C_13  and  S_15 
REMARK   10  A    between atoms: S_15  and  C_16 
REMARK   11  A    between atoms: C_19  and  N_20 
ROOT
ATOM      1  N   UNL d   1      28.113 -15.179   1.669  0.00  0.00    -0.267 N 
ATOM      2  C   UNL d   1      27.710 -14.218   2.581  0.00  0.00     0.249 C 
ATOM      3  O   UNL d   1      26.780 -13.445   2.321  0.00  0.00    -0.271 OA
ATOM      4  H   UNL d   1      28.889 -15.809   1.838  0.00  0.00     0.190 HD
ENDROOT
BRANCH   2   5
ATOM      5  C   UNL d   1      28.428 -14.228   3.958  0.00  0.00     0.142 C 
ATOM      6  C   UNL d   1      27.411 -14.096   5.107  0.00  0.00     0.031 C 
BRANCH   5   7
ATOM      7  S   UNL d   1      29.571 -12.788   4.144  0.00  0.00    -0.116 SA
BRANCH   7   8
ATOM      8  C   UNL d   1      28.620 -11.382   3.607  0.00  0.00     0.001 A 
ATOM      9  C   UNL d   1      28.608 -10.930   2.282  0.00  0.00     0.021 A 
ATOM     10  C   UNL d   1      27.844  -9.812   1.921  0.00  0.00     0.037 A 
ATOM     11  C   UNL d   1      27.044  -9.173   2.883  0.00  0.00     0.102 A 
ATOM     12  C   UNL d   1      27.052  -9.614   4.213  0.00  0.00     0.037 A 
ATOM     13  C   UNL d   1      27.849 -10.708   4.568  0.00  0.00     0.021 A 
BRANCH  11  14
ATOM     14  N   UNL d   1      26.068  -8.156   2.452  0.00  0.00    -0.116 N 
ATOM     15  O   UNL d   1      26.222  -6.998   2.855  0.00  0.00    -0.532 OA
ATOM     16  O   UNL d   1      25.153  -8.522   1.692  0.00  0.00    -0.532 OA
ENDBRANCH  11  14
ENDBRANCH   7   8
ENDBRANCH   5   7
ENDBRANCH   2   5
BRANCH   1  17
ATOM     17  N   UNL d   1      27.608 -15.210   0.334  0.00  0.00    -0.274 N 
ATOM     18  H   UNL d   1      27.088 -14.387   0.041  0.00  0.00     0.189 HD
BRANCH  17  19
ATOM     19  C   UNL d   1      27.769 -16.352  -0.442  0.00  0.00     0.186 C 
ATOM     20  S   UNL d   1      28.036 -16.295  -2.090  0.00  0.00    -0.040 SA
BRANCH  19  21
ATOM     21  N   UNL d   1      27.696 -17.552   0.237  0.00  0.00    -0.366 N 
ATOM     22  H   UNL d   1      28.542 -17.968   0.599  0.00  0.00     0.161 HD
BRANCH  21  23
ATOM     23  C   UNL d   1      26.434 -18.296   0.392  0.00  0.00     0.122 C 
BRANCH  23  24
ATOM     24  C   UNL d   1      25.207 -17.573  -0.142  0.00  0.00     0.020 C 
BRANCH  24  25
ATOM     25  C   UNL d   1      24.110 -18.575  -0.521  0.00  0.00     0.001 C 
BRANCH  25  26
ATOM     26  C   UNL d   1      22.728 -17.937  -0.413  0.00  0.00    -0.004 C 
ATOM     27  C   UNL d   1      22.808 -16.424  -0.520  0.00  0.00     0.005 C 
ENDBRANCH  25  26
ENDBRANCH  24  25
ENDBRANCH  23  24
ENDBRANCH  21  23
ENDBRANCH  19  21
ENDBRANCH  17  19
ENDBRANCH   1  17
TORSDOF 11
ENDMDL
MODEL 4
REMARK VINA RESULT:    -6.827      0.923      1.346
REMARK INTER + INTRA:         -11.736
REMARK INTER:                 -10.108
REMARK INTRA:                  -1.628
REMARK CONF_INDEPENDENT:        3.281
REMARK UNBOUND:                -1.628
REMARK  11 active torsions:
REMARK  status: ('A' for Active; 'I' for Inactive)
REMARK    1  A    between atoms: C_2  and  C_3 
REMARK    2  A    between atoms: C_3  and  C_4 
REMARK    3  A    between atoms: C_4  and  C_5 
REMARK    4  A    between atoms: C_5  and  N_6 
REMARK    5  A    between atoms: N_6  and  C_7 
REMARK    6  A    between atoms: C_7  and  N_9 
REMARK    7  A    between atoms: N_9  and  N_10 
REMARK       I    between atoms: N_10  and  C_11 
REMARK    8  A    between atoms: C_13  and  C_11 
REMARK    9  A    between atoms: C_13  and  S_15 
REMARK   10  A    between atoms: S_15  and  C_16 
REMARK   11  A    between atoms: C_19  and  N_20 
ROOT
ATOM      1  N   UNL d   1      26.376 -15.367  -1.462  0.00  0.00    -0.267 N 
ATOM      2  C   UNL d   1      25.806 -14.654  -2.503  0.00  0.00     0.249 C 
ATOM      3  O   UNL d   1      25.129 -15.222  -3.367  0.00  0.00    -0.271 OA
ATOM      4  H   UNL d   1      26.960 -14.936  -0.753  0.00  0.00     0.190 HD
ENDROOT
BRANCH   2   5
ATOM      5  C   UNL d   1      25.992 -13.112  -2.468  0.00  0.00     0.142 C 
ATOM      6  C   UNL d   1      25.909 -12.517  -3.886  0.00  0.00     0.031 C 
BRANCH   5   7
ATOM      7  S   UNL d   1      27.663 -12.639  -1.832  0.00  0.00    -0.116 SA
BRANCH   7   8
ATOM      8  C   UNL d   1      27.342 -11.401  -0.593  0.00  0.00     0.001 A 
ATOM      9  C   UNL d   1      27.378 -10.027  -0.860  0.00  0.00     0.021 A 
ATOM     10  C   UNL d   1      27.124  -9.100   0.159  0.00  0.00     0.037 A 
ATOM     11  C   UNL d   1      26.778  -9.552   1.444  0.00  0.00     0.102 A 
ATOM     12  C   UNL d   1      26.744 -10.924   1.723  0.00  0.00     0.037 A 
ATOM     13  C   UNL d   1      27.038 -11.839   0.705  0.00  0.00     0.021 A 
BRANCH  11  14
ATOM     14  N   UNL d   1      26.283  -8.585   2.441  0.00  0.00    -0.116 N 
ATOM     15  O   UNL d   1      26.655  -8.720   3.611  0.00  0.00    -0.532 OA
ATOM     16  O   UNL d   1      25.530  -7.680   2.040  0.00  0.00    -0.532 OA
ENDBRANCH  11  14
ENDBRANCH   7   8
ENDBRANCH   5   7
ENDBRANCH   2   5
BRANCH   1  17
ATOM     17  N   UNL d   1      26.368 -16.794  -1.432  0.00  0.00    -0.274 N 
ATOM     18  H   UNL d   1      27.163 -17.248  -1.875  0.00  0.00     0.189 HD
BRANCH  17  19
ATOM     19  C   UNL d   1      25.277 -17.470  -0.900  0.00  0.00     0.186 C 
ATOM     20  S   UNL d   1      25.310 -18.198   0.603  0.00  0.00    -0.040 SA
BRANCH  19  21
ATOM     21  N   UNL d   1      24.149 -17.505  -1.695  0.00  0.00    -0.366 N 
ATOM     22  H   UNL d   1      23.964 -16.739  -2.326  0.00  0.00     0.161 HD
BRANCH  21  23
ATOM     23  C   UNL d   1      23.155 -18.589  -1.607  0.00  0.00     0.122 C 
BRANCH  23  24
ATOM     24  C   UNL d   1      22.202 -18.475  -0.427  0.00  0.00     0.020 C 
BRANCH  24  25
ATOM     25  C   UNL d   1      20.746 -18.579  -0.895  0.00  0.00     0.001 C 
BRANCH  25  26
ATOM     26  C   UNL d   1      20.096 -19.858  -0.373  0.00  0.00    -0.004 C 
ATOM     27  C   UNL d   1      19.857 -19.785   1.126  0.00  0.00     0.005 C 
ENDBRANCH  25  26
ENDBRANCH  24  25
ENDBRANCH  23  24
ENDBRANCH  21  23
ENDBRANCH  19  21
ENDBRANCH  17  19
ENDBRANCH   1  17
TORSDOF 11
ENDMDL
MODEL 5
REMARK VINA RESULT:    -6.668      2.354      3.144
REMARK INTER + INTRA:         -11.185
REMARK INTER:                  -9.949
REMARK INTRA:                  -1.236
REMARK CONF_INDEPENDENT:        3.281
REMARK UNBOUND:                -1.236
REMARK  11 active torsions:
REMARK  status: ('A' for Active; 'I' for Inactive)
REMARK    1  A    between atoms: C_2  and  C_3 
REMARK    2  A    between atoms: C_3  and  C_4 
REMARK    3  A    between atoms: C_4  and  C_5 
REMARK    4  A    between atoms: C_5  and  N_6 
REMARK    5  A    between atoms: N_6  and  C_7 
REMARK    6  A    between atoms: C_7  and  N_9 
REMARK    7  A    between atoms: N_9  and  N_10 
REMARK       I    between atoms: N_10  and  C_11 
REMARK    8  A    between atoms: C_13  and  C_11 
REMARK    9  A    between atoms: C_13  and  S_15 
REMARK   10  A    between atoms: S_15  and  C_16 
REMARK   11  A    between atoms: C_19  and  N_20 
ROOT
ATOM      1  N   UNL d   1      28.124 -15.723   0.439  0.00  0.00    -0.267 N 
ATOM      2  C   UNL d   1      28.731 -14.497   0.219  0.00  0.00     0.249 C 
ATOM      3  O   UNL d   1      28.410 -13.793  -0.745  0.00  0.00    -0.271 OA
ATOM      4  H   UNL d   1      28.384 -16.337   1.202  0.00  0.00     0.190 HD
ENDROOT
BRANCH   2   5
ATOM      5  C   UNL d   1      29.758 -14.034   1.288  0.00  0.00     0.142 C 
ATOM      6  C   UNL d   1      30.921 -15.038   1.404  0.00  0.00     0.031 C 
BRANCH   5   7
ATOM      7  S   UNL d   1      29.004 -13.957   2.974  0.00  0.00    -0.116 SA
BRANCH   7   8
ATOM      8  C   UNL d   1      28.105 -12.421   2.998  0.00  0.00     0.001 A 
ATOM      9  C   UNL d   1      28.028 -11.599   4.130  0.00  0.00     0.021 A 
ATOM     10  C   UNL d   1      27.297 -10.404   4.089  0.00  0.00     0.037 A 
ATOM     11  C   UNL d   1      26.684 -10.001   2.892  0.00  0.00     0.102 A 
ATOM     12  C   UNL d   1      26.749 -10.817   1.756  0.00  0.00     0.037 A 
ATOM     13  C   UNL d   1      27.450 -12.027   1.820  0.00  0.00     0.021 A 
BRANCH  11  14
ATOM     14  N   UNL d   1      26.124  -8.641   2.789  0.00  0.00    -0.116 N 
ATOM     15  O   UNL d   1      26.657  -7.745   3.452  0.00  0.00    -0.532 OA
ATOM     16  O   UNL d   1      25.155  -8.473   2.028  0.00  0.00    -0.532 OA
ENDBRANCH  11  14
ENDBRANCH   7   8
ENDBRANCH   5   7
ENDBRANCH   2   5
BRANCH   1  17
ATOM     17  N   UNL d   1      27.243 -16.310  -0.518  0.00  0.00    -0.274 N 
ATOM     18  H   UNL d   1      27.322 -15.951  -1.467  0.00  0.00     0.189 HD
BRANCH  17  19
ATOM     19  C   UNL d   1      26.298 -17.243  -0.110  0.00  0.00     0.186 C 
ATOM     20  S   UNL d   1      26.654 -18.488   0.946  0.00  0.00    -0.040 SA
BRANCH  19  21
ATOM     21  N   UNL d   1      25.031 -17.079  -0.633  0.00  0.00    -0.366 N 
ATOM     22  H   UNL d   1      24.717 -16.154  -0.888  0.00  0.00     0.161 HD
BRANCH  21  23
ATOM     23  C   UNL d   1      24.081 -18.197  -0.765  0.00  0.00     0.122 C 
BRANCH  23  24
ATOM     24  C   UNL d   1      22.620 -17.804  -0.605  0.00  0.00     0.020 C 
BRANCH  24  25
ATOM     25  C   UNL d   1      21.701 -18.960  -1.016  0.00  0.00     0.001 C 
BRANCH  25  26
ATOM     26  C   UNL d   1      20.939 -19.506   0.189  0.00  0.00    -0.004 C 
ATOM     27  C   UNL d   1      19.447 -19.580  -0.088  0.00  0.00     0.005 C 
ENDBRANCH  25  26
ENDBRANCH  24  25
ENDBRANCH  23  24
ENDBRANCH  21  23
ENDBRANCH  19  21
ENDBRANCH  17  19
ENDBRANCH   1  17
TORSDOF 11
ENDMDL
MODEL 6
REMARK VINA RESULT:    -6.639      4.334      8.982
REMARK INTER + INTRA:         -11.602
REMARK INTER:                  -9.920
REMARK INTRA:                  -1.682
REMARK CONF_INDEPENDENT:        3.281
REMARK UNBOUND:                -1.682
REMARK  11 active torsions:
REMARK  status: ('A' for Active; 'I' for Inactive)
REMARK    1  A    between atoms: C_2  and  C_3 
REMARK    2  A    between atoms: C_3  and  C_4 
REMARK    3  A    between atoms: C_4  and  C_5 
REMARK    4  A    between atoms: C_5  and  N_6 
REMARK    5  A    between atoms: N_6  and  C_7 
REMARK    6  A    between atoms: C_7  and  N_9 
REMARK    7  A    between atoms: N_9  and  N_10 
REMARK       I    between atoms: N_10  and  C_11 
REMARK    8  A    between atoms: C_13  and  C_11 
REMARK    9  A    between atoms: C_13  and  S_15 
REMARK   10  A    between atoms: S_15  and  C_16 
REMARK   11  A    between atoms: C_19  and  N_20 
ROOT
ATOM      1  N   UNL d   1      27.035 -15.177  -4.089  0.00  0.00    -0.267 N 
ATOM      2  C   UNL d   1      25.813 -14.855  -3.523  0.00  0.00     0.249 C 
ATOM      3  O   UNL d   1      24.815 -14.666  -4.228  0.00  0.00    -0.271 OA
ATOM      4  H   UNL d   1      27.878 -15.310  -3.542  0.00  0.00     0.190 HD
ENDROOT
BRANCH   2   5
ATOM      5  C   UNL d   1      25.756 -14.831  -1.970  0.00  0.00     0.142 C 
ATOM      6  C   UNL d   1      26.864 -13.930  -1.395  0.00  0.00     0.031 C 
BRANCH   5   7
ATOM      7  S   UNL d   1      26.059 -16.506  -1.249  0.00  0.00    -0.116 SA
BRANCH   7   8
ATOM      8  C   UNL d   1      24.435 -17.195  -1.004  0.00  0.00     0.001 A 
ATOM      9  C   UNL d   1      23.262 -16.437  -1.104  0.00  0.00     0.021 A 
ATOM     10  C   UNL d   1      22.012 -17.034  -0.893  0.00  0.00     0.037 A 
ATOM     11  C   UNL d   1      21.932 -18.413  -0.634  0.00  0.00     0.102 A 
ATOM     12  C   UNL d   1      23.099 -19.179  -0.527  0.00  0.00     0.037 A 
ATOM     13  C   UNL d   1      24.344 -18.562  -0.702  0.00  0.00     0.021 A 
BRANCH  11  14
ATOM     14  N   UNL d   1      20.615 -19.075  -0.650  0.00  0.00    -0.116 N 
ATOM     15  O   UNL d   1      20.295 -19.701  -1.666  0.00  0.00    -0.532 OA
ATOM     16  O   UNL d   1      19.910 -18.978   0.370  0.00  0.00    -0.532 OA
ENDBRANCH  11  14
ENDBRANCH   7   8
ENDBRANCH   5   7
ENDBRANCH   2   5
BRANCH   1  17
ATOM     17  N   UNL d   1      27.247 -15.131  -5.500  0.00  0.00    -0.274 N 
ATOM     18  H   UNL d   1      26.405 -15.109  -6.071  0.00  0.00     0.189 HD
BRANCH  17  19
ATOM     19  C   UNL d   1      28.537 -15.204  -6.010  0.00  0.00     0.186 C 
ATOM     20  S   UNL d   1      29.688 -16.256  -5.411  0.00  0.00    -0.040 SA
BRANCH  19  21
ATOM     21  N   UNL d   1      28.816 -14.345  -7.055  0.00  0.00    -0.366 N 
ATOM     22  H   UNL d   1      28.598 -14.628  -7.999  0.00  0.00     0.161 HD
BRANCH  21  23
ATOM     23  C   UNL d   1      29.496 -13.053  -6.855  0.00  0.00     0.122 C 
BRANCH  23  24
ATOM     24  C   UNL d   1      29.120 -12.336  -5.568  0.00  0.00     0.020 C 
BRANCH  24  25
ATOM     25  C   UNL d   1      27.610 -12.075  -5.514  0.00  0.00     0.001 C 
BRANCH  25  26
ATOM     26  C   UNL d   1      27.193 -11.068  -6.583  0.00  0.00    -0.004 C 
ATOM     27  C   UNL d   1      25.698 -10.800  -6.534  0.00  0.00     0.005 C 
ENDBRANCH  25  26
ENDBRANCH  24  25
ENDBRANCH  23  24
ENDBRANCH  21  23
ENDBRANCH  19  21
ENDBRANCH  17  19
ENDBRANCH   1  17
TORSDOF 11
ENDMDL
MODEL 7
REMARK VINA RESULT:    -6.339      4.509      8.744
REMARK INTER + INTRA:         -11.516
REMARK INTER:                  -9.620
REMARK INTRA:                  -1.896
REMARK CONF_INDEPENDENT:        3.281
REMARK UNBOUND:                -1.896
REMARK  11 active torsions:
REMARK  status: ('A' for Active; 'I' for Inactive)
REMARK    1  A    between atoms: C_2  and  C_3 
REMARK    2  A    between atoms: C_3  and  C_4 
REMARK    3  A    between atoms: C_4  and  C_5 
REMARK    4  A    between atoms: C_5  and  N_6 
REMARK    5  A    between atoms: N_6  and  C_7 
REMARK    6  A    between atoms: C_7  and  N_9 
REMARK    7  A    between atoms: N_9  and  N_10 
REMARK       I    between atoms: N_10  and  C_11 
REMARK    8  A    between atoms: C_13  and  C_11 
REMARK    9  A    between atoms: C_13  and  S_15 
REMARK   10  A    between atoms: S_15  and  C_16 
REMARK   11  A    between atoms: C_19  and  N_20 
ROOT
ATOM      1  N   UNL d   1      27.237 -14.667  -4.097  0.00  0.00    -0.267 N 
ATOM      2  C   UNL d   1      26.100 -15.112  -3.445  0.00  0.00     0.249 C 
ATOM      3  O   UNL d   1      25.168 -15.628  -4.072  0.00  0.00    -0.271 OA
ATOM      4  H   UNL d   1      28.006 -14.213  -3.617  0.00  0.00     0.190 HD
ENDROOT
BRANCH   2   5
ATOM      5  C   UNL d   1      26.105 -15.002  -1.895  0.00  0.00     0.142 C 
ATOM      6  C   UNL d   1      27.357 -14.251  -1.403  0.00  0.00     0.031 C 
BRANCH   5   7
ATOM      7  S   UNL d   1      26.180 -16.665  -1.092  0.00  0.00    -0.116 SA
BRANCH   7   8
ATOM      8  C   UNL d   1      24.483 -17.193  -0.984  0.00  0.00     0.001 A 
ATOM      9  C   UNL d   1      23.404 -16.300  -0.990  0.00  0.00     0.021 A 
ATOM     10  C   UNL d   1      22.089 -16.776  -0.895  0.00  0.00     0.037 A 
ATOM     11  C   UNL d   1      21.849 -18.159  -0.847  0.00  0.00     0.102 A 
ATOM     12  C   UNL d   1      22.921 -19.061  -0.834  0.00  0.00     0.037 A 
ATOM     13  C   UNL d   1      24.231 -18.571  -0.891  0.00  0.00     0.021 A 
BRANCH  11  14
ATOM     14  N   UNL d   1      20.469 -18.658  -0.986  0.00  0.00    -0.116 N 
ATOM     15  O   UNL d   1      19.547 -17.841  -0.895  0.00  0.00    -0.532 OA
ATOM     16  O   UNL d   1      20.315 -19.873  -1.204  0.00  0.00    -0.532 OA
ENDBRANCH  11  14
ENDBRANCH   7   8
ENDBRANCH   5   7
ENDBRANCH   2   5
BRANCH   1  17
ATOM     17  N   UNL d   1      27.317 -14.615  -5.521  0.00  0.00    -0.274 N 
ATOM     18  H   UNL d   1      26.567 -15.086  -6.022  0.00  0.00     0.189 HD
BRANCH  17  19
ATOM     19  C   UNL d   1      28.416 -14.025  -6.133  0.00  0.00     0.186 C 
ATOM     20  S   UNL d   1      29.008 -12.530  -5.681  0.00  0.00    -0.040 SA
BRANCH  19  21
ATOM     21  N   UNL d   1      28.999 -14.755  -7.150  0.00  0.00    -0.366 N 
ATOM     22  H   UNL d   1      28.524 -14.833  -8.037  0.00  0.00     0.161 HD
BRANCH  21  23
ATOM     23  C   UNL d   1      30.260 -15.494  -6.968  0.00  0.00     0.122 C 
BRANCH  23  24
ATOM     24  C   UNL d   1      30.647 -15.732  -5.517  0.00  0.00     0.020 C 
BRANCH  24  25
ATOM     25  C   UNL d   1      30.028 -17.035  -4.998  0.00  0.00     0.001 C 
BRANCH  25  26
ATOM     26  C   UNL d   1      29.668 -16.916  -3.519  0.00  0.00    -0.004 C 
ATOM     27  C   UNL d   1      30.186 -15.616  -2.928  0.00  0.00     0.005 C 
ENDBRANCH  25  26
ENDBRANCH  24  25
ENDBRANCH  23  24
ENDBRANCH  21  23
ENDBRANCH  19  21
ENDBRANCH  17  19
ENDBRANCH   1  17
TORSDOF 11
ENDMDL
MODEL 8
REMARK VINA RESULT:    -6.189      3.664      8.966
REMARK INTER + INTRA:         -11.183
REMARK INTER:                  -9.471
REMARK INTRA:                  -1.713
REMARK CONF_INDEPENDENT:        3.281
REMARK UNBOUND:                -1.713
REMARK  11 active torsions:
REMARK  status: ('A' for Active; 'I' for Inactive)
REMARK    1  A    between atoms: C_2  and  C_3 
REMARK    2  A    between atoms: C_3  and  C_4 
REMARK    3  A    between atoms: C_4  and  C_5 
REMARK    4  A    between atoms: C_5  and  N_6 
REMARK    5  A    between atoms: N_6  and  C_7 
REMARK    6  A    between atoms: C_7  and  N_9 
REMARK    7  A    between atoms: N_9  and  N_10 
REMARK       I    between atoms: N_10  and  C_11 
REMARK    8  A    between atoms: C_13  and  C_11 
REMARK    9  A    between atoms: C_13  and  S_15 
REMARK   10  A    between atoms: S_15  and  C_16 
REMARK   11  A    between atoms: C_19  and  N_20 
ROOT
ATOM      1  N   UNL d   1      25.171 -14.519  -2.740  0.00  0.00    -0.267 N 
ATOM      2  C   UNL d   1      26.030 -14.119  -1.730  0.00  0.00     0.249 C 
ATOM      3  O   UNL d   1      26.779 -13.146  -1.881  0.00  0.00    -0.271 OA
ATOM      4  H   UNL d   1      24.565 -15.328  -2.660  0.00  0.00     0.190 HD
ENDROOT
BRANCH   2   5
ATOM      5  C   UNL d   1      25.935 -14.900  -0.391  0.00  0.00     0.142 C 
ATOM      6  C   UNL d   1      27.084 -14.508   0.556  0.00  0.00     0.031 C 
BRANCH   5   7
ATOM      7  S   UNL d   1      26.108 -16.722  -0.649  0.00  0.00    -0.116 SA
BRANCH   7   8
ATOM      8  C   UNL d   1      24.437 -17.336  -0.681  0.00  0.00     0.001 A 
ATOM      9  C   UNL d   1      23.325 -16.511  -0.888  0.00  0.00     0.021 A 
ATOM     10  C   UNL d   1      22.032 -17.053  -0.895  0.00  0.00     0.037 A 
ATOM     11  C   UNL d   1      21.855 -18.438  -0.749  0.00  0.00     0.102 A 
ATOM     12  C   UNL d   1      22.960 -19.272  -0.537  0.00  0.00     0.037 A 
ATOM     13  C   UNL d   1      24.243 -18.714  -0.493  0.00  0.00     0.021 A 
BRANCH  11  14
ATOM     14  N   UNL d   1      20.525 -19.026  -0.995  0.00  0.00    -0.116 N 
ATOM     15  O   UNL d   1      20.373 -19.703  -2.018  0.00  0.00    -0.532 OA
ATOM     16  O   UNL d   1      19.639 -18.819  -0.148  0.00  0.00    -0.532 OA
ENDBRANCH  11  14
ENDBRANCH   7   8
ENDBRANCH   5   7
ENDBRANCH   2   5
BRANCH   1  17
ATOM     17  N   UNL d   1      25.231 -13.954  -4.049  0.00  0.00    -0.274 N 
ATOM     18  H   UNL d   1      24.334 -13.721  -4.470  0.00  0.00     0.189 HD
BRANCH  17  19
ATOM     19  C   UNL d   1      26.454 -13.834  -4.697  0.00  0.00     0.186 C 
ATOM     20  S   UNL d   1      27.181 -15.106  -5.500  0.00  0.00    -0.040 SA
BRANCH  19  21
ATOM     21  N   UNL d   1      27.042 -12.586  -4.639  0.00  0.00    -0.366 N 
ATOM     22  H   UNL d   1      27.419 -12.257  -3.763  0.00  0.00     0.161 HD
BRANCH  21  23
ATOM     23  C   UNL d   1      27.074 -11.674  -5.796  0.00  0.00     0.122 C 
BRANCH  23  24
ATOM     24  C   UNL d   1      25.750 -10.988  -6.094  0.00  0.00     0.020 C 
BRANCH  24  25
ATOM     25  C   UNL d   1      25.637  -9.669  -5.321  0.00  0.00     0.001 C 
BRANCH  25  26
ATOM     26  C   UNL d   1      24.408  -8.880  -5.766  0.00  0.00    -0.004 C 
ATOM     27  C   UNL d   1      24.554  -7.403  -5.443  0.00  0.00     0.005 C 
ENDBRANCH  25  26
ENDBRANCH  24  25
ENDBRANCH  23  24
ENDBRANCH  21  23
ENDBRANCH  19  21
ENDBRANCH  17  19
ENDBRANCH   1  17
TORSDOF 11
ENDMDL
MODEL 9
REMARK VINA RESULT:    -5.968      4.216      8.427
REMARK INTER + INTRA:         -11.222
REMARK INTER:                  -9.250
REMARK INTRA:                  -1.972
REMARK CONF_INDEPENDENT:        3.281
REMARK UNBOUND:                -1.972
REMARK  11 active torsions:
REMARK  status: ('A' for Active; 'I' for Inactive)
REMARK    1  A    between atoms: C_2  and  C_3 
REMARK    2  A    between atoms: C_3  and  C_4 
REMARK    3  A    between atoms: C_4  and  C_5 
REMARK    4  A    between atoms: C_5  and  N_6 
REMARK    5  A    between atoms: N_6  and  C_7 
REMARK    6  A    between atoms: C_7  and  N_9 
REMARK    7  A    between atoms: N_9  and  N_10 
REMARK       I    between atoms: N_10  and  C_11 
REMARK    8  A    between atoms: C_13  and  C_11 
REMARK    9  A    between atoms: C_13  and  S_15 
REMARK   10  A    between atoms: S_15  and  C_16 
REMARK   11  A    between atoms: C_19  and  N_20 
ROOT
ATOM      1  N   UNL d   1      29.264 -16.993  -0.101  0.00  0.00    -0.267 N 
ATOM      2  C   UNL d   1      28.570 -16.361  -1.119  0.00  0.00     0.249 C 
ATOM      3  O   UNL d   1      29.120 -15.513  -1.832  0.00  0.00    -0.271 OA
ATOM      4  H   UNL d   1      28.835 -17.672   0.519  0.00  0.00     0.190 HD
ENDROOT
BRANCH   2   5
ATOM      5  C   UNL d   1      27.112 -16.838  -1.361  0.00  0.00     0.142 C 
ATOM      6  C   UNL d   1      26.329 -15.807  -2.197  0.00  0.00     0.031 C 
BRANCH   5   7
ATOM      7  S   UNL d   1      26.173 -17.001   0.223  0.00  0.00    -0.116 SA
BRANCH   7   8
ATOM      8  C   UNL d   1      24.562 -17.583  -0.264  0.00  0.00     0.001 A 
ATOM      9  C   UNL d   1      24.266 -18.938  -0.458  0.00  0.00     0.021 A 
ATOM     10  C   UNL d   1      22.980 -19.334  -0.848  0.00  0.00     0.037 A 
ATOM     11  C   UNL d   1      21.967 -18.371  -0.993  0.00  0.00     0.102 A 
ATOM     12  C   UNL d   1      22.253 -17.013  -0.805  0.00  0.00     0.037 A 
ATOM     13  C   UNL d   1      23.551 -16.627  -0.453  0.00  0.00     0.021 A 
BRANCH  11  14
ATOM     14  N   UNL d   1      20.571 -18.813  -1.168  0.00  0.00    -0.116 N 
ATOM     15  O   UNL d   1      20.358 -19.773  -1.915  0.00  0.00    -0.532 OA
ATOM     16  O   UNL d   1      19.691 -18.200  -0.539  0.00  0.00    -0.532 OA
ENDBRANCH  11  14
ENDBRANCH   7   8
ENDBRANCH   5   7
ENDBRANCH   2   5
BRANCH   1  17
ATOM     17  N   UNL d   1      30.571 -16.577   0.292  0.00  0.00    -0.274 N 
ATOM     18  H   UNL d   1      31.318 -17.245   0.114  0.00  0.00     0.189 HD
BRANCH  17  19
ATOM     19  C   UNL d   1      30.745 -15.367   0.951  0.00  0.00     0.186 C 
ATOM     20  S   UNL d   1      31.731 -15.199   2.289  0.00  0.00    -0.040 SA
BRANCH  19  21
ATOM     21  N   UNL d   1      30.048 -14.296   0.429  0.00  0.00    -0.366 N 
ATOM     22  H   UNL d   1      30.254 -13.981  -0.508  0.00  0.00     0.161 HD
BRANCH  21  23
ATOM     23  C   UNL d   1      29.059 -13.538   1.215  0.00  0.00     0.122 C 
BRANCH  23  24
ATOM     24  C   UNL d   1      27.846 -14.345   1.648  0.00  0.00     0.020 C 
BRANCH  24  25
ATOM     25  C   UNL d   1      27.517 -14.081   3.123  0.00  0.00     0.001 C 
BRANCH  25  26
ATOM     26  C   UNL d   1      28.772 -14.183   3.987  0.00  0.00    -0.004 C 
ATOM     27  C   UNL d   1      28.418 -14.368   5.453  0.00  0.00     0.005 C 
ENDBRANCH  25  26
ENDBRANCH  24  25
ENDBRANCH  23  24
ENDBRANCH  21  23
ENDBRANCH  19  21
ENDBRANCH  17  19
ENDBRANCH   1  17
TORSDOF 11
ENDMDL
