MODEL 1
REMARK VINA RESULT:    -8.430      0.000      0.000
REMARK INTER + INTRA:         -13.594
REMARK INTER:                 -11.711
REMARK INTRA:                  -1.883
REMARK CONF_INDEPENDENT:        3.281
REMARK UNBOUND:                -1.883
REMARK  11 active torsions:
REMARK  status: ('A' for Active; 'I' for Inactive)
REMARK    1  A    between atoms: O_2  and  C_3 
REMARK    2  A    between atoms: C_6  and  N_7 
REMARK    3  A    between atoms: N_7  and  C_8 
REMARK    4  A    between atoms: C_8  and  N_10 
REMARK    5  A    between atoms: N_10  and  C_11 
REMARK    6  A    between atoms: N_10  and  C_14 
REMARK    7  A    between atoms: C_11  and  C_12 
REMARK    8  A    between atoms: C_12  and  O_13 
REMARK    9  A    between atoms: C_14  and  C_15 
REMARK   10  A    between atoms: C_19  and  O_20 
REMARK   11  A    between atoms: C_22  and  O_23 
ROOT
ATOM      1  N   UNL d   1      26.583 -15.089  -1.991  0.00  0.00    -0.352 N 
ENDROOT
BRANCH   1   2
ATOM      2  C   UNL d   1      26.626 -16.146  -1.033  0.00  0.00     0.174 C 
ATOM      3  S   UNL d   1      28.080 -17.004  -0.850  0.00  0.00    -0.041 SA
BRANCH   2   4
ATOM      4  N   UNL d   1      25.444 -16.381  -0.303  0.00  0.00    -0.333 N 
ATOM      5  H   UNL d   1      25.348 -16.017   0.611  0.00  0.00     0.168 HD
BRANCH   4   6
ATOM      6  C   UNL d   1      24.290 -17.167  -0.538  0.00  0.00     0.034 A 
ATOM      7  C   UNL d   1      23.034 -16.564  -0.774  0.00  0.00     0.032 A 
ATOM      8  C   UNL d   1      21.883 -17.366  -0.895  0.00  0.00     0.039 A 
ATOM      9  C   UNL d   1      21.989 -18.756  -0.845  0.00  0.00     0.068 A 
ATOM     10  C   UNL d   1      23.228 -19.329  -0.642  0.00  0.00     0.039 A 
ATOM     11  C   UNL d   1      24.347 -18.539  -0.520  0.00  0.00     0.032 A 
BRANCH   9  12
ATOM     12  O   UNL d   1      20.869 -19.487  -1.110  0.00  0.00    -0.356 OA
ATOM     13  C   UNL d   1      19.810 -19.325  -0.168  0.00  0.00     0.210 C 
ENDBRANCH   9  12
ENDBRANCH   4   6
ENDBRANCH   2   4
ENDBRANCH   1   2
BRANCH   1  14
ATOM     14  C   UNL d   1      25.426 -14.294  -2.366  0.00  0.00     0.151 C 
BRANCH  14  15
ATOM     15  C   UNL d   1      25.119 -13.796  -3.758  0.00  0.00     0.183 C 
BRANCH  15  16
ATOM     16  O   UNL d   1      24.817 -14.825  -4.680  0.00  0.00    -0.399 OA
ATOM     17  H   UNL d   1      25.615 -15.372  -4.767  0.00  0.00     0.209 HD
ENDBRANCH  15  16
ENDBRANCH  14  15
ENDBRANCH   1  14
BRANCH   1  18
ATOM     18  C   UNL d   1      27.863 -14.716  -2.722  0.00  0.00     0.169 C 
BRANCH  18  19
ATOM     19  C   UNL d   1      28.432 -15.487  -3.908  0.00  0.00     0.023 C 
ATOM     20  C   UNL d   1      29.437 -16.382  -3.728  0.00  0.00     0.027 C 
ATOM     21  C   UNL d   1      30.032 -17.073  -4.885  0.00  0.00    -0.011 A 
ATOM     22  C   UNL d   1      30.605 -18.336  -4.822  0.00  0.00     0.053 A 
ATOM     23  C   UNL d   1      30.025 -16.388  -6.106  0.00  0.00     0.028 A 
ATOM     24  C   UNL d   1      31.212 -18.886  -5.966  0.00  0.00     0.102 A 
ATOM     25  C   UNL d   1      31.123 -18.216  -7.209  0.00  0.00     0.103 A 
ATOM     26  C   UNL d   1      30.554 -16.944  -7.268  0.00  0.00     0.064 A 
ATOM     27  N   UNL d   1      29.300 -15.181  -6.141  0.00  0.00    -0.224 NA
ATOM     28  C   UNL d   1      28.169 -15.239  -5.361  0.00  0.00     0.233 C 
ATOM     29  H   UNL d   1      29.152 -14.768  -7.051  0.00  0.00     0.137 HD
ATOM     30  O   UNL d   1      27.072 -15.200  -5.919  0.00  0.00    -0.274 OA
BRANCH  24  31
ATOM     31  O   UNL d   1      31.877 -20.066  -5.719  0.00  0.00    -0.353 OA
ATOM     32  C   UNL d   1      31.130 -21.112  -5.100  0.00  0.00     0.210 C 
ENDBRANCH  24  31
BRANCH  25  33
ATOM     33  O   UNL d   1      31.572 -18.891  -8.307  0.00  0.00    -0.353 OA
ATOM     34  C   UNL d   1      31.283 -20.263  -8.483  0.00  0.00     0.210 C 
ENDBRANCH  25  33
ENDBRANCH  18  19
ENDBRANCH   1  18
TORSDOF 11
ENDMDL
MODEL 2
REMARK VINA RESULT:    -8.194      2.713      3.881
REMARK INTER + INTRA:         -12.749
REMARK INTER:                 -11.475
REMARK INTRA:                  -1.274
REMARK CONF_INDEPENDENT:        3.281
REMARK UNBOUND:                -1.274
REMARK  11 active torsions:
REMARK  status: ('A' for Active; 'I' for Inactive)
REMARK    1  A    between atoms: O_2  and  C_3 
REMARK    2  A    between atoms: C_6  and  N_7 
REMARK    3  A    between atoms: N_7  and  C_8 
REMARK    4  A    between atoms: C_8  and  N_10 
REMARK    5  A    between atoms: N_10  and  C_11 
REMARK    6  A    between atoms: N_10  and  C_14 
REMARK    7  A    between atoms: C_11  and  C_12 
REMARK    8  A    between atoms: C_12  and  O_13 
REMARK    9  A    between atoms: C_14  and  C_15 
REMARK   10  A    between atoms: C_19  and  O_20 
REMARK   11  A    between atoms: C_22  and  O_23 
ROOT
ATOM      1  N   UNL d   1      26.538 -15.627  -0.672  0.00  0.00    -0.352 N 
ENDROOT
BRANCH   1   2
ATOM      2  C   UNL d   1      26.820 -16.965  -0.261  0.00  0.00     0.174 C 
ATOM      3  S   UNL d   1      28.422 -17.517  -0.373  0.00  0.00    -0.041 SA
BRANCH   2   4
ATOM      4  N   UNL d   1      25.731 -17.717   0.220  0.00  0.00    -0.333 N 
ATOM      5  H   UNL d   1      25.868 -18.376   0.943  0.00  0.00     0.168 HD
BRANCH   4   6
ATOM      6  C   UNL d   1      24.379 -17.847  -0.180  0.00  0.00     0.034 A 
ATOM      7  C   UNL d   1      23.523 -16.723  -0.228  0.00  0.00     0.032 A 
ATOM      8  C   UNL d   1      22.157 -16.894  -0.523  0.00  0.00     0.039 A 
ATOM      9  C   UNL d   1      21.660 -18.162  -0.828  0.00  0.00     0.068 A 
ATOM     10  C   UNL d   1      22.516 -19.244  -0.803  0.00  0.00     0.039 A 
ATOM     11  C   UNL d   1      23.848 -19.069  -0.511  0.00  0.00     0.032 A 
BRANCH   9  12
ATOM     12  O   UNL d   1      20.365 -18.251  -1.245  0.00  0.00    -0.356 OA
ATOM     13  C   UNL d   1      19.618 -19.316  -0.658  0.00  0.00     0.210 C 
ENDBRANCH   9  12
ENDBRANCH   4   6
ENDBRANCH   2   4
ENDBRANCH   1   2
BRANCH   1  14
ATOM     14  C   UNL d   1      27.007 -14.403  -0.046  0.00  0.00     0.151 C 
BRANCH  14  15
ATOM     15  C   UNL d   1      27.777 -14.321   1.250  0.00  0.00     0.183 C 
BRANCH  15  16
ATOM     16  O   UNL d   1      27.781 -15.525   1.991  0.00  0.00    -0.399 OA
ATOM     17  H   UNL d   1      28.678 -15.893   1.931  0.00  0.00     0.209 HD
ENDBRANCH  15  16
ENDBRANCH  14  15
ENDBRANCH   1  14
BRANCH   1  18
ATOM     18  C   UNL d   1      25.659 -15.410  -1.894  0.00  0.00     0.169 C 
BRANCH  18  19
ATOM     19  C   UNL d   1      26.166 -14.908  -3.241  0.00  0.00     0.023 C 
ATOM     20  C   UNL d   1      27.443 -15.154  -3.630  0.00  0.00     0.027 C 
ATOM     21  C   UNL d   1      27.950 -14.608  -4.901  0.00  0.00    -0.011 A 
ATOM     22  C   UNL d   1      28.951 -15.206  -5.656  0.00  0.00     0.053 A 
ATOM     23  C   UNL d   1      27.390 -13.404  -5.343  0.00  0.00     0.028 A 
ATOM     24  C   UNL d   1      29.419 -14.572  -6.821  0.00  0.00     0.102 A 
ATOM     25  C   UNL d   1      28.785 -13.400  -7.297  0.00  0.00     0.103 A 
ATOM     26  C   UNL d   1      27.787 -12.797  -6.532  0.00  0.00     0.064 A 
ATOM     27  N   UNL d   1      26.282 -12.927  -4.616  0.00  0.00    -0.224 NA
ATOM     28  C   UNL d   1      25.483 -13.951  -4.167  0.00  0.00     0.233 C 
ATOM     29  H   UNL d   1      25.772 -12.155  -5.023  0.00  0.00     0.137 HD
ATOM     30  O   UNL d   1      24.349 -14.058  -4.639  0.00  0.00    -0.274 OA
BRANCH  24  31
ATOM     31  O   UNL d   1      30.515 -15.193  -7.378  0.00  0.00    -0.353 OA
ATOM     32  C   UNL d   1      31.780 -14.559  -7.195  0.00  0.00     0.210 C 
ENDBRANCH  24  31
BRANCH  25  33
ATOM     33  O   UNL d   1      29.170 -12.945  -8.525  0.00  0.00    -0.353 OA
ATOM     34  C   UNL d   1      28.239 -12.339  -9.398  0.00  0.00     0.210 C 
ENDBRANCH  25  33
ENDBRANCH  18  19
ENDBRANCH   1  18
TORSDOF 11
ENDMDL
MODEL 3
REMARK VINA RESULT:    -8.082      5.108      8.120
REMARK INTER + INTRA:         -13.253
REMARK INTER:                 -11.363
REMARK INTRA:                  -1.890
REMARK CONF_INDEPENDENT:        3.281
REMARK UNBOUND:                -1.890
REMARK  11 active torsions:
REMARK  status: ('A' for Active; 'I' for Inactive)
REMARK    1  A    between atoms: O_2  and  C_3 
REMARK    2  A    between atoms: C_6  and  N_7 
REMARK    3  A    between atoms: N_7  and  C_8 
REMARK    4  A    between atoms: C_8  and  N_10 
REMARK    5  A    between atoms: N_10  and  C_11 
REMARK    6  A    between atoms: N_10  and  C_14 
REMARK    7  A    between atoms: C_11  and  C_12 
REMARK    8  A    between atoms: C_12  and  O_13 
REMARK    9  A    between atoms: C_14  and  C_15 
REMARK   10  A    between atoms: C_19  and  O_20 
REMARK   11  A    between atoms: C_22  and  O_23 
ROOT
ATOM      1  N   UNL d   1      26.598 -14.845  -1.821  0.00  0.00    -0.352 N 
ENDROOT
BRANCH   1   2
ATOM      2  C   UNL d   1      26.998 -16.204  -1.651  0.00  0.00     0.174 C 
ATOM      3  S   UNL d   1      28.465 -16.701  -2.348  0.00  0.00    -0.041 SA
BRANCH   2   4
ATOM      4  N   UNL d   1      26.135 -17.025  -0.898  0.00  0.00    -0.333 N 
ATOM      5  H   UNL d   1      26.508 -17.655  -0.235  0.00  0.00     0.168 HD
BRANCH   4   6
ATOM      6  C   UNL d   1      24.739 -17.264  -0.928  0.00  0.00     0.034 A 
ATOM      7  C   UNL d   1      23.819 -16.192  -0.977  0.00  0.00     0.032 A 
ATOM      8  C   UNL d   1      22.438 -16.452  -0.895  0.00  0.00     0.039 A 
ATOM      9  C   UNL d   1      21.974 -17.766  -0.829  0.00  0.00     0.068 A 
ATOM     10  C   UNL d   1      22.887 -18.801  -0.811  0.00  0.00     0.039 A 
ATOM     11  C   UNL d   1      24.234 -18.539  -0.887  0.00  0.00     0.032 A 
BRANCH   9  12
ATOM     12  O   UNL d   1      20.627 -17.967  -0.896  0.00  0.00    -0.356 OA
ATOM     13  C   UNL d   1      20.233 -19.321  -1.114  0.00  0.00     0.210 C 
ENDBRANCH   9  12
ENDBRANCH   4   6
ENDBRANCH   2   4
ENDBRANCH   1   2
BRANCH   1  14
ATOM     14  C   UNL d   1      26.423 -14.135  -3.077  0.00  0.00     0.151 C 
BRANCH  14  15
ATOM     15  C   UNL d   1      25.518 -14.564  -4.207  0.00  0.00     0.183 C 
BRANCH  15  16
ATOM     16  O   UNL d   1      24.255 -13.928  -4.202  0.00  0.00    -0.399 OA
ATOM     17  H   UNL d   1      23.802 -14.188  -5.021  0.00  0.00     0.209 HD
ENDBRANCH  15  16
ENDBRANCH  14  15
ENDBRANCH   1  14
BRANCH   1  18
ATOM     18  C   UNL d   1      26.310 -14.009  -0.584  0.00  0.00     0.169 C 
BRANCH  18  19
ATOM     19  C   UNL d   1      27.017 -14.182   0.755  0.00  0.00     0.023 C 
ATOM     20  C   UNL d   1      27.015 -13.178   1.669  0.00  0.00     0.027 C 
ATOM     21  C   UNL d   1      27.759 -13.322   2.932  0.00  0.00    -0.011 A 
ATOM     22  C   UNL d   1      27.405 -12.688   4.116  0.00  0.00     0.053 A 
ATOM     23  C   UNL d   1      28.898 -14.135   2.909  0.00  0.00     0.028 A 
ATOM     24  C   UNL d   1      28.218 -12.831   5.255  0.00  0.00     0.102 A 
ATOM     25  C   UNL d   1      29.318 -13.721   5.237  0.00  0.00     0.103 A 
ATOM     26  C   UNL d   1      29.676 -14.349   4.045  0.00  0.00     0.064 A 
ATOM     27  N   UNL d   1      29.120 -14.866   1.726  0.00  0.00    -0.224 NA
ATOM     28  C   UNL d   1      27.943 -15.289   1.155  0.00  0.00     0.233 C 
ATOM     29  H   UNL d   1      29.839 -15.575   1.760  0.00  0.00     0.137 HD
ATOM     30  O   UNL d   1      27.707 -16.498   1.129  0.00  0.00    -0.274 OA
BRANCH  24  31
ATOM     31  O   UNL d   1      27.836 -12.024   6.304  0.00  0.00    -0.353 OA
ATOM     32  C   UNL d   1      28.558 -10.806   6.479  0.00  0.00     0.210 C 
ENDBRANCH  24  31
BRANCH  25  33
ATOM     33  O   UNL d   1      29.948 -13.947   6.426  0.00  0.00    -0.353 OA
ATOM     34  C   UNL d   1      29.210 -14.071   7.625  0.00  0.00     0.210 C 
ENDBRANCH  25  33
ENDBRANCH  18  19
ENDBRANCH   1  18
TORSDOF 11
ENDMDL
MODEL 4
REMARK VINA RESULT:    -8.081      3.752      4.857
REMARK INTER + INTRA:         -13.438
REMARK INTER:                 -11.362
REMARK INTRA:                  -2.076
REMARK CONF_INDEPENDENT:        3.281
REMARK UNBOUND:                -2.076
REMARK  11 active torsions:
REMARK  status: ('A' for Active; 'I' for Inactive)
REMARK    1  A    between atoms: O_2  and  C_3 
REMARK    2  A    between atoms: C_6  and  N_7 
REMARK    3  A    between atoms: N_7  and  C_8 
REMARK    4  A    between atoms: C_8  and  N_10 
REMARK    5  A    between atoms: N_10  and  C_11 
REMARK    6  A    between atoms: N_10  and  C_14 
REMARK    7  A    between atoms: C_11  and  C_12 
REMARK    8  A    between atoms: C_12  and  O_13 
REMARK    9  A    between atoms: C_14  and  C_15 
REMARK   10  A    between atoms: C_19  and  O_20 
REMARK   11  A    between atoms: C_22  and  O_23 
ROOT
ATOM      1  N   UNL d   1      26.378 -15.854  -1.213  0.00  0.00    -0.352 N 
ENDROOT
BRANCH   1   2
ATOM      2  C   UNL d   1      26.732 -17.011  -0.455  0.00  0.00     0.174 C 
ATOM      3  S   UNL d   1      28.379 -17.295  -0.147  0.00  0.00    -0.041 SA
BRANCH   2   4
ATOM      4  N   UNL d   1      25.670 -17.822  -0.011  0.00  0.00    -0.333 N 
ATOM      5  H   UNL d   1      25.843 -18.557   0.626  0.00  0.00     0.168 HD
BRANCH   4   6
ATOM      6  C   UNL d   1      24.300 -17.916  -0.359  0.00  0.00     0.034 A 
ATOM      7  C   UNL d   1      23.539 -16.758  -0.637  0.00  0.00     0.032 A 
ATOM      8  C   UNL d   1      22.155 -16.870  -0.873  0.00  0.00     0.039 A 
ATOM      9  C   UNL d   1      21.547 -18.126  -0.894  0.00  0.00     0.068 A 
ATOM     10  C   UNL d   1      22.312 -19.248  -0.648  0.00  0.00     0.039 A 
ATOM     11  C   UNL d   1      23.662 -19.130  -0.415  0.00  0.00     0.032 A 
BRANCH   9  12
ATOM     12  O   UNL d   1      20.237 -18.189  -1.267  0.00  0.00    -0.356 OA
ATOM     13  C   UNL d   1      19.542 -19.353  -0.822  0.00  0.00     0.210 C 
ENDBRANCH   9  12
ENDBRANCH   4   6
ENDBRANCH   2   4
ENDBRANCH   1   2
BRANCH   1  14
ATOM     14  C   UNL d   1      26.404 -14.473  -0.763  0.00  0.00     0.151 C 
BRANCH  14  15
ATOM     15  C   UNL d   1      27.405 -13.429  -1.197  0.00  0.00     0.183 C 
BRANCH  15  16
ATOM     16  O   UNL d   1      26.818 -12.265  -1.745  0.00  0.00    -0.399 OA
ATOM     17  H   UNL d   1      27.047 -12.248  -2.688  0.00  0.00     0.209 HD
ENDBRANCH  15  16
ENDBRANCH  14  15
ENDBRANCH   1  14
BRANCH   1  18
ATOM     18  C   UNL d   1      25.920 -16.037  -2.651  0.00  0.00     0.169 C 
BRANCH  18  19
ATOM     19  C   UNL d   1      25.989 -14.954  -3.721  0.00  0.00     0.023 C 
ATOM     20  C   UNL d   1      27.143 -14.731  -4.400  0.00  0.00     0.027 C 
ATOM     21  C   UNL d   1      27.227 -13.637  -5.383  0.00  0.00    -0.011 A 
ATOM     22  C   UNL d   1      28.069 -13.651  -6.487  0.00  0.00     0.053 A 
ATOM     23  C   UNL d   1      26.415 -12.519  -5.159  0.00  0.00     0.028 A 
ATOM     24  C   UNL d   1      28.130 -12.529  -7.333  0.00  0.00     0.102 A 
ATOM     25  C   UNL d   1      27.244 -11.443  -7.139  0.00  0.00     0.103 A 
ATOM     26  C   UNL d   1      26.405 -11.428  -6.025  0.00  0.00     0.064 A 
ATOM     27  N   UNL d   1      25.478 -12.627  -4.112  0.00  0.00    -0.224 NA
ATOM     28  C   UNL d   1      24.967 -13.898  -4.010  0.00  0.00     0.233 C 
ATOM     29  H   UNL d   1      24.782 -11.897  -4.051  0.00  0.00     0.137 HD
ATOM     30  O   UNL d   1      23.776 -14.072  -4.270  0.00  0.00    -0.274 OA
BRANCH  24  31
ATOM     31  O   UNL d   1      29.118 -12.617  -8.288  0.00  0.00    -0.353 OA
ATOM     32  C   UNL d   1      30.191 -11.682  -8.198  0.00  0.00     0.210 C 
ENDBRANCH  24  31
BRANCH  25  33
ATOM     33  O   UNL d   1      27.233 -10.475  -8.102  0.00  0.00    -0.353 OA
ATOM     34  C   UNL d   1      26.854 -10.777  -9.429  0.00  0.00     0.210 C 
ENDBRANCH  25  33
ENDBRANCH  18  19
ENDBRANCH   1  18
TORSDOF 11
ENDMDL
MODEL 5
REMARK VINA RESULT:    -7.924      1.783      2.324
REMARK INTER + INTRA:         -13.091
REMARK INTER:                 -11.205
REMARK INTRA:                  -1.886
REMARK CONF_INDEPENDENT:        3.281
REMARK UNBOUND:                -1.886
REMARK  11 active torsions:
REMARK  status: ('A' for Active; 'I' for Inactive)
REMARK    1  A    between atoms: O_2  and  C_3 
REMARK    2  A    between atoms: C_6  and  N_7 
REMARK    3  A    between atoms: N_7  and  C_8 
REMARK    4  A    between atoms: C_8  and  N_10 
REMARK    5  A    between atoms: N_10  and  C_11 
REMARK    6  A    between atoms: N_10  and  C_14 
REMARK    7  A    between atoms: C_11  and  C_12 
REMARK    8  A    between atoms: C_12  and  O_13 
REMARK    9  A    between atoms: C_14  and  C_15 
REMARK   10  A    between atoms: C_19  and  O_20 
REMARK   11  A    between atoms: C_22  and  O_23 
ROOT
ATOM      1  N   UNL d   1      28.049 -15.347  -2.046  0.00  0.00    -0.352 N 
ENDROOT
BRANCH   1   2
ATOM      2  C   UNL d   1      26.696 -15.768  -2.213  0.00  0.00     0.174 C 
ATOM      3  S   UNL d   1      25.841 -15.200  -3.566  0.00  0.00    -0.041 SA
BRANCH   2   4
ATOM      4  N   UNL d   1      26.183 -16.642  -1.234  0.00  0.00    -0.333 N 
ATOM      5  H   UNL d   1      26.799 -17.120  -0.628  0.00  0.00     0.168 HD
BRANCH   4   6
ATOM      6  C   UNL d   1      24.884 -17.125  -0.939  0.00  0.00     0.034 A 
ATOM      7  C   UNL d   1      24.683 -18.460  -0.520  0.00  0.00     0.032 A 
ATOM      8  C   UNL d   1      23.375 -18.947  -0.339  0.00  0.00     0.039 A 
ATOM      9  C   UNL d   1      22.280 -18.099  -0.512  0.00  0.00     0.068 A 
ATOM     10  C   UNL d   1      22.498 -16.790  -0.895  0.00  0.00     0.039 A 
ATOM     11  C   UNL d   1      23.779 -16.324  -1.073  0.00  0.00     0.032 A 
BRANCH   9  12
ATOM     12  O   UNL d   1      21.047 -18.580  -0.187  0.00  0.00    -0.356 OA
ATOM     13  C   UNL d   1      20.401 -19.322  -1.220  0.00  0.00     0.210 C 
ENDBRANCH   9  12
ENDBRANCH   4   6
ENDBRANCH   2   4
ENDBRANCH   1   2
BRANCH   1  14
ATOM     14  C   UNL d   1      28.794 -15.271  -0.801  0.00  0.00     0.151 C 
BRANCH  14  15
ATOM     15  C   UNL d   1      29.267 -16.452   0.012  0.00  0.00     0.183 C 
BRANCH  15  16
ATOM     16  O   UNL d   1      28.879 -17.704  -0.519  0.00  0.00    -0.399 OA
ATOM     17  H   UNL d   1      29.168 -18.383   0.112  0.00  0.00     0.209 HD
ENDBRANCH  15  16
ENDBRANCH  14  15
ENDBRANCH   1  14
BRANCH   1  18
ATOM     18  C   UNL d   1      28.838 -14.926  -3.275  0.00  0.00     0.169 C 
BRANCH  18  19
ATOM     19  C   UNL d   1      29.198 -15.857  -4.428  0.00  0.00     0.023 C 
ATOM     20  C   UNL d   1      29.871 -17.013  -4.194  0.00  0.00     0.027 C 
ATOM     21  C   UNL d   1      30.278 -17.875  -5.316  0.00  0.00    -0.011 A 
ATOM     22  C   UNL d   1      30.434 -19.252  -5.219  0.00  0.00     0.053 A 
ATOM     23  C   UNL d   1      30.539 -17.245  -6.538  0.00  0.00     0.028 A 
ATOM     24  C   UNL d   1      30.895 -19.982  -6.328  0.00  0.00     0.102 A 
ATOM     25  C   UNL d   1      31.074 -19.342  -7.578  0.00  0.00     0.103 A 
ATOM     26  C   UNL d   1      30.925 -17.959  -7.671  0.00  0.00     0.064 A 
ATOM     27  N   UNL d   1      30.220 -15.875  -6.615  0.00  0.00    -0.224 NA
ATOM     28  C   UNL d   1      29.092 -15.569  -5.893  0.00  0.00     0.233 C 
ATOM     29  H   UNL d   1      30.248 -15.454  -7.534  0.00  0.00     0.137 HD
ATOM     30  O   UNL d   1      28.085 -15.207  -6.506  0.00  0.00    -0.274 OA
BRANCH  24  31
ATOM     31  O   UNL d   1      31.154 -21.305  -6.043  0.00  0.00    -0.353 OA
ATOM     32  C   UNL d   1      32.411 -21.602  -5.438  0.00  0.00     0.210 C 
ENDBRANCH  24  31
BRANCH  25  33
ATOM     33  O   UNL d   1      31.344 -20.144  -8.649  0.00  0.00    -0.353 OA
ATOM     34  C   UNL d   1      31.096 -19.700  -9.967  0.00  0.00     0.210 C 
ENDBRANCH  25  33
ENDBRANCH  18  19
ENDBRANCH   1  18
TORSDOF 11
ENDMDL
MODEL 6
REMARK VINA RESULT:    -7.891      3.264      6.236
REMARK INTER + INTRA:         -12.558
REMARK INTER:                 -11.172
REMARK INTRA:                  -1.386
REMARK CONF_INDEPENDENT:        3.281
REMARK UNBOUND:                -1.386
REMARK  11 active torsions:
REMARK  status: ('A' for Active; 'I' for Inactive)
REMARK    1  A    between atoms: O_2  and  C_3 
REMARK    2  A    between atoms: C_6  and  N_7 
REMARK    3  A    between atoms: N_7  and  C_8 
REMARK    4  A    between atoms: C_8  and  N_10 
REMARK    5  A    between atoms: N_10  and  C_11 
REMARK    6  A    between atoms: N_10  and  C_14 
REMARK    7  A    between atoms: C_11  and  C_12 
REMARK    8  A    between atoms: C_12  and  O_13 
REMARK    9  A    between atoms: C_14  and  C_15 
REMARK   10  A    between atoms: C_19  and  O_20 
REMARK   11  A    between atoms: C_22  and  O_23 
ROOT
ATOM      1  N   UNL d   1      28.109 -16.588  -0.835  0.00  0.00    -0.352 N 
ENDROOT
BRANCH   1   2
ATOM      2  C   UNL d   1      27.053 -16.369   0.100  0.00  0.00     0.174 C 
ATOM      3  S   UNL d   1      27.030 -14.901   0.954  0.00  0.00    -0.041 SA
BRANCH   2   4
ATOM      4  N   UNL d   1      26.102 -17.400   0.226  0.00  0.00    -0.333 N 
ATOM      5  H   UNL d   1      26.372 -18.280   0.585  0.00  0.00     0.168 HD
BRANCH   4   6
ATOM      6  C   UNL d   1      24.746 -17.531  -0.162  0.00  0.00     0.034 A 
ATOM      7  C   UNL d   1      23.982 -16.401  -0.534  0.00  0.00     0.032 A 
ATOM      8  C   UNL d   1      22.609 -16.544  -0.809  0.00  0.00     0.039 A 
ATOM      9  C   UNL d   1      22.015 -17.806  -0.776  0.00  0.00     0.068 A 
ATOM     10  C   UNL d   1      22.782 -18.902  -0.438  0.00  0.00     0.039 A 
ATOM     11  C   UNL d   1      24.122 -18.754  -0.166  0.00  0.00     0.032 A 
BRANCH   9  12
ATOM     12  O   UNL d   1      20.719 -17.907  -1.189  0.00  0.00    -0.356 OA
ATOM     13  C   UNL d   1      20.078 -19.138  -0.856  0.00  0.00     0.210 C 
ENDBRANCH   9  12
ENDBRANCH   4   6
ENDBRANCH   2   4
ENDBRANCH   1   2
BRANCH   1  14
ATOM     14  C   UNL d   1      29.501 -16.875  -0.532  0.00  0.00     0.151 C 
BRANCH  14  15
ATOM     15  C   UNL d   1      30.401 -17.790  -1.327  0.00  0.00     0.183 C 
BRANCH  15  16
ATOM     16  O   UNL d   1      30.454 -19.113  -0.830  0.00  0.00    -0.399 OA
ATOM     17  H   UNL d   1      30.033 -19.106   0.046  0.00  0.00     0.209 HD
ENDBRANCH  15  16
ENDBRANCH  14  15
ENDBRANCH   1  14
BRANCH   1  18
ATOM     18  C   UNL d   1      27.792 -16.525  -2.321  0.00  0.00     0.169 C 
BRANCH  18  19
ATOM     19  C   UNL d   1      27.409 -15.252  -3.066  0.00  0.00     0.023 C 
ATOM     20  C   UNL d   1      27.317 -14.070  -2.406  0.00  0.00     0.027 C 
ATOM     21  C   UNL d   1      26.879 -12.855  -3.115  0.00  0.00    -0.011 A 
ATOM     22  C   UNL d   1      27.265 -11.569  -2.760  0.00  0.00     0.053 A 
ATOM     23  C   UNL d   1      26.005 -13.030  -4.194  0.00  0.00     0.028 A 
ATOM     24  C   UNL d   1      26.739 -10.465  -3.454  0.00  0.00     0.102 A 
ATOM     25  C   UNL d   1      25.924 -10.664  -4.593  0.00  0.00     0.103 A 
ATOM     26  C   UNL d   1      25.530 -11.955  -4.942  0.00  0.00     0.064 A 
ATOM     27  N   UNL d   1      25.770 -14.359  -4.598  0.00  0.00    -0.224 NA
ATOM     28  C   UNL d   1      26.892 -15.142  -4.467  0.00  0.00     0.233 C 
ATOM     29  H   UNL d   1      25.278 -14.486  -5.471  0.00  0.00     0.137 HD
ATOM     30  O   UNL d   1      27.424 -15.575  -5.490  0.00  0.00    -0.274 OA
BRANCH  24  31
ATOM     31  O   UNL d   1      27.082  -9.254  -2.895  0.00  0.00    -0.353 OA
ATOM     32  C   UNL d   1      27.598  -9.277  -1.566  0.00  0.00     0.210 C 
ENDBRANCH  24  31
BRANCH  25  33
ATOM     33  O   UNL d   1      25.602  -9.556  -5.322  0.00  0.00    -0.353 OA
ATOM     34  C   UNL d   1      24.601  -8.662  -4.879  0.00  0.00     0.210 C 
ENDBRANCH  25  33
ENDBRANCH  18  19
ENDBRANCH   1  18
TORSDOF 11
ENDMDL
MODEL 7
REMARK VINA RESULT:    -7.882      4.824      7.870
REMARK INTER + INTRA:         -12.547
REMARK INTER:                 -11.163
REMARK INTRA:                  -1.384
REMARK CONF_INDEPENDENT:        3.281
REMARK UNBOUND:                -1.384
REMARK  11 active torsions:
REMARK  status: ('A' for Active; 'I' for Inactive)
REMARK    1  A    between atoms: O_2  and  C_3 
REMARK    2  A    between atoms: C_6  and  N_7 
REMARK    3  A    between atoms: N_7  and  C_8 
REMARK    4  A    between atoms: C_8  and  N_10 
REMARK    5  A    between atoms: N_10  and  C_11 
REMARK    6  A    between atoms: N_10  and  C_14 
REMARK    7  A    between atoms: C_11  and  C_12 
REMARK    8  A    between atoms: C_12  and  O_13 
REMARK    9  A    between atoms: C_14  and  C_15 
REMARK   10  A    between atoms: C_19  and  O_20 
REMARK   11  A    between atoms: C_22  and  O_23 
ROOT
ATOM      1  N   UNL d   1      26.407 -15.351  -1.852  0.00  0.00    -0.352 N 
ENDROOT
BRANCH   1   2
ATOM      2  C   UNL d   1      26.909 -16.274  -0.886  0.00  0.00     0.174 C 
ATOM      3  S   UNL d   1      28.533 -16.131  -0.410  0.00  0.00    -0.041 SA
BRANCH   2   4
ATOM      4  N   UNL d   1      25.998 -17.229  -0.395  0.00  0.00    -0.333 N 
ATOM      5  H   UNL d   1      26.323 -17.988   0.148  0.00  0.00     0.168 HD
BRANCH   4   6
ATOM      6  C   UNL d   1      24.612 -17.447  -0.587  0.00  0.00     0.034 A 
ATOM      7  C   UNL d   1      23.730 -16.366  -0.814  0.00  0.00     0.032 A 
ATOM      8  C   UNL d   1      22.344 -16.598  -0.893  0.00  0.00     0.039 A 
ATOM      9  C   UNL d   1      21.844 -17.899  -0.809  0.00  0.00     0.068 A 
ATOM     10  C   UNL d   1      22.723 -18.945  -0.615  0.00  0.00     0.039 A 
ATOM     11  C   UNL d   1      24.076 -18.710  -0.536  0.00  0.00     0.032 A 
BRANCH   9  12
ATOM     12  O   UNL d   1      20.512 -18.082  -1.034  0.00  0.00    -0.356 OA
ATOM     13  C   UNL d   1      19.923 -19.157  -0.303  0.00  0.00     0.210 C 
ENDBRANCH   9  12
ENDBRANCH   4   6
ENDBRANCH   2   4
ENDBRANCH   1   2
BRANCH   1  14
ATOM     14  C   UNL d   1      25.995 -15.647  -3.213  0.00  0.00     0.151 C 
BRANCH  14  15
ATOM     15  C   UNL d   1      25.677 -14.623  -4.275  0.00  0.00     0.183 C 
BRANCH  15  16
ATOM     16  O   UNL d   1      24.376 -14.078  -4.174  0.00  0.00    -0.399 OA
ATOM     17  H   UNL d   1      24.178 -13.653  -5.025  0.00  0.00     0.209 HD
ENDBRANCH  15  16
ENDBRANCH  14  15
ENDBRANCH   1  14
BRANCH   1  18
ATOM     18  C   UNL d   1      26.269 -13.888  -1.459  0.00  0.00     0.169 C 
BRANCH  18  19
ATOM     19  C   UNL d   1      26.889 -13.270  -0.212  0.00  0.00     0.023 C 
ATOM     20  C   UNL d   1      26.560 -13.732   1.022  0.00  0.00     0.027 C 
ATOM     21  C   UNL d   1      27.107 -13.086   2.227  0.00  0.00    -0.011 A 
ATOM     22  C   UNL d   1      27.320 -13.746   3.431  0.00  0.00     0.053 A 
ATOM     23  C   UNL d   1      27.403 -11.722   2.137  0.00  0.00     0.028 A 
ATOM     24  C   UNL d   1      27.781 -13.029   4.549  0.00  0.00     0.102 A 
ATOM     25  C   UNL d   1      28.153 -11.670   4.418  0.00  0.00     0.103 A 
ATOM     26  C   UNL d   1      27.931 -11.007   3.211  0.00  0.00     0.064 A 
ATOM     27  N   UNL d   1      27.308 -11.145   0.855  0.00  0.00    -0.224 NA
ATOM     28  C   UNL d   1      27.704 -12.017  -0.130  0.00  0.00     0.233 C 
ATOM     29  H   UNL d   1      27.678 -10.210   0.751  0.00  0.00     0.137 HD
ATOM     30  O   UNL d   1      28.730 -11.757  -0.763  0.00  0.00    -0.274 OA
BRANCH  24  31
ATOM     31  O   UNL d   1      27.794 -13.771   5.708  0.00  0.00    -0.353 OA
ATOM     32  C   UNL d   1      28.752 -14.825   5.791  0.00  0.00     0.210 C 
ENDBRANCH  24  31
BRANCH  25  33
ATOM     33  O   UNL d   1      28.762 -11.090   5.493  0.00  0.00    -0.353 OA
ATOM     34  C   UNL d   1      28.726  -9.690   5.679  0.00  0.00     0.210 C 
ENDBRANCH  25  33
ENDBRANCH  18  19
ENDBRANCH   1  18
TORSDOF 11
ENDMDL
MODEL 8
REMARK VINA RESULT:    -7.226      2.887      3.680
REMARK INTER + INTRA:         -13.015
REMARK INTER:                 -10.507
REMARK INTRA:                  -2.507
REMARK CONF_INDEPENDENT:        3.281
REMARK UNBOUND:                -2.507
REMARK  11 active torsions:
REMARK  status: ('A' for Active; 'I' for Inactive)
REMARK    1  A    between atoms: O_2  and  C_3 
REMARK    2  A    between atoms: C_6  and  N_7 
REMARK    3  A    between atoms: N_7  and  C_8 
REMARK    4  A    between atoms: C_8  and  N_10 
REMARK    5  A    between atoms: N_10  and  C_11 
REMARK    6  A    between atoms: N_10  and  C_14 
REMARK    7  A    between atoms: C_11  and  C_12 
REMARK    8  A    between atoms: C_12  and  O_13 
REMARK    9  A    between atoms: C_14  and  C_15 
REMARK   10  A    between atoms: C_19  and  O_20 
REMARK   11  A    between atoms: C_22  and  O_23 
ROOT
ATOM      1  N   UNL d   1      26.889 -15.641  -1.721  0.00  0.00    -0.352 N 
ENDROOT
BRANCH   1   2
ATOM      2  C   UNL d   1      26.847 -16.281  -0.446  0.00  0.00     0.174 C 
ATOM      3  S   UNL d   1      27.822 -15.656   0.797  0.00  0.00    -0.041 SA
BRANCH   2   4
ATOM      4  N   UNL d   1      25.979 -17.383  -0.323  0.00  0.00    -0.333 N 
ATOM      5  H   UNL d   1      26.349 -18.291  -0.197  0.00  0.00     0.168 HD
BRANCH   4   6
ATOM      6  C   UNL d   1      24.577 -17.542  -0.446  0.00  0.00     0.034 A 
ATOM      7  C   UNL d   1      23.994 -18.828  -0.521  0.00  0.00     0.032 A 
ATOM      8  C   UNL d   1      22.612 -18.957  -0.753  0.00  0.00     0.039 A 
ATOM      9  C   UNL d   1      21.807 -17.821  -0.846  0.00  0.00     0.068 A 
ATOM     10  C   UNL d   1      22.390 -16.574  -0.742  0.00  0.00     0.039 A 
ATOM     11  C   UNL d   1      23.742 -16.456  -0.520  0.00  0.00     0.032 A 
BRANCH   9  12
ATOM     12  O   UNL d   1      20.458 -18.004  -0.928  0.00  0.00    -0.356 OA
ATOM     13  C   UNL d   1      20.016 -19.330  -0.645  0.00  0.00     0.210 C 
ENDBRANCH   9  12
ENDBRANCH   4   6
ENDBRANCH   2   4
ENDBRANCH   1   2
BRANCH   1  14
ATOM     14  C   UNL d   1      26.023 -14.575  -2.193  0.00  0.00     0.151 C 
BRANCH  14  15
ATOM     15  C   UNL d   1      24.778 -14.761  -3.028  0.00  0.00     0.183 C 
BRANCH  15  16
ATOM     16  O   UNL d   1      24.698 -13.890  -4.139  0.00  0.00    -0.399 OA
ATOM     17  H   UNL d   1      25.187 -14.310  -4.866  0.00  0.00     0.209 HD
ENDBRANCH  15  16
ENDBRANCH  14  15
ENDBRANCH   1  14
BRANCH   1  18
ATOM     18  C   UNL d   1      27.938 -16.088  -2.727  0.00  0.00     0.169 C 
BRANCH  18  19
ATOM     19  C   UNL d   1      28.143 -15.452  -4.097  0.00  0.00     0.023 C 
ATOM     20  C   UNL d   1      29.342 -14.907  -4.429  0.00  0.00     0.027 C 
ATOM     21  C   UNL d   1      29.516 -14.232  -5.726  0.00  0.00    -0.011 A 
ATOM     22  C   UNL d   1      30.727 -14.152  -6.402  0.00  0.00     0.053 A 
ATOM     23  C   UNL d   1      28.385 -13.623  -6.282  0.00  0.00     0.028 A 
ATOM     24  C   UNL d   1      30.811 -13.424  -7.602  0.00  0.00     0.102 A 
ATOM     25  C   UNL d   1      29.641 -12.887  -8.191  0.00  0.00     0.103 A 
ATOM     26  C   UNL d   1      28.428 -12.961  -7.507  0.00  0.00     0.064 A 
ATOM     27  N   UNL d   1      27.160 -13.865  -5.629  0.00  0.00    -0.224 NA
ATOM     28  C   UNL d   1      27.094 -15.140  -5.118  0.00  0.00     0.233 C 
ATOM     29  H   UNL d   1      26.323 -13.571  -6.112  0.00  0.00     0.137 HD
ATOM     30  O   UNL d   1      26.282 -15.925  -5.610  0.00  0.00    -0.274 OA
BRANCH  24  31
ATOM     31  O   UNL d   1      32.097 -13.296  -8.076  0.00  0.00    -0.353 OA
ATOM     32  C   UNL d   1      32.567 -14.315  -8.956  0.00  0.00     0.210 C 
ENDBRANCH  24  31
BRANCH  25  33
ATOM     33  O   UNL d   1      29.769 -12.355  -9.442  0.00  0.00    -0.353 OA
ATOM     34  C   UNL d   1      30.547 -11.197  -9.661  0.00  0.00     0.210 C 
ENDBRANCH  25  33
ENDBRANCH  18  19
ENDBRANCH   1  18
TORSDOF 11
ENDMDL
MODEL 9
REMARK VINA RESULT:    -6.841      4.400      7.414
REMARK INTER + INTRA:         -12.195
REMARK INTER:                 -10.123
REMARK INTRA:                  -2.072
REMARK CONF_INDEPENDENT:        3.281
REMARK UNBOUND:                -2.072
REMARK  11 active torsions:
REMARK  status: ('A' for Active; 'I' for Inactive)
REMARK    1  A    between atoms: O_2  and  C_3 
REMARK    2  A    between atoms: C_6  and  N_7 
REMARK    3  A    between atoms: N_7  and  C_8 
REMARK    4  A    between atoms: C_8  and  N_10 
REMARK    5  A    between atoms: N_10  and  C_11 
REMARK    6  A    between atoms: N_10  and  C_14 
REMARK    7  A    between atoms: C_11  and  C_12 
REMARK    8  A    between atoms: C_12  and  O_13 
REMARK    9  A    between atoms: C_14  and  C_15 
REMARK   10  A    between atoms: C_19  and  O_20 
REMARK   11  A    between atoms: C_22  and  O_23 
ROOT
ATOM      1  N   UNL d   1      26.780 -15.066  -1.865  0.00  0.00    -0.352 N 
ENDROOT
BRANCH   1   2
ATOM      2  C   UNL d   1      27.000 -16.031  -0.837  0.00  0.00     0.174 C 
ATOM      3  S   UNL d   1      28.578 -16.618  -0.613  0.00  0.00    -0.041 SA
BRANCH   2   4
ATOM      4  N   UNL d   1      25.875 -16.410  -0.079  0.00  0.00    -0.333 N 
ATOM      5  H   UNL d   1      25.883 -16.302   0.903  0.00  0.00     0.168 HD
BRANCH   4   6
ATOM      6  C   UNL d   1      24.658 -17.062  -0.395  0.00  0.00     0.034 A 
ATOM      7  C   UNL d   1      23.487 -16.320  -0.673  0.00  0.00     0.032 A 
ATOM      8  C   UNL d   1      22.266 -16.990  -0.876  0.00  0.00     0.039 A 
ATOM      9  C   UNL d   1      22.221 -18.385  -0.863  0.00  0.00     0.068 A 
ATOM     10  C   UNL d   1      23.380 -19.093  -0.617  0.00  0.00     0.039 A 
ATOM     11  C   UNL d   1      24.568 -18.431  -0.416  0.00  0.00     0.032 A 
BRANCH   9  12
ATOM     12  O   UNL d   1      21.045 -18.985  -1.206  0.00  0.00    -0.356 OA
ATOM     13  C   UNL d   1      20.253 -19.424  -0.103  0.00  0.00     0.210 C 
ENDBRANCH   9  12
ENDBRANCH   4   6
ENDBRANCH   2   4
ENDBRANCH   1   2
BRANCH   1  14
ATOM     14  C   UNL d   1      25.855 -15.170  -2.980  0.00  0.00     0.151 C 
BRANCH  14  15
ATOM     15  C   UNL d   1      24.540 -14.437  -3.100  0.00  0.00     0.183 C 
BRANCH  15  16
ATOM     16  O   UNL d   1      24.304 -13.892  -4.383  0.00  0.00    -0.399 OA
ATOM     17  H   UNL d   1      24.293 -12.926  -4.285  0.00  0.00     0.209 HD
ENDBRANCH  15  16
ENDBRANCH  14  15
ENDBRANCH   1  14
BRANCH   1  18
ATOM     18  C   UNL d   1      27.576 -13.771  -1.831  0.00  0.00     0.169 C 
BRANCH  18  19
ATOM     19  C   UNL d   1      27.161 -12.486  -2.538  0.00  0.00     0.023 C 
ATOM     20  C   UNL d   1      26.981 -11.340  -1.832  0.00  0.00     0.027 C 
ATOM     21  C   UNL d   1      26.511 -10.118  -2.507  0.00  0.00    -0.011 A 
ATOM     22  C   UNL d   1      26.817  -8.832  -2.082  0.00  0.00     0.053 A 
ATOM     23  C   UNL d   1      25.693 -10.287  -3.630  0.00  0.00     0.028 A 
ATOM     24  C   UNL d   1      26.264  -7.725  -2.751  0.00  0.00     0.102 A 
ATOM     25  C   UNL d   1      25.508  -7.913  -3.932  0.00  0.00     0.103 A 
ATOM     26  C   UNL d   1      25.195  -9.205  -4.352  0.00  0.00     0.064 A 
ATOM     27  N   UNL d   1      25.542 -11.607  -4.100  0.00  0.00    -0.224 NA
ATOM     28  C   UNL d   1      26.696 -12.339  -3.953  0.00  0.00     0.233 C 
ATOM     29  H   UNL d   1      25.094 -11.719  -4.999  0.00  0.00     0.137 HD
ATOM     30  O   UNL d   1      27.293 -12.699  -4.970  0.00  0.00    -0.274 OA
BRANCH  24  31
ATOM     31  O   UNL d   1      26.521  -6.524  -2.127  0.00  0.00    -0.353 OA
ATOM     32  C   UNL d   1      25.550  -6.060  -1.192  0.00  0.00     0.210 C 
ENDBRANCH  24  31
BRANCH  25  33
ATOM     33  O   UNL d   1      25.160  -6.791  -4.627  0.00  0.00    -0.353 OA
ATOM     34  C   UNL d   1      23.846  -6.620  -5.117  0.00  0.00     0.210 C 
ENDBRANCH  25  33
ENDBRANCH  18  19
ENDBRANCH   1  18
TORSDOF 11
ENDMDL
