MODEL 1
REMARK VINA RESULT:    -6.640      0.000      0.000
REMARK INTER + INTRA:         -14.410
REMARK INTER:                 -10.220
REMARK INTRA:                  -4.191
REMARK CONF_INDEPENDENT:        3.580
REMARK UNBOUND:                -4.191
REMARK  12 active torsions:
REMARK  status: ('A' for Active; 'I' for Inactive)
REMARK    1  A    between atoms: O_2  and  C_3 
REMARK    2  A    between atoms: C_5  and  C_6 
REMARK    3  A    between atoms: C_6  and  C_7 
REMARK    4  A    between atoms: C_6  and  N_18 
REMARK       I    between atoms: C_7  and  N_9 
REMARK    5  A    between atoms: N_9  and  C_10 
REMARK    6  A    between atoms: C_10  and  C_13 
REMARK    7  A    between atoms: C_13  and  C_14 
REMARK       I    between atoms: N_18  and  C_19 
REMARK    8  A    between atoms: N_18  and  C_29 
REMARK    9  A    between atoms: C_19  and  C_21 
REMARK   10  A    between atoms: C_22  and  O_23 
REMARK   11  A    between atoms: C_27  and  O_28 
REMARK   12  A    between atoms: C_35  and  O_36 
ROOT
ATOM      1  C   UNL d   1      26.759 -16.680  -0.227  0.00  0.00     0.213 C 
ENDROOT
BRANCH   1   2
ATOM      2  C   UNL d   1      28.067 -16.775  -0.972  0.00  0.00    -0.023 C 
ATOM      3  C   UNL d   1      28.441 -16.171  -2.190  0.00  0.00     0.049 C 
ATOM      4  C   UNL d   1      29.741 -16.329  -2.700  0.00  0.00     0.101 C 
ATOM      5  C   UNL d   1      30.665 -16.975  -1.916  0.00  0.00     0.099 C 
ATOM      6  C   UNL d   1      30.184 -17.760  -0.910  0.00  0.00     0.040 C 
ATOM      7  C   UNL d   1      28.869 -17.789  -0.533  0.00  0.00     0.012 C 
BRANCH   4   8
ATOM      8  O   UNL d   1      30.021 -15.770  -3.913  0.00  0.00    -0.353 OA
ATOM      9  C   UNL d   1      30.040 -16.710  -4.992  0.00  0.00     0.210 C 
ENDBRANCH   4   8
BRANCH   5  10
ATOM     10  O   UNL d   1      32.003 -16.773  -2.086  0.00  0.00    -0.358 OA
ATOM     11  H   UNL d   1      32.276 -16.291  -2.873  0.00  0.00     0.217 HD
ENDBRANCH   5  10
ENDBRANCH   1   2
BRANCH   1  12
ATOM     12  C   UNL d   1      27.128 -15.494   0.660  0.00  0.00     0.245 C 
ATOM     13  O   UNL d   1      26.368 -14.497   0.699  0.00  0.00    -0.271 OA
ATOM     14  N   UNL d   1      28.391 -15.451   1.223  0.00  0.00    -0.351 N 
ATOM     15  H   UNL d   1      29.106 -16.116   0.958  0.00  0.00     0.163 HD
BRANCH  14  16
ATOM     16  C   UNL d   1      28.795 -14.276   1.984  0.00  0.00     0.026 C 
ATOM     17  C   UNL d   1      30.251 -14.452   2.476  0.00  0.00     0.038 C 
ATOM     18  C   UNL d   1      28.633 -13.149   0.959  0.00  0.00     0.038 C 
BRANCH  16  19
ATOM     19  C   UNL d   1      27.853 -14.083   3.229  0.00  0.00     0.038 C 
BRANCH  19  20
ATOM     20  C   UNL d   1      28.503 -13.562   4.561  0.00  0.00    -0.049 C 
ATOM     21  C   UNL d   1      29.311 -14.638   5.303  0.00  0.00     0.014 C 
ATOM     22  C   UNL d   1      29.382 -12.326   4.333  0.00  0.00     0.014 C 
ATOM     23  C   UNL d   1      27.407 -13.123   5.542  0.00  0.00     0.014 C 
ENDBRANCH  19  20
ENDBRANCH  16  19
ENDBRANCH  14  16
ENDBRANCH   1  12
BRANCH   1  24
ATOM     24  N   UNL d   1      25.404 -16.419  -1.091  0.00  0.00    -0.322 N 
ATOM     25  C   UNL d   1      25.165 -15.445  -2.203  0.00  0.00     0.261 C 
ATOM     26  O   UNL d   1      24.038 -15.205  -2.652  0.00  0.00    -0.267 OA
BRANCH  25  27
ATOM     27  C   UNL d   1      26.181 -14.611  -2.964  0.00  0.00     0.098 A 
ATOM     28  C   UNL d   1      26.716 -13.418  -2.460  0.00  0.00     0.084 A 
ATOM     29  C   UNL d   1      27.427 -12.542  -3.313  0.00  0.00     0.038 A 
ATOM     30  C   UNL d   1      27.686 -12.873  -4.667  0.00  0.00     0.005 A 
ATOM     31  C   UNL d   1      27.183 -14.069  -5.197  0.00  0.00     0.038 A 
ATOM     32  C   UNL d   1      26.447 -14.931  -4.349  0.00  0.00     0.084 A 
BRANCH  28  33
ATOM     33  O   UNL d   1      26.368 -12.910  -1.233  0.00  0.00    -0.360 OA
ATOM     34  H   UNL d   1      26.083 -13.648  -0.664  0.00  0.00     0.217 HD
ENDBRANCH  28  33
BRANCH  32  35
ATOM     35  O   UNL d   1      25.695 -15.913  -4.965  0.00  0.00    -0.360 OA
ATOM     36  H   UNL d   1      24.965 -16.228  -4.405  0.00  0.00     0.217 HD
ENDBRANCH  32  35
ENDBRANCH  25  27
BRANCH  24  37
ATOM     37  C   UNL d   1      24.159 -17.294  -0.634  0.00  0.00     0.026 C 
ATOM     38  C   UNL d   1      22.999 -16.344  -0.290  0.00  0.00     0.037 C 
ATOM     39  C   UNL d   1      23.563 -18.306  -1.654  0.00  0.00     0.037 C 
ATOM     40  C   UNL d   1      24.416 -18.198   0.588  0.00  0.00     0.037 C 
ENDBRANCH  24  37
ENDBRANCH   1  24
TORSDOF 12
ENDMDL
MODEL 2
REMARK VINA RESULT:    -6.371      1.084      1.730
REMARK INTER + INTRA:         -14.557
REMARK INTER:                  -9.951
REMARK INTRA:                  -4.606
REMARK CONF_INDEPENDENT:        3.580
REMARK UNBOUND:                -4.606
REMARK  12 active torsions:
REMARK  status: ('A' for Active; 'I' for Inactive)
REMARK    1  A    between atoms: O_2  and  C_3 
REMARK    2  A    between atoms: C_5  and  C_6 
REMARK    3  A    between atoms: C_6  and  C_7 
REMARK    4  A    between atoms: C_6  and  N_18 
REMARK       I    between atoms: C_7  and  N_9 
REMARK    5  A    between atoms: N_9  and  C_10 
REMARK    6  A    between atoms: C_10  and  C_13 
REMARK    7  A    between atoms: C_13  and  C_14 
REMARK       I    between atoms: N_18  and  C_19 
REMARK    8  A    between atoms: N_18  and  C_29 
REMARK    9  A    between atoms: C_19  and  C_21 
REMARK   10  A    between atoms: C_22  and  O_23 
REMARK   11  A    between atoms: C_27  and  O_28 
REMARK   12  A    between atoms: C_35  and  O_36 
ROOT
ATOM      1  C   UNL d   1      26.927 -16.178  -0.177  0.00  0.00     0.213 C 
ENDROOT
BRANCH   1   2
ATOM      2  C   UNL d   1      28.336 -16.192  -0.715  0.00  0.00    -0.023 C 
ATOM      3  C   UNL d   1      29.091 -15.129  -1.252  0.00  0.00     0.049 C 
ATOM      4  C   UNL d   1      30.425 -15.327  -1.649  0.00  0.00     0.101 C 
ATOM      5  C   UNL d   1      31.005 -16.541  -1.376  0.00  0.00     0.099 C 
ATOM      6  C   UNL d   1      30.165 -17.586  -1.124  0.00  0.00     0.040 C 
ATOM      7  C   UNL d   1      28.815 -17.449  -0.950  0.00  0.00     0.012 C 
BRANCH   4   8
ATOM      8  O   UNL d   1      31.082 -14.274  -2.218  0.00  0.00    -0.353 OA
ATOM      9  C   UNL d   1      31.287 -13.171  -1.329  0.00  0.00     0.210 C 
ENDBRANCH   4   8
BRANCH   5  10
ATOM     10  O   UNL d   1      32.359 -16.674  -1.280  0.00  0.00    -0.358 OA
ATOM     11  H   UNL d   1      32.893 -15.918  -1.540  0.00  0.00     0.217 HD
ENDBRANCH   5  10
ENDBRANCH   1   2
BRANCH   1  12
ATOM     12  C   UNL d   1      27.057 -14.916   0.672  0.00  0.00     0.245 C 
ATOM     13  O   UNL d   1      26.405 -13.893   0.354  0.00  0.00    -0.271 OA
ATOM     14  N   UNL d   1      28.053 -14.859   1.631  0.00  0.00    -0.351 N 
ATOM     15  H   UNL d   1      28.765 -15.575   1.691  0.00  0.00     0.163 HD
BRANCH  14  16
ATOM     16  C   UNL d   1      28.258 -13.623   2.376  0.00  0.00     0.026 C 
ATOM     17  C   UNL d   1      28.775 -12.521   1.420  0.00  0.00     0.038 C 
ATOM     18  C   UNL d   1      26.858 -13.337   2.929  0.00  0.00     0.038 C 
BRANCH  16  19
ATOM     19  C   UNL d   1      29.313 -13.846   3.521  0.00  0.00     0.038 C 
BRANCH  19  20
ATOM     20  C   UNL d   1      28.771 -14.034   4.984  0.00  0.00    -0.049 C 
ATOM     21  C   UNL d   1      28.134 -12.762   5.563  0.00  0.00     0.014 C 
ATOM     22  C   UNL d   1      27.780 -15.200   5.090  0.00  0.00     0.014 C 
ATOM     23  C   UNL d   1      29.929 -14.380   5.931  0.00  0.00     0.014 C 
ENDBRANCH  19  20
ENDBRANCH  16  19
ENDBRANCH  14  16
ENDBRANCH   1  12
BRANCH   1  24
ATOM     24  N   UNL d   1      25.702 -16.091  -1.244  0.00  0.00    -0.322 N 
ATOM     25  C   UNL d   1      25.570 -15.233  -2.465  0.00  0.00     0.261 C 
ATOM     26  O   UNL d   1      24.509 -15.115  -3.090  0.00  0.00    -0.267 OA
BRANCH  25  27
ATOM     27  C   UNL d   1      26.633 -14.390  -3.147  0.00  0.00     0.098 A 
ATOM     28  C   UNL d   1      26.998 -13.115  -2.697  0.00  0.00     0.084 A 
ATOM     29  C   UNL d   1      27.774 -12.264  -3.520  0.00  0.00     0.038 A 
ATOM     30  C   UNL d   1      28.266 -12.697  -4.777  0.00  0.00     0.005 A 
ATOM     31  C   UNL d   1      27.937 -13.975  -5.248  0.00  0.00     0.038 A 
ATOM     32  C   UNL d   1      27.137 -14.814  -4.435  0.00  0.00     0.084 A 
BRANCH  28  33
ATOM     33  O   UNL d   1      26.426 -12.525  -1.596  0.00  0.00    -0.360 OA
ATOM     34  H   UNL d   1      26.894 -12.840  -0.801  0.00  0.00     0.217 HD
ENDBRANCH  28  33
BRANCH  32  35
ATOM     35  O   UNL d   1      26.561 -15.909  -5.050  0.00  0.00    -0.360 OA
ATOM     36  H   UNL d   1      25.684 -16.119  -4.689  0.00  0.00     0.217 HD
ENDBRANCH  32  35
ENDBRANCH  25  27
BRANCH  24  37
ATOM     37  C   UNL d   1      24.459 -17.016  -0.891  0.00  0.00     0.026 C 
ATOM     38  C   UNL d   1      24.821 -17.868   0.338  0.00  0.00     0.037 C 
ATOM     39  C   UNL d   1      23.116 -16.325  -0.520  0.00  0.00     0.037 C 
ATOM     40  C   UNL d   1      24.018 -17.968  -2.020  0.00  0.00     0.037 C 
ENDBRANCH  24  37
ENDBRANCH   1  24
TORSDOF 12
ENDMDL
MODEL 3
REMARK VINA RESULT:    -5.897      2.178      6.566
REMARK INTER + INTRA:         -14.300
REMARK INTER:                  -9.476
REMARK INTRA:                  -4.824
REMARK CONF_INDEPENDENT:        3.580
REMARK UNBOUND:                -4.824
REMARK  12 active torsions:
REMARK  status: ('A' for Active; 'I' for Inactive)
REMARK    1  A    between atoms: O_2  and  C_3 
REMARK    2  A    between atoms: C_5  and  C_6 
REMARK    3  A    between atoms: C_6  and  C_7 
REMARK    4  A    between atoms: C_6  and  N_18 
REMARK       I    between atoms: C_7  and  N_9 
REMARK    5  A    between atoms: N_9  and  C_10 
REMARK    6  A    between atoms: C_10  and  C_13 
REMARK    7  A    between atoms: C_13  and  C_14 
REMARK       I    between atoms: N_18  and  C_19 
REMARK    8  A    between atoms: N_18  and  C_29 
REMARK    9  A    between atoms: C_19  and  C_21 
REMARK   10  A    between atoms: C_22  and  O_23 
REMARK   11  A    between atoms: C_27  and  O_28 
REMARK   12  A    between atoms: C_35  and  O_36 
ROOT
ATOM      1  C   UNL d   1      27.983 -15.906  -2.819  0.00  0.00     0.213 C 
ENDROOT
BRANCH   1   2
ATOM      2  C   UNL d   1      26.997 -16.378  -1.779  0.00  0.00    -0.023 C 
ATOM      3  C   UNL d   1      25.628 -16.064  -1.646  0.00  0.00     0.049 C 
ATOM      4  C   UNL d   1      24.852 -16.657  -0.637  0.00  0.00     0.101 C 
ATOM      5  C   UNL d   1      25.429 -17.643   0.125  0.00  0.00     0.099 C 
ATOM      6  C   UNL d   1      26.792 -17.697   0.138  0.00  0.00     0.040 C 
ATOM      7  C   UNL d   1      27.588 -16.957  -0.694  0.00  0.00     0.012 C 
BRANCH   4   8
ATOM      8  O   UNL d   1      23.549 -16.265  -0.523  0.00  0.00    -0.353 OA
ATOM      9  C   UNL d   1      22.606 -17.278  -0.888  0.00  0.00     0.210 C 
ENDBRANCH   4   8
BRANCH   5  10
ATOM     10  O   UNL d   1      24.672 -18.575   0.771  0.00  0.00    -0.358 OA
ATOM     11  H   UNL d   1      23.728 -18.403   0.835  0.00  0.00     0.217 HD
ENDBRANCH   5  10
ENDBRANCH   1   2
BRANCH   1  12
ATOM     12  C   UNL d   1      26.996 -15.112  -3.673  0.00  0.00     0.245 C 
ATOM     13  O   UNL d   1      26.663 -15.556  -4.797  0.00  0.00    -0.271 OA
ATOM     14  N   UNL d   1      26.668 -13.825  -3.287  0.00  0.00    -0.351 N 
ATOM     15  H   UNL d   1      27.160 -13.362  -2.533  0.00  0.00     0.163 HD
BRANCH  14  16
ATOM     16  C   UNL d   1      25.812 -13.017  -4.146  0.00  0.00     0.026 C 
ATOM     17  C   UNL d   1      26.497 -12.815  -5.519  0.00  0.00     0.038 C 
ATOM     18  C   UNL d   1      24.536 -13.861  -4.224  0.00  0.00     0.038 C 
BRANCH  16  19
ATOM     19  C   UNL d   1      25.552 -11.611  -3.490  0.00  0.00     0.038 C 
BRANCH  19  20
ATOM     20  C   UNL d   1      26.705 -10.547  -3.569  0.00  0.00    -0.049 C 
ATOM     21  C   UNL d   1      28.108 -11.163  -3.464  0.00  0.00     0.014 C 
ATOM     22  C   UNL d   1      26.615  -9.686  -4.835  0.00  0.00     0.014 C 
ATOM     23  C   UNL d   1      26.597  -9.570  -2.389  0.00  0.00     0.014 C 
ENDBRANCH  19  20
ENDBRANCH  16  19
ENDBRANCH  14  16
ENDBRANCH   1  12
BRANCH   1  24
ATOM     24  N   UNL d   1      29.246 -15.008  -2.324  0.00  0.00    -0.322 N 
ATOM     25  C   UNL d   1      29.367 -14.131  -1.116  0.00  0.00     0.261 C 
ATOM     26  O   UNL d   1      30.309 -13.348  -0.948  0.00  0.00    -0.267 OA
BRANCH  25  27
ATOM     27  C   UNL d   1      28.431 -14.028   0.075  0.00  0.00     0.098 A 
ATOM     28  C   UNL d   1      27.304 -13.194   0.088  0.00  0.00     0.084 A 
ATOM     29  C   UNL d   1      26.637 -12.918   1.305  0.00  0.00     0.038 A 
ATOM     30  C   UNL d   1      27.031 -13.529   2.521  0.00  0.00     0.005 A 
ATOM     31  C   UNL d   1      28.140 -14.385   2.540  0.00  0.00     0.038 A 
ATOM     32  C   UNL d   1      28.824 -14.638   1.326  0.00  0.00     0.084 A 
BRANCH  28  33
ATOM     33  O   UNL d   1      26.954 -12.406  -0.981  0.00  0.00    -0.360 OA
ATOM     34  H   UNL d   1      26.797 -11.501  -0.657  0.00  0.00     0.217 HD
ENDBRANCH  28  33
BRANCH  32  35
ATOM     35  O   UNL d   1      30.082 -15.200   1.428  0.00  0.00    -0.360 OA
ATOM     36  H   UNL d   1      30.053 -16.124   1.730  0.00  0.00     0.217 HD
ENDBRANCH  32  35
ENDBRANCH  25  27
BRANCH  24  37
ATOM     37  C   UNL d   1      30.495 -15.040  -3.305  0.00  0.00     0.026 C 
ATOM     38  C   UNL d   1      30.672 -13.637  -3.911  0.00  0.00     0.037 C 
ATOM     39  C   UNL d   1      31.885 -15.399  -2.707  0.00  0.00     0.037 C 
ATOM     40  C   UNL d   1      30.384 -16.051  -4.462  0.00  0.00     0.037 C 
ENDBRANCH  24  37
ENDBRANCH   1  24
TORSDOF 12
ENDMDL
MODEL 4
REMARK VINA RESULT:    -5.878      1.246      1.772
REMARK INTER + INTRA:         -14.235
REMARK INTER:                  -9.457
REMARK INTRA:                  -4.778
REMARK CONF_INDEPENDENT:        3.580
REMARK UNBOUND:                -4.778
REMARK  12 active torsions:
REMARK  status: ('A' for Active; 'I' for Inactive)
REMARK    1  A    between atoms: O_2  and  C_3 
REMARK    2  A    between atoms: C_5  and  C_6 
REMARK    3  A    between atoms: C_6  and  C_7 
REMARK    4  A    between atoms: C_6  and  N_18 
REMARK       I    between atoms: C_7  and  N_9 
REMARK    5  A    between atoms: N_9  and  C_10 
REMARK    6  A    between atoms: C_10  and  C_13 
REMARK    7  A    between atoms: C_13  and  C_14 
REMARK       I    between atoms: N_18  and  C_19 
REMARK    8  A    between atoms: N_18  and  C_29 
REMARK    9  A    between atoms: C_19  and  C_21 
REMARK   10  A    between atoms: C_22  and  O_23 
REMARK   11  A    between atoms: C_27  and  O_28 
REMARK   12  A    between atoms: C_35  and  O_36 
ROOT
ATOM      1  C   UNL d   1      27.139 -16.271  -0.524  0.00  0.00     0.213 C 
ENDROOT
BRANCH   1   2
ATOM      2  C   UNL d   1      28.470 -16.295  -1.234  0.00  0.00    -0.023 C 
ATOM      3  C   UNL d   1      28.761 -16.677  -2.560  0.00  0.00     0.049 C 
ATOM      4  C   UNL d   1      30.068 -16.572  -3.066  0.00  0.00     0.101 C 
ATOM      5  C   UNL d   1      31.016 -15.966  -2.278  0.00  0.00     0.099 C 
ATOM      6  C   UNL d   1      30.750 -15.882  -0.943  0.00  0.00     0.040 C 
ATOM      7  C   UNL d   1      29.537 -16.192  -0.390  0.00  0.00     0.012 C 
BRANCH   4   8
ATOM      8  O   UNL d   1      30.297 -17.015  -4.336  0.00  0.00    -0.353 OA
ATOM      9  C   UNL d   1      30.192 -15.993  -5.333  0.00  0.00     0.210 C 
ENDBRANCH   4   8
BRANCH   5  10
ATOM     10  O   UNL d   1      32.133 -15.403  -2.820  0.00  0.00    -0.358 OA
ATOM     11  H   UNL d   1      32.321 -15.603  -3.742  0.00  0.00     0.217 HD
ENDBRANCH   5  10
ENDBRANCH   1   2
BRANCH   1  12
ATOM     12  C   UNL d   1      27.405 -15.042   0.341  0.00  0.00     0.245 C 
ATOM     13  O   UNL d   1      27.607 -13.935  -0.212  0.00  0.00    -0.271 OA
ATOM     14  N   UNL d   1      27.637 -15.217   1.694  0.00  0.00    -0.351 N 
ATOM     15  H   UNL d   1      27.759 -16.140   2.090  0.00  0.00     0.163 HD
BRANCH  14  16
ATOM     16  C   UNL d   1      27.997 -14.067   2.513  0.00  0.00     0.026 C 
ATOM     17  C   UNL d   1      27.957 -14.461   4.009  0.00  0.00     0.038 C 
ATOM     18  C   UNL d   1      29.407 -13.735   2.012  0.00  0.00     0.038 C 
BRANCH  16  19
ATOM     19  C   UNL d   1      26.988 -12.885   2.266  0.00  0.00     0.038 C 
BRANCH  19  20
ATOM     20  C   UNL d   1      27.546 -11.420   2.359  0.00  0.00    -0.049 C 
ATOM     21  C   UNL d   1      28.424 -11.182   3.597  0.00  0.00     0.014 C 
ATOM     22  C   UNL d   1      28.316 -11.011   1.097  0.00  0.00     0.014 C 
ATOM     23  C   UNL d   1      26.384 -10.424   2.483  0.00  0.00     0.014 C 
ENDBRANCH  19  20
ENDBRANCH  16  19
ENDBRANCH  14  16
ENDBRANCH   1  12
BRANCH   1  24
ATOM     24  N   UNL d   1      25.793 -16.123  -1.426  0.00  0.00    -0.322 N 
ATOM     25  C   UNL d   1      25.531 -15.222  -2.593  0.00  0.00     0.261 C 
ATOM     26  O   UNL d   1      24.404 -15.061  -3.076  0.00  0.00    -0.267 OA
BRANCH  25  27
ATOM     27  C   UNL d   1      26.522 -14.379  -3.378  0.00  0.00     0.098 A 
ATOM     28  C   UNL d   1      26.935 -13.106  -2.963  0.00  0.00     0.084 A 
ATOM     29  C   UNL d   1      27.625 -12.255  -3.858  0.00  0.00     0.038 A 
ATOM     30  C   UNL d   1      27.985 -12.684  -5.160  0.00  0.00     0.005 A 
ATOM     31  C   UNL d   1      27.605 -13.960  -5.599  0.00  0.00     0.038 A 
ATOM     32  C   UNL d   1      26.890 -14.800  -4.712  0.00  0.00     0.084 A 
BRANCH  28  33
ATOM     33  O   UNL d   1      26.481 -12.520  -1.807  0.00  0.00    -0.360 OA
ATOM     34  H   UNL d   1      26.384 -13.212  -1.128  0.00  0.00     0.217 HD
ENDBRANCH  28  33
BRANCH  32  35
ATOM     35  O   UNL d   1      26.251 -15.890  -5.269  0.00  0.00    -0.360 OA
ATOM     36  H   UNL d   1      25.354 -16.015  -4.917  0.00  0.00     0.217 HD
ENDBRANCH  32  35
ENDBRANCH  25  27
BRANCH  24  37
ATOM     37  C   UNL d   1      24.582 -17.032  -0.947  0.00  0.00     0.026 C 
ATOM     38  C   UNL d   1      25.050 -17.874   0.253  0.00  0.00     0.037 C 
ATOM     39  C   UNL d   1      23.284 -16.325  -0.462  0.00  0.00     0.037 C 
ATOM     40  C   UNL d   1      24.030 -17.993  -2.019  0.00  0.00     0.037 C 
ENDBRANCH  24  37
ENDBRANCH   1  24
TORSDOF 12
ENDMDL
MODEL 5
REMARK VINA RESULT:    -5.586      1.523      2.485
REMARK INTER + INTRA:         -14.099
REMARK INTER:                  -9.166
REMARK INTRA:                  -4.933
REMARK CONF_INDEPENDENT:        3.580
REMARK UNBOUND:                -4.933
REMARK  12 active torsions:
REMARK  status: ('A' for Active; 'I' for Inactive)
REMARK    1  A    between atoms: O_2  and  C_3 
REMARK    2  A    between atoms: C_5  and  C_6 
REMARK    3  A    between atoms: C_6  and  C_7 
REMARK    4  A    between atoms: C_6  and  N_18 
REMARK       I    between atoms: C_7  and  N_9 
REMARK    5  A    between atoms: N_9  and  C_10 
REMARK    6  A    between atoms: C_10  and  C_13 
REMARK    7  A    between atoms: C_13  and  C_14 
REMARK       I    between atoms: N_18  and  C_19 
REMARK    8  A    between atoms: N_18  and  C_29 
REMARK    9  A    between atoms: C_19  and  C_21 
REMARK   10  A    between atoms: C_22  and  O_23 
REMARK   11  A    between atoms: C_27  and  O_28 
REMARK   12  A    between atoms: C_35  and  O_36 
ROOT
ATOM      1  C   UNL d   1      27.615 -16.217  -1.513  0.00  0.00     0.213 C 
ENDROOT
BRANCH   1   2
ATOM      2  C   UNL d   1      28.641 -15.707  -2.495  0.00  0.00    -0.023 C 
ATOM      3  C   UNL d   1      29.181 -16.349  -3.629  0.00  0.00     0.049 C 
ATOM      4  C   UNL d   1      30.090 -15.681  -4.466  0.00  0.00     0.101 C 
ATOM      5  C   UNL d   1      30.332 -14.351  -4.222  0.00  0.00     0.099 C 
ATOM      6  C   UNL d   1      30.013 -13.880  -2.982  0.00  0.00     0.040 C 
ATOM      7  C   UNL d   1      29.309 -14.601  -2.056  0.00  0.00     0.012 C 
BRANCH   4   8
ATOM      8  O   UNL d   1      30.623 -16.377  -5.512  0.00  0.00    -0.353 OA
ATOM      9  C   UNL d   1      30.391 -17.788  -5.445  0.00  0.00     0.210 C 
ENDBRANCH   4   8
BRANCH   5  10
ATOM     10  O   UNL d   1      30.794 -13.523  -5.202  0.00  0.00    -0.358 OA
ATOM     11  H   UNL d   1      31.113 -13.937  -6.010  0.00  0.00     0.217 HD
ENDBRANCH   5  10
ENDBRANCH   1   2
BRANCH   1  12
ATOM     12  C   UNL d   1      28.087 -15.411  -0.306  0.00  0.00     0.245 C 
ATOM     13  O   UNL d   1      28.959 -15.896   0.453  0.00  0.00    -0.271 OA
ATOM     14  N   UNL d   1      27.388 -14.270   0.047  0.00  0.00    -0.351 N 
ATOM     15  H   UNL d   1      26.508 -14.036  -0.396  0.00  0.00     0.163 HD
BRANCH  14  16
ATOM     16  C   UNL d   1      27.760 -13.549   1.257  0.00  0.00     0.026 C 
ATOM     17  C   UNL d   1      29.173 -12.941   1.085  0.00  0.00     0.038 C 
ATOM     18  C   UNL d   1      26.655 -12.492   1.362  0.00  0.00     0.038 C 
BRANCH  16  19
ATOM     19  C   UNL d   1      27.766 -14.523   2.492  0.00  0.00     0.038 C 
BRANCH  19  20
ATOM     20  C   UNL d   1      28.388 -13.994   3.834  0.00  0.00    -0.049 C 
ATOM     21  C   UNL d   1      29.906 -14.211   3.926  0.00  0.00     0.014 C 
ATOM     22  C   UNL d   1      28.065 -12.515   4.080  0.00  0.00     0.014 C 
ATOM     23  C   UNL d   1      27.792 -14.758   5.025  0.00  0.00     0.014 C 
ENDBRANCH  19  20
ENDBRANCH  16  19
ENDBRANCH  14  16
ENDBRANCH   1  12
BRANCH   1  24
ATOM     24  N   UNL d   1      26.043 -15.974  -1.854  0.00  0.00    -0.322 N 
ATOM     25  C   UNL d   1      25.415 -14.935  -2.731  0.00  0.00     0.261 C 
ATOM     26  O   UNL d   1      24.196 -14.729  -2.759  0.00  0.00    -0.267 OA
BRANCH  25  27
ATOM     27  C   UNL d   1      26.091 -13.985  -3.704  0.00  0.00     0.098 A 
ATOM     28  C   UNL d   1      26.500 -14.374  -4.987  0.00  0.00     0.084 A 
ATOM     29  C   UNL d   1      27.371 -13.549  -5.737  0.00  0.00     0.038 A 
ATOM     30  C   UNL d   1      27.789 -12.282  -5.257  0.00  0.00     0.005 A 
ATOM     31  C   UNL d   1      27.380 -11.853  -3.987  0.00  0.00     0.038 A 
ATOM     32  C   UNL d   1      26.532 -12.694  -3.226  0.00  0.00     0.084 A 
BRANCH  28  33
ATOM     33  O   UNL d   1      26.317 -15.648  -5.469  0.00  0.00    -0.360 OA
ATOM     34  H   UNL d   1      25.581 -16.058  -4.980  0.00  0.00     0.217 HD
ENDBRANCH  28  33
BRANCH  32  35
ATOM     35  O   UNL d   1      26.421 -12.407  -1.879  0.00  0.00    -0.360 OA
ATOM     36  H   UNL d   1      25.702 -12.902  -1.451  0.00  0.00     0.217 HD
ENDBRANCH  32  35
ENDBRANCH  25  27
BRANCH  24  37
ATOM     37  C   UNL d   1      25.050 -16.954  -1.094  0.00  0.00     0.026 C 
ATOM     38  C   UNL d   1      25.881 -17.892  -0.201  0.00  0.00     0.037 C 
ATOM     39  C   UNL d   1      23.989 -16.328  -0.145  0.00  0.00     0.037 C 
ATOM     40  C   UNL d   1      24.170 -17.824  -2.013  0.00  0.00     0.037 C 
ENDBRANCH  24  37
ENDBRANCH   1  24
TORSDOF 12
ENDMDL
MODEL 6
REMARK VINA RESULT:    -5.531      2.202      6.819
REMARK INTER + INTRA:         -13.944
REMARK INTER:                  -9.111
REMARK INTRA:                  -4.833
REMARK CONF_INDEPENDENT:        3.580
REMARK UNBOUND:                -4.833
REMARK  12 active torsions:
REMARK  status: ('A' for Active; 'I' for Inactive)
REMARK    1  A    between atoms: O_2  and  C_3 
REMARK    2  A    between atoms: C_5  and  C_6 
REMARK    3  A    between atoms: C_6  and  C_7 
REMARK    4  A    between atoms: C_6  and  N_18 
REMARK       I    between atoms: C_7  and  N_9 
REMARK    5  A    between atoms: N_9  and  C_10 
REMARK    6  A    between atoms: C_10  and  C_13 
REMARK    7  A    between atoms: C_13  and  C_14 
REMARK       I    between atoms: N_18  and  C_19 
REMARK    8  A    between atoms: N_18  and  C_29 
REMARK    9  A    between atoms: C_19  and  C_21 
REMARK   10  A    between atoms: C_22  and  O_23 
REMARK   11  A    between atoms: C_27  and  O_28 
REMARK   12  A    between atoms: C_35  and  O_36 
ROOT
ATOM      1  C   UNL d   1      28.182 -15.967  -3.102  0.00  0.00     0.213 C 
ENDROOT
BRANCH   1   2
ATOM      2  C   UNL d   1      27.251 -16.421  -2.005  0.00  0.00    -0.023 C 
ATOM      3  C   UNL d   1      25.904 -16.067  -1.781  0.00  0.00     0.049 C 
ATOM      4  C   UNL d   1      25.176 -16.648  -0.729  0.00  0.00     0.101 C 
ATOM      5  C   UNL d   1      25.770 -17.659  -0.016  0.00  0.00     0.099 C 
ATOM      6  C   UNL d   1      27.129 -17.754  -0.091  0.00  0.00     0.040 C 
ATOM      7  C   UNL d   1      27.892 -17.030  -0.966  0.00  0.00     0.012 C 
BRANCH   4   8
ATOM      8  O   UNL d   1      23.896 -16.218  -0.527  0.00  0.00    -0.353 OA
ATOM      9  C   UNL d   1      22.905 -17.226  -0.750  0.00  0.00     0.210 C 
ENDBRANCH   4   8
BRANCH   5  10
ATOM     10  O   UNL d   1      25.028 -18.575   0.669  0.00  0.00    -0.358 OA
ATOM     11  H   UNL d   1      24.472 -19.164   0.150  0.00  0.00     0.217 HD
ENDBRANCH   5  10
ENDBRANCH   1   2
BRANCH   1  12
ATOM     12  C   UNL d   1      27.168 -15.134  -3.882  0.00  0.00     0.245 C 
ATOM     13  O   UNL d   1      26.716 -15.575  -4.966  0.00  0.00    -0.271 OA
ATOM     14  N   UNL d   1      26.942 -13.825  -3.494  0.00  0.00    -0.351 N 
ATOM     15  H   UNL d   1      27.520 -13.378  -2.794  0.00  0.00     0.163 HD
BRANCH  14  16
ATOM     16  C   UNL d   1      26.057 -12.985  -4.291  0.00  0.00     0.026 C 
ATOM     17  C   UNL d   1      24.669 -13.658  -4.408  0.00  0.00     0.038 C 
ATOM     18  C   UNL d   1      26.032 -11.681  -3.489  0.00  0.00     0.038 C 
BRANCH  16  19
ATOM     19  C   UNL d   1      26.653 -12.782  -5.733  0.00  0.00     0.038 C 
BRANCH  19  20
ATOM     20  C   UNL d   1      28.197 -12.522  -5.854  0.00  0.00    -0.049 C 
ATOM     21  C   UNL d   1      28.558 -11.523  -6.963  0.00  0.00     0.014 C 
ATOM     22  C   UNL d   1      28.813 -12.062  -4.527  0.00  0.00     0.014 C 
ATOM     23  C   UNL d   1      28.921 -13.824  -6.224  0.00  0.00     0.014 C 
ENDBRANCH  19  20
ENDBRANCH  16  19
ENDBRANCH  14  16
ENDBRANCH   1  12
BRANCH   1  24
ATOM     24  N   UNL d   1      29.502 -15.114  -2.680  0.00  0.00    -0.322 N 
ATOM     25  C   UNL d   1      29.659 -14.085  -1.603  0.00  0.00     0.261 C 
ATOM     26  O   UNL d   1      30.660 -13.366  -1.504  0.00  0.00    -0.267 OA
BRANCH  25  27
ATOM     27  C   UNL d   1      28.696 -13.736  -0.481  0.00  0.00     0.098 A 
ATOM     28  C   UNL d   1      27.913 -12.574  -0.484  0.00  0.00     0.084 A 
ATOM     29  C   UNL d   1      27.258 -12.155   0.698  0.00  0.00     0.038 A 
ATOM     30  C   UNL d   1      27.306 -12.927   1.886  0.00  0.00     0.005 A 
ATOM     31  C   UNL d   1      28.062 -14.106   1.916  0.00  0.00     0.038 A 
ATOM     32  C   UNL d   1      28.741 -14.509   0.741  0.00  0.00     0.084 A 
BRANCH  28  33
ATOM     33  O   UNL d   1      27.950 -11.658  -1.507  0.00  0.00    -0.360 OA
ATOM     34  H   UNL d   1      28.710 -11.868  -2.080  0.00  0.00     0.217 HD
ENDBRANCH  28  33
BRANCH  32  35
ATOM     35  O   UNL d   1      29.725 -15.466   0.890  0.00  0.00    -0.360 OA
ATOM     36  H   UNL d   1      29.650 -15.950   1.730  0.00  0.00     0.217 HD
ENDBRANCH  32  35
ENDBRANCH  25  27
BRANCH  24  37
ATOM     37  C   UNL d   1      30.775 -15.387  -3.590  0.00  0.00     0.026 C 
ATOM     38  C   UNL d   1      31.839 -16.097  -2.736  0.00  0.00     0.037 C 
ATOM     39  C   UNL d   1      30.597 -16.289  -4.845  0.00  0.00     0.037 C 
ATOM     40  C   UNL d   1      31.416 -14.126  -4.203  0.00  0.00     0.037 C 
ENDBRANCH  24  37
ENDBRANCH   1  24
TORSDOF 12
ENDMDL
MODEL 7
REMARK VINA RESULT:    -5.316      0.820      2.062
REMARK INTER + INTRA:         -14.322
REMARK INTER:                  -8.896
REMARK INTRA:                  -5.426
REMARK CONF_INDEPENDENT:        3.580
REMARK UNBOUND:                -5.426
REMARK  12 active torsions:
REMARK  status: ('A' for Active; 'I' for Inactive)
REMARK    1  A    between atoms: O_2  and  C_3 
REMARK    2  A    between atoms: C_5  and  C_6 
REMARK    3  A    between atoms: C_6  and  C_7 
REMARK    4  A    between atoms: C_6  and  N_18 
REMARK       I    between atoms: C_7  and  N_9 
REMARK    5  A    between atoms: N_9  and  C_10 
REMARK    6  A    between atoms: C_10  and  C_13 
REMARK    7  A    between atoms: C_13  and  C_14 
REMARK       I    between atoms: N_18  and  C_19 
REMARK    8  A    between atoms: N_18  and  C_29 
REMARK    9  A    between atoms: C_19  and  C_21 
REMARK   10  A    between atoms: C_22  and  O_23 
REMARK   11  A    between atoms: C_27  and  O_28 
REMARK   12  A    between atoms: C_35  and  O_36 
ROOT
ATOM      1  C   UNL d   1      26.736 -16.594  -0.233  0.00  0.00     0.213 C 
ENDROOT
BRANCH   1   2
ATOM      2  C   UNL d   1      28.055 -16.715  -0.955  0.00  0.00    -0.023 C 
ATOM      3  C   UNL d   1      28.468 -16.103  -2.157  0.00  0.00     0.049 C 
ATOM      4  C   UNL d   1      29.772 -16.292  -2.646  0.00  0.00     0.101 C 
ATOM      5  C   UNL d   1      30.662 -16.977  -1.857  0.00  0.00     0.099 C 
ATOM      6  C   UNL d   1      30.140 -17.765  -0.873  0.00  0.00     0.040 C 
ATOM      7  C   UNL d   1      28.818 -17.760  -0.520  0.00  0.00     0.012 C 
BRANCH   4   8
ATOM      8  O   UNL d   1      30.091 -15.722  -3.844  0.00  0.00    -0.353 OA
ATOM      9  C   UNL d   1      30.006 -16.621  -4.954  0.00  0.00     0.210 C 
ENDBRANCH   4   8
BRANCH   5  10
ATOM     10  O   UNL d   1      32.009 -16.813  -2.000  0.00  0.00    -0.358 OA
ATOM     11  H   UNL d   1      32.308 -16.282  -2.744  0.00  0.00     0.217 HD
ENDBRANCH   5  10
ENDBRANCH   1   2
BRANCH   1  12
ATOM     12  C   UNL d   1      27.092 -15.373   0.612  0.00  0.00     0.245 C 
ATOM     13  O   UNL d   1      26.345 -14.366   0.580  0.00  0.00    -0.271 OA
ATOM     14  N   UNL d   1      28.336 -15.320   1.215  0.00  0.00    -0.351 N 
ATOM     15  H   UNL d   1      29.051 -16.005   1.005  0.00  0.00     0.163 HD
BRANCH  14  16
ATOM     16  C   UNL d   1      28.731 -14.117   1.936  0.00  0.00     0.026 C 
ATOM     17  C   UNL d   1      27.768 -13.884   3.124  0.00  0.00     0.038 C 
ATOM     18  C   UNL d   1      30.161 -14.450   2.373  0.00  0.00     0.038 C 
BRANCH  16  19
ATOM     19  C   UNL d   1      28.680 -12.868   0.981  0.00  0.00     0.038 C 
BRANCH  19  20
ATOM     20  C   UNL d   1      29.925 -12.603   0.061  0.00  0.00    -0.049 C 
ATOM     21  C   UNL d   1      31.081 -11.903   0.791  0.00  0.00     0.014 C 
ATOM     22  C   UNL d   1      30.438 -13.886  -0.604  0.00  0.00     0.014 C 
ATOM     23  C   UNL d   1      29.536 -11.661  -1.088  0.00  0.00     0.014 C 
ENDBRANCH  19  20
ENDBRANCH  16  19
ENDBRANCH  14  16
ENDBRANCH   1  12
BRANCH   1  24
ATOM     24  N   UNL d   1      25.394 -16.369  -1.123  0.00  0.00    -0.322 N 
ATOM     25  C   UNL d   1      25.157 -15.414  -2.253  0.00  0.00     0.261 C 
ATOM     26  O   UNL d   1      24.034 -15.200  -2.725  0.00  0.00    -0.267 OA
BRANCH  25  27
ATOM     27  C   UNL d   1      26.170 -14.571  -3.007  0.00  0.00     0.098 A 
ATOM     28  C   UNL d   1      26.668 -13.357  -2.514  0.00  0.00     0.084 A 
ATOM     29  C   UNL d   1      27.378 -12.480  -3.367  0.00  0.00     0.038 A 
ATOM     30  C   UNL d   1      27.675 -12.831  -4.708  0.00  0.00     0.005 A 
ATOM     31  C   UNL d   1      27.212 -14.047  -5.226  0.00  0.00     0.038 A 
ATOM     32  C   UNL d   1      26.476 -14.911  -4.379  0.00  0.00     0.084 A 
BRANCH  28  33
ATOM     33  O   UNL d   1      26.280 -12.834  -1.304  0.00  0.00    -0.360 OA
ATOM     34  H   UNL d   1      26.756 -13.308  -0.598  0.00  0.00     0.217 HD
ENDBRANCH  28  33
BRANCH  32  35
ATOM     35  O   UNL d   1      25.760 -15.921  -4.992  0.00  0.00    -0.360 OA
ATOM     36  H   UNL d   1      24.973 -16.180  -4.484  0.00  0.00     0.217 HD
ENDBRANCH  32  35
ENDBRANCH  25  27
BRANCH  24  37
ATOM     37  C   UNL d   1      24.156 -17.260  -0.678  0.00  0.00     0.026 C 
ATOM     38  C   UNL d   1      22.988 -16.325  -0.318  0.00  0.00     0.037 C 
ATOM     39  C   UNL d   1      23.567 -18.262  -1.711  0.00  0.00     0.037 C 
ATOM     40  C   UNL d   1      24.422 -18.180   0.530  0.00  0.00     0.037 C 
ENDBRANCH  24  37
ENDBRANCH   1  24
TORSDOF 12
ENDMDL
MODEL 8
REMARK VINA RESULT:    -5.140      2.147      6.077
REMARK INTER + INTRA:         -13.601
REMARK INTER:                  -8.719
REMARK INTRA:                  -4.881
REMARK CONF_INDEPENDENT:        3.580
REMARK UNBOUND:                -4.881
REMARK  12 active torsions:
REMARK  status: ('A' for Active; 'I' for Inactive)
REMARK    1  A    between atoms: O_2  and  C_3 
REMARK    2  A    between atoms: C_5  and  C_6 
REMARK    3  A    between atoms: C_6  and  C_7 
REMARK    4  A    between atoms: C_6  and  N_18 
REMARK       I    between atoms: C_7  and  N_9 
REMARK    5  A    between atoms: N_9  and  C_10 
REMARK    6  A    between atoms: C_10  and  C_13 
REMARK    7  A    between atoms: C_13  and  C_14 
REMARK       I    between atoms: N_18  and  C_19 
REMARK    8  A    between atoms: N_18  and  C_29 
REMARK    9  A    between atoms: C_19  and  C_21 
REMARK   10  A    between atoms: C_22  and  O_23 
REMARK   11  A    between atoms: C_27  and  O_28 
REMARK   12  A    between atoms: C_35  and  O_36 
ROOT
ATOM      1  C   UNL d   1      25.528 -14.819  -1.147  0.00  0.00     0.213 C 
ENDROOT
BRANCH   1   2
ATOM      2  C   UNL d   1      26.504 -13.788  -0.637  0.00  0.00    -0.023 C 
ATOM      3  C   UNL d   1      27.638 -13.247  -1.277  0.00  0.00     0.049 C 
ATOM      4  C   UNL d   1      28.398 -12.240  -0.659  0.00  0.00     0.101 C 
ATOM      5  C   UNL d   1      27.930 -11.712   0.519  0.00  0.00     0.099 C 
ATOM      6  C   UNL d   1      27.014 -12.451   1.209  0.00  0.00     0.040 C 
ATOM      7  C   UNL d   1      26.414 -13.574   0.708  0.00  0.00     0.012 C 
BRANCH   4   8
ATOM      8  O   UNL d   1      29.519 -11.801  -1.303  0.00  0.00    -0.353 OA
ATOM      9  C   UNL d   1      29.457 -11.935  -2.727  0.00  0.00     0.210 C 
ENDBRANCH   4   8
BRANCH   5  10
ATOM     10  O   UNL d   1      28.303 -10.468   0.935  0.00  0.00    -0.358 OA
ATOM     11  H   UNL d   1      29.127 -10.117   0.584  0.00  0.00     0.217 HD
ENDBRANCH   5  10
ENDBRANCH   1   2
BRANCH   1  12
ATOM     12  C   UNL d   1      25.747 -14.571  -2.637  0.00  0.00     0.245 C 
ATOM     13  O   UNL d   1      24.796 -14.144  -3.334  0.00  0.00    -0.271 OA
ATOM     14  N   UNL d   1      26.912 -15.030  -3.225  0.00  0.00    -0.351 N 
ATOM     15  H   UNL d   1      27.553 -15.629  -2.720  0.00  0.00     0.163 HD
BRANCH  14  16
ATOM     16  C   UNL d   1      27.089 -14.895  -4.665  0.00  0.00     0.026 C 
ATOM     17  C   UNL d   1      25.908 -15.575  -5.398  0.00  0.00     0.038 C 
ATOM     18  C   UNL d   1      27.121 -13.374  -4.850  0.00  0.00     0.038 C 
BRANCH  16  19
ATOM     19  C   UNL d   1      28.434 -15.575  -5.115  0.00  0.00     0.038 C 
BRANCH  19  20
ATOM     20  C   UNL d   1      29.369 -14.768  -6.085  0.00  0.00    -0.049 C 
ATOM     21  C   UNL d   1      28.617 -14.136  -7.267  0.00  0.00     0.014 C 
ATOM     22  C   UNL d   1      30.172 -13.687  -5.351  0.00  0.00     0.014 C 
ATOM     23  C   UNL d   1      30.407 -15.707  -6.715  0.00  0.00     0.014 C 
ENDBRANCH  19  20
ENDBRANCH  16  19
ENDBRANCH  14  16
ENDBRANCH   1  12
BRANCH   1  24
ATOM     24  N   UNL d   1      25.768 -16.373  -0.729  0.00  0.00    -0.322 N 
ATOM     25  C   UNL d   1      27.057 -17.110  -0.528  0.00  0.00     0.261 C 
ATOM     26  O   UNL d   1      27.113 -18.339  -0.399  0.00  0.00    -0.267 OA
BRANCH  25  27
ATOM     27  C   UNL d   1      28.464 -16.546  -0.438  0.00  0.00     0.098 A 
ATOM     28  C   UNL d   1      28.911 -15.783   0.648  0.00  0.00     0.084 A 
ATOM     29  C   UNL d   1      30.117 -15.049   0.555  0.00  0.00     0.038 A 
ATOM     30  C   UNL d   1      30.942 -15.123  -0.595  0.00  0.00     0.005 A 
ATOM     31  C   UNL d   1      30.535 -15.895  -1.692  0.00  0.00     0.038 A 
ATOM     32  C   UNL d   1      29.314 -16.606  -1.607  0.00  0.00     0.084 A 
BRANCH  28  33
ATOM     33  O   UNL d   1      28.110 -15.487   1.725  0.00  0.00    -0.360 OA
ATOM     34  H   UNL d   1      28.530 -15.847   2.527  0.00  0.00     0.217 HD
ENDBRANCH  28  33
BRANCH  32  35
ATOM     35  O   UNL d   1      28.785 -17.074  -2.794  0.00  0.00    -0.360 OA
ATOM     36  H   UNL d   1      27.993 -17.622  -2.658  0.00  0.00     0.217 HD
ENDBRANCH  32  35
ENDBRANCH  25  27
BRANCH  24  37
ATOM     37  C   UNL d   1      24.434 -17.222  -0.572  0.00  0.00     0.026 C 
ATOM     38  C   UNL d   1      24.615 -18.199   0.602  0.00  0.00     0.037 C 
ATOM     39  C   UNL d   1      23.115 -16.459  -0.264  0.00  0.00     0.037 C 
ATOM     40  C   UNL d   1      24.037 -18.039  -1.817  0.00  0.00     0.037 C 
ENDBRANCH  24  37
ENDBRANCH   1  24
TORSDOF 12
ENDMDL
MODEL 9
REMARK VINA RESULT:    -5.086      1.983      3.377
REMARK INTER + INTRA:         -13.948
REMARK INTER:                  -8.665
REMARK INTRA:                  -5.283
REMARK CONF_INDEPENDENT:        3.580
REMARK UNBOUND:                -5.283
REMARK  12 active torsions:
REMARK  status: ('A' for Active; 'I' for Inactive)
REMARK    1  A    between atoms: O_2  and  C_3 
REMARK    2  A    between atoms: C_5  and  C_6 
REMARK    3  A    between atoms: C_6  and  C_7 
REMARK    4  A    between atoms: C_6  and  N_18 
REMARK       I    between atoms: C_7  and  N_9 
REMARK    5  A    between atoms: N_9  and  C_10 
REMARK    6  A    between atoms: C_10  and  C_13 
REMARK    7  A    between atoms: C_13  and  C_14 
REMARK       I    between atoms: N_18  and  C_19 
REMARK    8  A    between atoms: N_18  and  C_29 
REMARK    9  A    between atoms: C_19  and  C_21 
REMARK   10  A    between atoms: C_22  and  O_23 
REMARK   11  A    between atoms: C_27  and  O_28 
REMARK   12  A    between atoms: C_35  and  O_36 
ROOT
ATOM      1  C   UNL d   1      28.143 -15.754  -2.217  0.00  0.00     0.213 C 
ENDROOT
BRANCH   1   2
ATOM      2  C   UNL d   1      28.934 -15.589  -3.491  0.00  0.00    -0.023 C 
ATOM      3  C   UNL d   1      29.280 -16.560  -4.453  0.00  0.00     0.049 C 
ATOM      4  C   UNL d   1      29.977 -16.198  -5.618  0.00  0.00     0.101 C 
ATOM      5  C   UNL d   1      30.190 -14.862  -5.852  0.00  0.00     0.099 C 
ATOM      6  C   UNL d   1      30.089 -14.022  -4.781  0.00  0.00     0.040 C 
ATOM      7  C   UNL d   1      29.614 -14.408  -3.557  0.00  0.00     0.012 C 
BRANCH   4   8
ATOM      8  O   UNL d   1      30.336 -17.194  -6.480  0.00  0.00    -0.353 OA
ATOM      9  C   UNL d   1      30.514 -18.467  -5.852  0.00  0.00     0.210 C 
ENDBRANCH   4   8
BRANCH   5  10
ATOM     10  O   UNL d   1      30.412 -14.389  -7.111  0.00  0.00    -0.358 OA
ATOM     11  H   UNL d   1      30.142 -14.951  -7.844  0.00  0.00     0.217 HD
ENDBRANCH   5  10
ENDBRANCH   1   2
BRANCH   1  12
ATOM     12  C   UNL d   1      28.809 -14.628  -1.429  0.00  0.00     0.245 C 
ATOM     13  O   UNL d   1      29.855 -14.869  -0.780  0.00  0.00    -0.271 OA
ATOM     14  N   UNL d   1      28.129 -13.434  -1.270  0.00  0.00    -0.351 N 
ATOM     15  H   UNL d   1      27.161 -13.341  -1.551  0.00  0.00     0.163 HD
BRANCH  14  16
ATOM     16  C   UNL d   1      28.704 -12.389  -0.434  0.00  0.00     0.026 C 
ATOM     17  C   UNL d   1      30.114 -12.024  -0.956  0.00  0.00     0.038 C 
ATOM     18  C   UNL d   1      27.689 -11.252  -0.584  0.00  0.00     0.038 C 
BRANCH  16  19
ATOM     19  C   UNL d   1      28.821 -12.885   1.055  0.00  0.00     0.038 C 
BRANCH  19  20
ATOM     20  C   UNL d   1      27.593 -13.651   1.666  0.00  0.00    -0.049 C 
ATOM     21  C   UNL d   1      27.433 -13.430   3.178  0.00  0.00     0.014 C 
ATOM     22  C   UNL d   1      26.280 -13.304   0.954  0.00  0.00     0.014 C 
ATOM     23  C   UNL d   1      27.780 -15.165   1.490  0.00  0.00     0.014 C 
ENDBRANCH  19  20
ENDBRANCH  16  19
ENDBRANCH  14  16
ENDBRANCH   1  12
BRANCH   1  24
ATOM     24  N   UNL d   1      26.526 -15.593  -2.294  0.00  0.00    -0.322 N 
ATOM     25  C   UNL d   1      25.710 -14.613  -3.078  0.00  0.00     0.261 C 
ATOM     26  O   UNL d   1      24.494 -14.463  -2.906  0.00  0.00    -0.267 OA
BRANCH  25  27
ATOM     27  C   UNL d   1      26.165 -13.666  -4.175  0.00  0.00     0.098 A 
ATOM     28  C   UNL d   1      26.743 -14.111  -5.372  0.00  0.00     0.084 A 
ATOM     29  C   UNL d   1      27.405 -13.197  -6.225  0.00  0.00     0.038 A 
ATOM     30  C   UNL d   1      27.438 -11.809  -5.942  0.00  0.00     0.005 A 
ATOM     31  C   UNL d   1      26.850 -11.328  -4.764  0.00  0.00     0.038 A 
ATOM     32  C   UNL d   1      26.213 -12.248  -3.897  0.00  0.00     0.084 A 
BRANCH  28  33
ATOM     33  O   UNL d   1      26.938 -15.442  -5.651  0.00  0.00    -0.360 OA
ATOM     34  H   UNL d   1      27.751 -15.528  -6.182  0.00  0.00     0.217 HD
ENDBRANCH  28  33
BRANCH  32  35
ATOM     35  O   UNL d   1      25.946 -11.810  -2.614  0.00  0.00    -0.360 OA
ATOM     36  H   UNL d   1      25.461 -12.469  -2.089  0.00  0.00     0.217 HD
ENDBRANCH  32  35
ENDBRANCH  25  27
BRANCH  24  37
ATOM     37  C   UNL d   1      25.724 -16.591  -1.353  0.00  0.00     0.026 C 
ATOM     38  C   UNL d   1      26.730 -17.540  -0.680  0.00  0.00     0.037 C 
ATOM     39  C   UNL d   1      24.895 -15.987  -0.184  0.00  0.00     0.037 C 
ATOM     40  C   UNL d   1      24.666 -17.450  -2.073  0.00  0.00     0.037 C 
ENDBRANCH  24  37
ENDBRANCH   1  24
TORSDOF 12
ENDMDL
