MODEL 1
REMARK VINA RESULT:   -10.914      0.000      0.000
REMARK INTER + INTRA:         -15.112
REMARK INTER:                 -13.300
REMARK INTRA:                  -1.812
REMARK CONF_INDEPENDENT:        2.386
REMARK UNBOUND:                -1.812
REMARK  8 active torsions:
REMARK  status: ('A' for Active; 'I' for Inactive)
REMARK    1  A    between atoms: C_2  and  O_3 
REMARK    2  A    between atoms: O_3  and  C_4 
REMARK    3  A    between atoms: C_7  and  N_8 
REMARK       I    between atoms: N_8  and  C_9 
REMARK       I    between atoms: C_9  and  N_23 
REMARK       I    between atoms: N_10  and  C_11 
REMARK    4  A    between atoms: C_11  and  C_13 
REMARK    5  A    between atoms: C_16  and  N_17 
REMARK       I    between atoms: N_17  and  C_18 
REMARK    6  A    between atoms: N_23  and  C_24 
REMARK    7  A    between atoms: C_24  and  C_25 
REMARK    8  A    between atoms: C_25  and  C_26 
ROOT
ATOM      1  N   UNL d   1      26.067 -17.930  -0.134  0.00  0.00    -0.190 N 
ATOM      2  C   UNL d   1      27.035 -17.238  -0.881  0.00  0.00     0.704 C 
ATOM      3  N   UNL d   1      26.704 -16.401  -1.824  0.00  0.00    -0.023 NA
ATOM      4  C   UNL d   1      27.477 -15.627  -2.662  0.00  0.00     0.293 C 
ATOM      5  O   UNL d   1      28.649 -15.276  -2.641  0.00  0.00    -0.265 OA
ATOM      6  N   UNL d   1      28.326 -17.560  -0.501  0.00  0.00    -0.224 N 
ATOM      7  H   UNL d   1      26.377 -18.649   0.506  0.00  0.00     0.184 HD
ATOM      8  H   UNL d   1      28.533 -18.203   0.247  0.00  0.00     0.177 HD
ENDROOT
BRANCH   1   9
ATOM      9  C   UNL d   1      24.654 -17.936  -0.349  0.00  0.00     0.049 A 
ATOM     10  C   UNL d   1      23.892 -16.763  -0.516  0.00  0.00     0.033 A 
ATOM     11  C   UNL d   1      22.476 -16.820  -0.638  0.00  0.00     0.039 A 
ATOM     12  C   UNL d   1      21.800 -18.043  -0.666  0.00  0.00     0.068 A 
ATOM     13  C   UNL d   1      22.547 -19.198  -0.572  0.00  0.00     0.039 A 
ATOM     14  C   UNL d   1      23.930 -19.128  -0.427  0.00  0.00     0.033 A 
BRANCH  12  15
ATOM     15  O   UNL d   1      20.451 -18.039  -0.895  0.00  0.00    -0.352 OA
BRANCH  15  16
ATOM     16  C   UNL d   1      19.822 -19.329  -0.918  0.00  0.00     0.171 C 
ATOM     17  C   UNL d   1      19.391 -19.692   0.492  0.00  0.00     0.034 C 
ENDBRANCH  15  16
ENDBRANCH  12  15
ENDBRANCH   1   9
BRANCH   6  18
ATOM     18  C   UNL d   1      29.408 -16.842  -1.118  0.00  0.00     0.142 C 
BRANCH  18  19
ATOM     19  C   UNL d   1      30.777 -17.373  -1.220  0.00  0.00     0.057 C 
BRANCH  19  20
ATOM     20  C   UNL d   1      30.929 -18.519  -2.204  0.00  0.00    -0.048 A 
ATOM     21  C   UNL d   1      30.807 -18.211  -3.490  0.00  0.00    -0.006 A 
ATOM     22  C   UNL d   1      30.545 -16.951  -4.075  0.00  0.00     0.014 A 
ATOM     23  C   UNL d   1      30.928 -19.448  -4.258  0.00  0.00     0.038 A 
ATOM     24  C   UNL d   1      30.287 -16.911  -5.380  0.00  0.00     0.001 A 
ATOM     25  C   UNL d   1      30.424 -18.102  -6.201  0.00  0.00     0.002 A 
ATOM     26  C   UNL d   1      30.730 -19.327  -5.718  0.00  0.00     0.030 A 
ATOM     27  N   UNL d   1      31.185 -20.446  -3.499  0.00  0.00    -0.385 N 
ATOM     28  C   UNL d   1      31.174 -20.011  -2.051  0.00  0.00     0.155 A 
ATOM     29  H   UNL d   1      31.367 -21.381  -3.869  0.00  0.00     0.160 HD
ENDBRANCH  19  20
ENDBRANCH  18  19
ENDBRANCH   6  18
BRANCH   4  30
ATOM     30  C   UNL d   1      26.834 -14.839  -3.688  0.00  0.00     0.035 C 
ATOM     31  C   UNL d   1      27.687 -14.199  -4.615  0.00  0.00     0.019 C 
ATOM     32  C   UNL d   1      27.290 -13.017  -5.226  0.00  0.00     0.030 C 
ATOM     33  C   UNL d   1      26.028 -12.503  -4.932  0.00  0.00     0.034 C 
ATOM     34  C   UNL d   1      25.307 -13.082  -3.886  0.00  0.00     0.030 C 
ATOM     35  C   UNL d   1      25.628 -14.295  -3.325  0.00  0.00     0.019 C 
BRANCH  33  36
ATOM     36  N   UNL d   1      25.530 -11.445  -5.704  0.00  0.00    -0.328 N 
ATOM     37  C   UNL d   1      25.964 -10.155  -5.843  0.00  0.00     0.218 C 
ATOM     38  C   UNL d   1      27.235  -9.625  -5.221  0.00  0.00     0.117 C 
ATOM     39  O   UNL d   1      25.270  -9.390  -6.522  0.00  0.00    -0.274 OA
ATOM     40  H   UNL d   1      24.610 -11.565  -6.118  0.00  0.00     0.169 HD
ENDBRANCH  33  36
ENDBRANCH   4  30
TORSDOF 8
ENDMDL
MODEL 2
REMARK VINA RESULT:   -10.882      1.038      1.717
REMARK INTER + INTRA:         -14.978
REMARK INTER:                 -13.269
REMARK INTRA:                  -1.709
REMARK CONF_INDEPENDENT:        2.386
REMARK UNBOUND:                -1.709
REMARK  8 active torsions:
REMARK  status: ('A' for Active; 'I' for Inactive)
REMARK    1  A    between atoms: C_2  and  O_3 
REMARK    2  A    between atoms: O_3  and  C_4 
REMARK    3  A    between atoms: C_7  and  N_8 
REMARK       I    between atoms: N_8  and  C_9 
REMARK       I    between atoms: C_9  and  N_23 
REMARK       I    between atoms: N_10  and  C_11 
REMARK    4  A    between atoms: C_11  and  C_13 
REMARK    5  A    between atoms: C_16  and  N_17 
REMARK       I    between atoms: N_17  and  C_18 
REMARK    6  A    between atoms: N_23  and  C_24 
REMARK    7  A    between atoms: C_24  and  C_25 
REMARK    8  A    between atoms: C_25  and  C_26 
ROOT
ATOM      1  N   UNL d   1      26.198 -17.896  -0.139  0.00  0.00    -0.190 N 
ATOM      2  C   UNL d   1      27.134 -17.199  -0.922  0.00  0.00     0.704 C 
ATOM      3  N   UNL d   1      26.765 -16.367  -1.855  0.00  0.00    -0.023 NA
ATOM      4  C   UNL d   1      27.501 -15.589  -2.722  0.00  0.00     0.293 C 
ATOM      5  O   UNL d   1      28.671 -15.230  -2.742  0.00  0.00    -0.265 OA
ATOM      6  N   UNL d   1      28.441 -17.510  -0.587  0.00  0.00    -0.224 N 
ATOM      7  H   UNL d   1      26.536 -18.611   0.491  0.00  0.00     0.184 HD
ATOM      8  H   UNL d   1      28.678 -18.149   0.156  0.00  0.00     0.177 HD
ENDROOT
BRANCH   1   9
ATOM      9  C   UNL d   1      24.779 -17.913  -0.305  0.00  0.00     0.049 A 
ATOM     10  C   UNL d   1      24.009 -19.091  -0.258  0.00  0.00     0.033 A 
ATOM     11  C   UNL d   1      22.610 -19.063  -0.518  0.00  0.00     0.039 A 
ATOM     12  C   UNL d   1      21.942 -17.860  -0.760  0.00  0.00     0.068 A 
ATOM     13  C   UNL d   1      22.679 -16.695  -0.739  0.00  0.00     0.039 A 
ATOM     14  C   UNL d   1      24.052 -16.738  -0.509  0.00  0.00     0.033 A 
BRANCH  12  15
ATOM     15  O   UNL d   1      20.580 -17.884  -0.895  0.00  0.00    -0.352 OA
BRANCH  15  16
ATOM     16  C   UNL d   1      19.981 -19.188  -0.895  0.00  0.00     0.171 C 
ATOM     17  C   UNL d   1      19.511 -19.515   0.511  0.00  0.00     0.034 C 
ENDBRANCH  15  16
ENDBRANCH  12  15
ENDBRANCH   1   9
BRANCH   6  18
ATOM     18  C   UNL d   1      29.495 -16.785  -1.242  0.00  0.00     0.142 C 
BRANCH  18  19
ATOM     19  C   UNL d   1      30.573 -17.437  -2.003  0.00  0.00     0.057 C 
BRANCH  19  20
ATOM     20  C   UNL d   1      30.830 -16.826  -3.368  0.00  0.00    -0.048 A 
ATOM     21  C   UNL d   1      30.722 -17.643  -4.409  0.00  0.00    -0.006 A 
ATOM     22  C   UNL d   1      30.405 -19.021  -4.420  0.00  0.00     0.014 A 
ATOM     23  C   UNL d   1      31.059 -16.882  -5.609  0.00  0.00     0.038 A 
ATOM     24  C   UNL d   1      30.530 -19.680  -5.570  0.00  0.00     0.001 A 
ATOM     25  C   UNL d   1      30.830 -18.973  -6.803  0.00  0.00     0.002 A 
ATOM     26  C   UNL d   1      31.085 -17.646  -6.876  0.00  0.00     0.030 A 
ATOM     27  N   UNL d   1      31.287 -15.653  -5.336  0.00  0.00    -0.385 N 
ATOM     28  C   UNL d   1      31.224 -15.437  -3.841  0.00  0.00     0.155 A 
ATOM     29  H   UNL d   1      31.475 -14.958  -6.060  0.00  0.00     0.160 HD
ENDBRANCH  19  20
ENDBRANCH  18  19
ENDBRANCH   6  18
BRANCH   4  30
ATOM     30  C   UNL d   1      26.816 -14.809  -3.726  0.00  0.00     0.035 C 
ATOM     31  C   UNL d   1      27.621 -14.258  -4.748  0.00  0.00     0.019 C 
ATOM     32  C   UNL d   1      27.238 -13.082  -5.378  0.00  0.00     0.030 C 
ATOM     33  C   UNL d   1      26.034 -12.485  -5.006  0.00  0.00     0.034 C 
ATOM     34  C   UNL d   1      25.375 -12.978  -3.879  0.00  0.00     0.030 C 
ATOM     35  C   UNL d   1      25.677 -14.182  -3.291  0.00  0.00     0.019 C 
BRANCH  33  36
ATOM     36  N   UNL d   1      25.530 -11.433  -5.782  0.00  0.00    -0.328 N 
ATOM     37  C   UNL d   1      26.058 -10.207  -6.083  0.00  0.00     0.218 C 
ATOM     38  C   UNL d   1      27.452  -9.775  -5.691  0.00  0.00     0.117 C 
ATOM     39  O   UNL d   1      25.347  -9.420  -6.717  0.00  0.00    -0.274 OA
ATOM     40  H   UNL d   1      24.552 -11.483  -6.052  0.00  0.00     0.169 HD
ENDBRANCH  33  36
ENDBRANCH   4  30
TORSDOF 8
ENDMDL
MODEL 3
REMARK VINA RESULT:   -10.706      2.740      4.870
REMARK INTER + INTRA:         -14.637
REMARK INTER:                 -13.093
REMARK INTRA:                  -1.544
REMARK CONF_INDEPENDENT:        2.386
REMARK UNBOUND:                -1.544
REMARK  8 active torsions:
REMARK  status: ('A' for Active; 'I' for Inactive)
REMARK    1  A    between atoms: C_2  and  O_3 
REMARK    2  A    between atoms: O_3  and  C_4 
REMARK    3  A    between atoms: C_7  and  N_8 
REMARK       I    between atoms: N_8  and  C_9 
REMARK       I    between atoms: C_9  and  N_23 
REMARK       I    between atoms: N_10  and  C_11 
REMARK    4  A    between atoms: C_11  and  C_13 
REMARK    5  A    between atoms: C_16  and  N_17 
REMARK       I    between atoms: N_17  and  C_18 
REMARK    6  A    between atoms: N_23  and  C_24 
REMARK    7  A    between atoms: C_24  and  C_25 
REMARK    8  A    between atoms: C_25  and  C_26 
ROOT
ATOM      1  N   UNL d   1      25.732 -17.802   0.277  0.00  0.00    -0.190 N 
ATOM      2  C   UNL d   1      26.677 -16.995  -0.380  0.00  0.00     0.704 C 
ATOM      3  N   UNL d   1      26.338 -16.187  -1.344  0.00  0.00    -0.023 NA
ATOM      4  C   UNL d   1      27.089 -15.319  -2.107  0.00  0.00     0.293 C 
ATOM      5  O   UNL d   1      28.208 -14.841  -1.981  0.00  0.00    -0.265 OA
ATOM      6  N   UNL d   1      27.959 -17.177   0.111  0.00  0.00    -0.224 N 
ATOM      7  H   UNL d   1      26.065 -18.491   0.938  0.00  0.00     0.184 HD
ATOM      8  H   UNL d   1      28.171 -17.803   0.872  0.00  0.00     0.177 HD
ENDROOT
BRANCH   1   9
ATOM      9  C   UNL d   1      24.353 -17.962  -0.062  0.00  0.00     0.049 A 
ATOM     10  C   UNL d   1      23.718 -19.216  -0.148  0.00  0.00     0.033 A 
ATOM     11  C   UNL d   1      22.365 -19.325  -0.576  0.00  0.00     0.039 A 
ATOM     12  C   UNL d   1      21.602 -18.189  -0.858  0.00  0.00     0.068 A 
ATOM     13  C   UNL d   1      22.197 -16.954  -0.709  0.00  0.00     0.039 A 
ATOM     14  C   UNL d   1      23.529 -16.862  -0.314  0.00  0.00     0.033 A 
BRANCH  12  15
ATOM     15  O   UNL d   1      20.276 -18.351  -1.159  0.00  0.00    -0.352 OA
BRANCH  15  16
ATOM     16  C   UNL d   1      19.736 -19.655  -0.895  0.00  0.00     0.171 C 
ATOM     17  C   UNL d   1      19.222 -19.695   0.533  0.00  0.00     0.034 C 
ENDBRANCH  15  16
ENDBRANCH  12  15
ENDBRANCH   1   9
BRANCH   6  18
ATOM     18  C   UNL d   1      29.003 -16.334  -0.405  0.00  0.00     0.142 C 
BRANCH  18  19
ATOM     19  C   UNL d   1      29.525 -15.161   0.315  0.00  0.00     0.057 C 
BRANCH  19  20
ATOM     20  C   UNL d   1      28.482 -14.410   1.123  0.00  0.00    -0.048 A 
ATOM     21  C   UNL d   1      28.800 -14.133   2.382  0.00  0.00    -0.006 A 
ATOM     22  C   UNL d   1      29.986 -14.450   3.083  0.00  0.00     0.014 A 
ATOM     23  C   UNL d   1      27.653 -13.466   2.994  0.00  0.00     0.038 A 
ATOM     24  C   UNL d   1      30.012 -14.228   4.396  0.00  0.00     0.001 A 
ATOM     25  C   UNL d   1      28.916 -13.539   5.054  0.00  0.00     0.002 A 
ATOM     26  C   UNL d   1      27.778 -13.153   4.434  0.00  0.00     0.030 A 
ATOM     27  N   UNL d   1      26.715 -13.275   2.145  0.00  0.00    -0.385 N 
ATOM     28  C   UNL d   1      27.083 -13.901   0.818  0.00  0.00     0.155 A 
ATOM     29  H   UNL d   1      25.862 -12.764   2.379  0.00  0.00     0.160 HD
ENDBRANCH  19  20
ENDBRANCH  18  19
ENDBRANCH   6  18
BRANCH   4  30
ATOM     30  C   UNL d   1      26.453 -14.593  -3.182  0.00  0.00     0.035 C 
ATOM     31  C   UNL d   1      27.203 -14.446  -4.370  0.00  0.00     0.019 C 
ATOM     32  C   UNL d   1      26.997 -13.347  -5.192  0.00  0.00     0.030 C 
ATOM     33  C   UNL d   1      26.017 -12.421  -4.838  0.00  0.00     0.034 C 
ATOM     34  C   UNL d   1      25.434 -12.529  -3.574  0.00  0.00     0.030 C 
ATOM     35  C   UNL d   1      25.550 -13.643  -2.779  0.00  0.00     0.019 C 
BRANCH  33  36
ATOM     36  N   UNL d   1      25.647 -11.438  -5.765  0.00  0.00    -0.328 N 
ATOM     37  C   UNL d   1      26.286 -10.297  -6.166  0.00  0.00     0.218 C 
ATOM     38  C   UNL d   1      27.680  -9.917  -5.725  0.00  0.00     0.117 C 
ATOM     39  O   UNL d   1      25.680  -9.544  -6.936  0.00  0.00    -0.274 OA
ATOM     40  H   UNL d   1      24.686 -11.452  -6.098  0.00  0.00     0.169 HD
ENDBRANCH  33  36
ENDBRANCH   4  30
TORSDOF 8
ENDMDL
MODEL 4
REMARK VINA RESULT:   -10.700      2.578      4.399
REMARK INTER + INTRA:         -14.757
REMARK INTER:                 -13.086
REMARK INTRA:                  -1.671
REMARK CONF_INDEPENDENT:        2.386
REMARK UNBOUND:                -1.671
REMARK  8 active torsions:
REMARK  status: ('A' for Active; 'I' for Inactive)
REMARK    1  A    between atoms: C_2  and  O_3 
REMARK    2  A    between atoms: O_3  and  C_4 
REMARK    3  A    between atoms: C_7  and  N_8 
REMARK       I    between atoms: N_8  and  C_9 
REMARK       I    between atoms: C_9  and  N_23 
REMARK       I    between atoms: N_10  and  C_11 
REMARK    4  A    between atoms: C_11  and  C_13 
REMARK    5  A    between atoms: C_16  and  N_17 
REMARK       I    between atoms: N_17  and  C_18 
REMARK    6  A    between atoms: N_23  and  C_24 
REMARK    7  A    between atoms: C_24  and  C_25 
REMARK    8  A    between atoms: C_25  and  C_26 
ROOT
ATOM      1  N   UNL d   1      26.639 -17.285   0.175  0.00  0.00    -0.190 N 
ATOM      2  C   UNL d   1      27.611 -16.582  -0.557  0.00  0.00     0.704 C 
ATOM      3  N   UNL d   1      27.294 -15.825  -1.570  0.00  0.00    -0.023 NA
ATOM      4  C   UNL d   1      28.073 -15.059  -2.409  0.00  0.00     0.293 C 
ATOM      5  O   UNL d   1      29.220 -14.637  -2.340  0.00  0.00    -0.265 OA
ATOM      6  N   UNL d   1      28.893 -16.802  -0.081  0.00  0.00    -0.224 N 
ATOM      7  H   UNL d   1      26.949 -17.944   0.877  0.00  0.00     0.184 HD
ATOM      8  H   UNL d   1      29.088 -17.384   0.718  0.00  0.00     0.177 HD
ENDROOT
BRANCH   1   9
ATOM      9  C   UNL d   1      25.245 -17.389  -0.123  0.00  0.00     0.049 A 
ATOM     10  C   UNL d   1      24.485 -16.326  -0.647  0.00  0.00     0.033 A 
ATOM     11  C   UNL d   1      23.081 -16.455  -0.842  0.00  0.00     0.039 A 
ATOM     12  C   UNL d   1      22.422 -17.661  -0.586  0.00  0.00     0.068 A 
ATOM     13  C   UNL d   1      23.173 -18.726  -0.138  0.00  0.00     0.039 A 
ATOM     14  C   UNL d   1      24.542 -18.580   0.074  0.00  0.00     0.033 A 
BRANCH  12  15
ATOM     15  O   UNL d   1      21.093 -17.757  -0.895  0.00  0.00    -0.352 OA
BRANCH  15  16
ATOM     16  C   UNL d   1      20.627 -19.073  -1.227  0.00  0.00     0.171 C 
ATOM     17  C   UNL d   1      19.601 -19.508  -0.196  0.00  0.00     0.034 C 
ENDBRANCH  15  16
ENDBRANCH  12  15
ENDBRANCH   1   9
BRANCH   6  18
ATOM     18  C   UNL d   1      29.969 -16.059  -0.677  0.00  0.00     0.142 C 
BRANCH  18  19
ATOM     19  C   UNL d   1      30.515 -14.820  -0.099  0.00  0.00     0.057 C 
BRANCH  19  20
ATOM     20  C   UNL d   1      30.534 -14.797   1.419  0.00  0.00    -0.048 A 
ATOM     21  C   UNL d   1      29.403 -14.444   2.017  0.00  0.00    -0.006 A 
ATOM     22  C   UNL d   1      28.171 -14.074   1.428  0.00  0.00     0.014 A 
ATOM     23  C   UNL d   1      29.645 -14.430   3.457  0.00  0.00     0.038 A 
ATOM     24  C   UNL d   1      27.223 -13.583   2.222  0.00  0.00     0.001 A 
ATOM     25  C   UNL d   1      27.393 -13.575   3.666  0.00  0.00     0.002 A 
ATOM     26  C   UNL d   1      28.520 -13.970   4.300  0.00  0.00     0.030 A 
ATOM     27  N   UNL d   1      30.830 -14.824   3.736  0.00  0.00    -0.385 N 
ATOM     28  C   UNL d   1      31.604 -15.074   2.461  0.00  0.00     0.155 A 
ATOM     29  H   UNL d   1      31.155 -14.941   4.697  0.00  0.00     0.160 HD
ENDBRANCH  19  20
ENDBRANCH  18  19
ENDBRANCH   6  18
BRANCH   4  30
ATOM     30  C   UNL d   1      27.452 -14.375  -3.520  0.00  0.00     0.035 C 
ATOM     31  C   UNL d   1      28.210 -13.351  -4.128  0.00  0.00     0.019 C 
ATOM     32  C   UNL d   1      27.571 -12.285  -4.747  0.00  0.00     0.030 C 
ATOM     33  C   UNL d   1      26.178 -12.270  -4.783  0.00  0.00     0.034 C 
ATOM     34  C   UNL d   1      25.489 -13.213  -4.019  0.00  0.00     0.030 C 
ATOM     35  C   UNL d   1      26.083 -14.325  -3.471  0.00  0.00     0.019 C 
BRANCH  33  36
ATOM     36  N   UNL d   1      25.530 -11.327  -5.592  0.00  0.00    -0.328 N 
ATOM     37  C   UNL d   1      25.621  -9.963  -5.628  0.00  0.00     0.218 C 
ATOM     38  C   UNL d   1      26.605  -9.165  -4.805  0.00  0.00     0.117 C 
ATOM     39  O   UNL d   1      24.851  -9.359  -6.384  0.00  0.00    -0.274 OA
ATOM     40  H   UNL d   1      24.742 -11.653  -6.146  0.00  0.00     0.169 HD
ENDBRANCH  33  36
ENDBRANCH   4  30
TORSDOF 8
ENDMDL
MODEL 5
REMARK VINA RESULT:   -10.451      1.033      1.541
REMARK INTER + INTRA:         -14.821
REMARK INTER:                 -12.837
REMARK INTRA:                  -1.984
REMARK CONF_INDEPENDENT:        2.386
REMARK UNBOUND:                -1.984
REMARK  8 active torsions:
REMARK  status: ('A' for Active; 'I' for Inactive)
REMARK    1  A    between atoms: C_2  and  O_3 
REMARK    2  A    between atoms: O_3  and  C_4 
REMARK    3  A    between atoms: C_7  and  N_8 
REMARK       I    between atoms: N_8  and  C_9 
REMARK       I    between atoms: C_9  and  N_23 
REMARK       I    between atoms: N_10  and  C_11 
REMARK    4  A    between atoms: C_11  and  C_13 
REMARK    5  A    between atoms: C_16  and  N_17 
REMARK       I    between atoms: N_17  and  C_18 
REMARK    6  A    between atoms: N_23  and  C_24 
REMARK    7  A    between atoms: C_24  and  C_25 
REMARK    8  A    between atoms: C_25  and  C_26 
ROOT
ATOM      1  N   UNL d   1      26.047 -18.139  -0.018  0.00  0.00    -0.190 N 
ATOM      2  C   UNL d   1      26.969 -17.168  -0.445  0.00  0.00     0.704 C 
ATOM      3  N   UNL d   1      26.585 -16.057  -1.008  0.00  0.00    -0.023 NA
ATOM      4  C   UNL d   1      27.306 -14.986  -1.490  0.00  0.00     0.293 C 
ATOM      5  O   UNL d   1      28.460 -14.610  -1.331  0.00  0.00    -0.265 OA
ATOM      6  N   UNL d   1      28.280 -17.542  -0.206  0.00  0.00    -0.224 N 
ATOM      7  H   UNL d   1      26.401 -19.028   0.307  0.00  0.00     0.184 HD
ATOM      8  H   UNL d   1      28.528 -18.407   0.249  0.00  0.00     0.177 HD
ENDROOT
BRANCH   1   9
ATOM      9  C   UNL d   1      24.633 -18.136  -0.229  0.00  0.00     0.049 A 
ATOM     10  C   UNL d   1      23.875 -19.310  -0.400  0.00  0.00     0.033 A 
ATOM     11  C   UNL d   1      22.484 -19.247  -0.696  0.00  0.00     0.039 A 
ATOM     12  C   UNL d   1      21.811 -18.023  -0.757  0.00  0.00     0.068 A 
ATOM     13  C   UNL d   1      22.535 -16.874  -0.522  0.00  0.00     0.039 A 
ATOM     14  C   UNL d   1      23.900 -16.947  -0.259  0.00  0.00     0.033 A 
BRANCH  12  15
ATOM     15  O   UNL d   1      20.454 -18.033  -0.937  0.00  0.00    -0.352 OA
BRANCH  15  16
ATOM     16  C   UNL d   1      19.833 -19.326  -0.895  0.00  0.00     0.171 C 
ATOM     17  C   UNL d   1      19.463 -19.648   0.542  0.00  0.00     0.034 C 
ENDBRANCH  15  16
ENDBRANCH  12  15
ENDBRANCH   1   9
BRANCH   6  18
ATOM     18  C   UNL d   1      29.316 -16.591  -0.501  0.00  0.00     0.142 C 
BRANCH  18  19
ATOM     19  C   UNL d   1      30.684 -16.977  -0.882  0.00  0.00     0.057 C 
BRANCH  19  20
ATOM     20  C   UNL d   1      30.776 -17.732  -2.196  0.00  0.00    -0.048 A 
ATOM     21  C   UNL d   1      30.442 -17.055  -3.288  0.00  0.00    -0.006 A 
ATOM     22  C   UNL d   1      30.001 -15.716  -3.396  0.00  0.00     0.014 A 
ATOM     23  C   UNL d   1      30.542 -17.966  -4.425  0.00  0.00     0.038 A 
ATOM     24  C   UNL d   1      29.549 -15.302  -4.578  0.00  0.00     0.001 A 
ATOM     25  C   UNL d   1      29.653 -16.151  -5.752  0.00  0.00     0.002 A 
ATOM     26  C   UNL d   1      30.121 -17.420  -5.734  0.00  0.00     0.030 A 
ATOM     27  N   UNL d   1      30.984 -19.113  -4.068  0.00  0.00    -0.385 N 
ATOM     28  C   UNL d   1      31.155 -19.156  -2.566  0.00  0.00     0.155 A 
ATOM     29  H   UNL d   1      31.180 -19.857  -4.740  0.00  0.00     0.160 HD
ENDBRANCH  19  20
ENDBRANCH  18  19
ENDBRANCH   6  18
BRANCH   4  30
ATOM     30  C   UNL d   1      26.610 -13.906  -2.150  0.00  0.00     0.035 C 
ATOM     31  C   UNL d   1      25.606 -14.277  -3.071  0.00  0.00     0.019 C 
ATOM     32  C   UNL d   1      25.304 -13.448  -4.143  0.00  0.00     0.030 C 
ATOM     33  C   UNL d   1      25.985 -12.238  -4.265  0.00  0.00     0.034 C 
ATOM     34  C   UNL d   1      27.079 -12.009  -3.429  0.00  0.00     0.030 C 
ATOM     35  C   UNL d   1      27.348 -12.761  -2.311  0.00  0.00     0.019 C 
BRANCH  33  36
ATOM     36  N   UNL d   1      25.536 -11.299  -5.204  0.00  0.00    -0.328 N 
ATOM     37  C   UNL d   1      26.101 -10.855  -6.368  0.00  0.00     0.218 C 
ATOM     38  C   UNL d   1      27.367 -11.429  -6.960  0.00  0.00     0.117 C 
ATOM     39  O   UNL d   1      25.530  -9.934  -6.964  0.00  0.00    -0.274 OA
ATOM     40  H   UNL d   1      24.748 -10.716  -4.937  0.00  0.00     0.169 HD
ENDBRANCH  33  36
ENDBRANCH   4  30
TORSDOF 8
ENDMDL
MODEL 6
REMARK VINA RESULT:   -10.245      2.169      3.898
REMARK INTER + INTRA:         -15.072
REMARK INTER:                 -12.632
REMARK INTRA:                  -2.440
REMARK CONF_INDEPENDENT:        2.386
REMARK UNBOUND:                -2.440
REMARK  8 active torsions:
REMARK  status: ('A' for Active; 'I' for Inactive)
REMARK    1  A    between atoms: C_2  and  O_3 
REMARK    2  A    between atoms: O_3  and  C_4 
REMARK    3  A    between atoms: C_7  and  N_8 
REMARK       I    between atoms: N_8  and  C_9 
REMARK       I    between atoms: C_9  and  N_23 
REMARK       I    between atoms: N_10  and  C_11 
REMARK    4  A    between atoms: C_11  and  C_13 
REMARK    5  A    between atoms: C_16  and  N_17 
REMARK       I    between atoms: N_17  and  C_18 
REMARK    6  A    between atoms: N_23  and  C_24 
REMARK    7  A    between atoms: C_24  and  C_25 
REMARK    8  A    between atoms: C_25  and  C_26 
ROOT
ATOM      1  N   UNL d   1      25.825 -18.138   0.098  0.00  0.00    -0.190 N 
ATOM      2  C   UNL d   1      26.823 -17.459  -0.623  0.00  0.00     0.704 C 
ATOM      3  N   UNL d   1      26.532 -16.638  -1.592  0.00  0.00    -0.023 NA
ATOM      4  C   UNL d   1      27.338 -15.880  -2.413  0.00  0.00     0.293 C 
ATOM      5  O   UNL d   1      28.509 -15.530  -2.351  0.00  0.00    -0.265 OA
ATOM      6  N   UNL d   1      28.098 -17.776  -0.187  0.00  0.00    -0.224 N 
ATOM      7  H   UNL d   1      26.109 -18.846   0.761  0.00  0.00     0.184 HD
ATOM      8  H   UNL d   1      28.274 -18.406   0.580  0.00  0.00     0.177 HD
ENDROOT
BRANCH   1   9
ATOM      9  C   UNL d   1      24.422 -18.146  -0.173  0.00  0.00     0.049 A 
ATOM     10  C   UNL d   1      23.687 -19.323  -0.409  0.00  0.00     0.033 A 
ATOM     11  C   UNL d   1      22.309 -19.269  -0.761  0.00  0.00     0.039 A 
ATOM     12  C   UNL d   1      21.624 -18.052  -0.818  0.00  0.00     0.068 A 
ATOM     13  C   UNL d   1      22.322 -16.901  -0.521  0.00  0.00     0.039 A 
ATOM     14  C   UNL d   1      23.676 -16.965  -0.202  0.00  0.00     0.033 A 
BRANCH  12  15
ATOM     15  O   UNL d   1      20.276 -18.072  -1.055  0.00  0.00    -0.352 OA
BRANCH  15  16
ATOM     16  C   UNL d   1      19.638 -19.348  -0.895  0.00  0.00     0.171 C 
ATOM     17  C   UNL d   1      19.424 -19.610   0.585  0.00  0.00     0.034 C 
ENDBRANCH  15  16
ENDBRANCH  12  15
ENDBRANCH   1   9
BRANCH   6  18
ATOM     18  C   UNL d   1      29.205 -17.070  -0.772  0.00  0.00     0.142 C 
BRANCH  18  19
ATOM     19  C   UNL d   1      30.150 -16.255   0.009  0.00  0.00     0.057 C 
BRANCH  19  20
ATOM     20  C   UNL d   1      30.034 -14.762  -0.234  0.00  0.00    -0.048 A 
ATOM     21  C   UNL d   1      28.925 -14.178   0.204  0.00  0.00    -0.006 A 
ATOM     22  C   UNL d   1      27.822 -14.764   0.867  0.00  0.00     0.014 A 
ATOM     23  C   UNL d   1      28.984 -12.768  -0.174  0.00  0.00     0.038 A 
ATOM     24  C   UNL d   1      26.738 -14.014   1.054  0.00  0.00     0.001 A 
ATOM     25  C   UNL d   1      26.748 -12.598   0.728  0.00  0.00     0.002 A 
ATOM     26  C   UNL d   1      27.789 -11.959   0.149  0.00  0.00     0.030 A 
ATOM     27  N   UNL d   1      30.094 -12.483  -0.744  0.00  0.00    -0.385 N 
ATOM     28  C   UNL d   1      30.923 -13.736  -0.917  0.00  0.00     0.155 A 
ATOM     29  H   UNL d   1      30.338 -11.530  -1.019  0.00  0.00     0.160 HD
ENDBRANCH  19  20
ENDBRANCH  18  19
ENDBRANCH   6  18
BRANCH   4  30
ATOM     30  C   UNL d   1      26.737 -15.109  -3.477  0.00  0.00     0.035 C 
ATOM     31  C   UNL d   1      27.626 -14.499  -4.389  0.00  0.00     0.019 C 
ATOM     32  C   UNL d   1      27.262 -13.327  -5.039  0.00  0.00     0.030 C 
ATOM     33  C   UNL d   1      25.997 -12.795  -4.798  0.00  0.00     0.034 C 
ATOM     34  C   UNL d   1      25.236 -13.342  -3.763  0.00  0.00     0.030 C 
ATOM     35  C   UNL d   1      25.526 -14.545  -3.165  0.00  0.00     0.019 C 
BRANCH  33  36
ATOM     36  N   UNL d   1      25.536 -11.749  -5.609  0.00  0.00    -0.328 N 
ATOM     37  C   UNL d   1      25.996 -10.471  -5.773  0.00  0.00     0.218 C 
ATOM     38  C   UNL d   1      27.262  -9.947  -5.138  0.00  0.00     0.117 C 
ATOM     39  O   UNL d   1      25.331  -9.713  -6.488  0.00  0.00    -0.274 OA
ATOM     40  H   UNL d   1      24.623 -11.864  -6.041  0.00  0.00     0.169 HD
ENDBRANCH  33  36
ENDBRANCH   4  30
TORSDOF 8
ENDMDL
MODEL 7
REMARK VINA RESULT:    -9.868      6.312      8.136
REMARK INTER + INTRA:         -13.914
REMARK INTER:                 -12.255
REMARK INTRA:                  -1.660
REMARK CONF_INDEPENDENT:        2.386
REMARK UNBOUND:                -1.660
REMARK  8 active torsions:
REMARK  status: ('A' for Active; 'I' for Inactive)
REMARK    1  A    between atoms: C_2  and  O_3 
REMARK    2  A    between atoms: O_3  and  C_4 
REMARK    3  A    between atoms: C_7  and  N_8 
REMARK       I    between atoms: N_8  and  C_9 
REMARK       I    between atoms: C_9  and  N_23 
REMARK       I    between atoms: N_10  and  C_11 
REMARK    4  A    between atoms: C_11  and  C_13 
REMARK    5  A    between atoms: C_16  and  N_17 
REMARK       I    between atoms: N_17  and  C_18 
REMARK    6  A    between atoms: N_23  and  C_24 
REMARK    7  A    between atoms: C_24  and  C_25 
REMARK    8  A    between atoms: C_25  and  C_26 
ROOT
ATOM      1  N   UNL d   1      29.245 -14.648   3.568  0.00  0.00    -0.190 N 
ATOM      2  C   UNL d   1      28.845 -14.265   2.277  0.00  0.00     0.704 C 
ATOM      3  N   UNL d   1      28.214 -13.145   2.058  0.00  0.00    -0.023 NA
ATOM      4  C   UNL d   1      27.741 -12.582   0.892  0.00  0.00     0.293 C 
ATOM      5  O   UNL d   1      27.964 -12.790  -0.293  0.00  0.00    -0.265 OA
ATOM      6  N   UNL d   1      29.188 -15.200   1.316  0.00  0.00    -0.224 N 
ATOM      7  H   UNL d   1      29.629 -15.575   3.696  0.00  0.00     0.184 HD
ATOM      8  H   UNL d   1      29.693 -16.046   1.531  0.00  0.00     0.177 HD
ENDROOT
BRANCH   1   9
ATOM      9  C   UNL d   1      28.938 -13.988   4.797  0.00  0.00     0.049 A 
ATOM     10  C   UNL d   1      27.982 -12.959   4.904  0.00  0.00     0.033 A 
ATOM     11  C   UNL d   1      27.778 -12.273   6.134  0.00  0.00     0.039 A 
ATOM     12  C   UNL d   1      28.468 -12.643   7.292  0.00  0.00     0.068 A 
ATOM     13  C   UNL d   1      29.355 -13.694   7.210  0.00  0.00     0.039 A 
ATOM     14  C   UNL d   1      29.565 -14.340   5.994  0.00  0.00     0.033 A 
BRANCH  12  15
ATOM     15  O   UNL d   1      28.151 -12.019   8.468  0.00  0.00    -0.352 OA
BRANCH  15  16
ATOM     16  C   UNL d   1      28.835 -12.505   9.632  0.00  0.00     0.171 C 
ATOM     17  C   UNL d   1      27.848 -13.258  10.507  0.00  0.00     0.034 C 
ENDBRANCH  15  16
ENDBRANCH  12  15
ENDBRANCH   1   9
BRANCH   6  18
ATOM     18  C   UNL d   1      28.928 -14.879  -0.060  0.00  0.00     0.142 C 
BRANCH  18  19
ATOM     19  C   UNL d   1      28.447 -15.863  -1.044  0.00  0.00     0.057 C 
BRANCH  19  20
ATOM     20  C   UNL d   1      27.009 -15.655  -1.482  0.00  0.00    -0.048 A 
ATOM     21  C   UNL d   1      26.099 -16.427  -0.901  0.00  0.00    -0.006 A 
ATOM     22  C   UNL d   1      26.288 -17.432   0.075  0.00  0.00     0.014 A 
ATOM     23  C   UNL d   1      24.802 -16.112  -1.495  0.00  0.00     0.038 A 
ATOM     24  C   UNL d   1      25.248 -18.204   0.384  0.00  0.00     0.001 A 
ATOM     25  C   UNL d   1      23.927 -17.920  -0.149  0.00  0.00     0.002 A 
ATOM     26  C   UNL d   1      23.662 -16.937  -1.040  0.00  0.00     0.030 A 
ATOM     27  N   UNL d   1      24.894 -15.153  -2.337  0.00  0.00    -0.385 N 
ATOM     28  C   UNL d   1      26.341 -14.743  -2.497  0.00  0.00     0.155 A 
ATOM     29  H   UNL d   1      24.077 -14.755  -2.803  0.00  0.00     0.160 HD
ENDBRANCH  19  20
ENDBRANCH  18  19
ENDBRANCH   6  18
BRANCH   4  30
ATOM     30  C   UNL d   1      26.992 -11.348   0.957  0.00  0.00     0.035 C 
ATOM     31  C   UNL d   1      27.479 -10.279   0.174  0.00  0.00     0.019 C 
ATOM     32  C   UNL d   1      27.253  -8.967   0.569  0.00  0.00     0.030 C 
ATOM     33  C   UNL d   1      26.512  -8.736   1.727  0.00  0.00     0.034 C 
ATOM     34  C   UNL d   1      26.209  -9.825   2.545  0.00  0.00     0.030 C 
ATOM     35  C   UNL d   1      26.340 -11.133   2.144  0.00  0.00     0.019 C 
BRANCH  33  36
ATOM     36  N   UNL d   1      26.088  -7.430   2.012  0.00  0.00    -0.328 N 
ATOM     37  C   UNL d   1      25.529  -6.474   1.210  0.00  0.00     0.218 C 
ATOM     38  C   UNL d   1      25.129  -6.712  -0.227  0.00  0.00     0.117 C 
ATOM     39  O   UNL d   1      25.341  -5.356   1.702  0.00  0.00    -0.274 OA
ATOM     40  H   UNL d   1      26.369  -7.036   2.906  0.00  0.00     0.169 HD
ENDBRANCH  33  36
ENDBRANCH   4  30
TORSDOF 8
ENDMDL
MODEL 8
REMARK VINA RESULT:    -9.706      3.950      7.513
REMARK INTER + INTRA:         -13.985
REMARK INTER:                 -12.092
REMARK INTRA:                  -1.893
REMARK CONF_INDEPENDENT:        2.386
REMARK UNBOUND:                -1.893
REMARK  8 active torsions:
REMARK  status: ('A' for Active; 'I' for Inactive)
REMARK    1  A    between atoms: C_2  and  O_3 
REMARK    2  A    between atoms: O_3  and  C_4 
REMARK    3  A    between atoms: C_7  and  N_8 
REMARK       I    between atoms: N_8  and  C_9 
REMARK       I    between atoms: C_9  and  N_23 
REMARK       I    between atoms: N_10  and  C_11 
REMARK    4  A    between atoms: C_11  and  C_13 
REMARK    5  A    between atoms: C_16  and  N_17 
REMARK       I    between atoms: N_17  and  C_18 
REMARK    6  A    between atoms: N_23  and  C_24 
REMARK    7  A    between atoms: C_24  and  C_25 
REMARK    8  A    between atoms: C_25  and  C_26 
ROOT
ATOM      1  N   UNL d   1      29.750 -14.989   1.353  0.00  0.00    -0.190 N 
ATOM      2  C   UNL d   1      29.139 -15.758   0.348  0.00  0.00     0.704 C 
ATOM      3  N   UNL d   1      27.855 -15.978   0.337  0.00  0.00    -0.023 NA
ATOM      4  C   UNL d   1      27.062 -16.688  -0.539  0.00  0.00     0.293 C 
ATOM      5  O   UNL d   1      27.232 -17.107  -1.676  0.00  0.00    -0.265 OA
ATOM      6  N   UNL d   1      30.049 -16.235  -0.580  0.00  0.00    -0.224 N 
ATOM      7  H   UNL d   1      30.760 -14.944   1.376  0.00  0.00     0.184 HD
ATOM      8  H   UNL d   1      31.034 -16.024  -0.540  0.00  0.00     0.177 HD
ENDROOT
BRANCH   1   9
ATOM      9  C   UNL d   1      29.133 -14.460   2.527  0.00  0.00     0.049 A 
ATOM     10  C   UNL d   1      29.754 -14.450   3.791  0.00  0.00     0.033 A 
ATOM     11  C   UNL d   1      29.060 -13.992   4.946  0.00  0.00     0.039 A 
ATOM     12  C   UNL d   1      27.766 -13.473   4.854  0.00  0.00     0.068 A 
ATOM     13  C   UNL d   1      27.177 -13.416   3.609  0.00  0.00     0.039 A 
ATOM     14  C   UNL d   1      27.857 -13.891   2.491  0.00  0.00     0.033 A 
BRANCH  12  15
ATOM     15  O   UNL d   1      27.192 -12.948   5.981  0.00  0.00    -0.352 OA
BRANCH  15  16
ATOM     16  C   UNL d   1      28.106 -12.537   7.008  0.00  0.00     0.171 C 
ATOM     17  C   UNL d   1      28.705 -11.195   6.628  0.00  0.00     0.034 C 
ENDBRANCH  15  16
ENDBRANCH  12  15
ENDBRANCH   1   9
BRANCH   6  18
ATOM     18  C   UNL d   1      29.539 -16.949  -1.718  0.00  0.00     0.142 C 
BRANCH  18  19
ATOM     19  C   UNL d   1      29.340 -16.331  -3.039  0.00  0.00     0.057 C 
BRANCH  19  20
ATOM     20  C   UNL d   1      28.929 -14.871  -2.988  0.00  0.00    -0.048 A 
ATOM     21  C   UNL d   1      27.699 -14.591  -3.403  0.00  0.00    -0.006 A 
ATOM     22  C   UNL d   1      26.712 -15.474  -3.898  0.00  0.00     0.014 A 
ATOM     23  C   UNL d   1      27.523 -13.143  -3.328  0.00  0.00     0.038 A 
ATOM     24  C   UNL d   1      25.610 -14.945  -4.425  0.00  0.00     0.001 A 
ATOM     25  C   UNL d   1      25.364 -13.514  -4.350  0.00  0.00     0.002 A 
ATOM     26  C   UNL d   1      26.237 -12.618  -3.836  0.00  0.00     0.030 A 
ATOM     27  N   UNL d   1      28.553 -12.571  -2.827  0.00  0.00    -0.385 N 
ATOM     28  C   UNL d   1      29.640 -13.593  -2.577  0.00  0.00     0.155 A 
ATOM     29  H   UNL d   1      28.583 -11.568  -2.638  0.00  0.00     0.160 HD
ENDBRANCH  19  20
ENDBRANCH  18  19
ENDBRANCH   6  18
BRANCH   4  30
ATOM     30  C   UNL d   1      25.654 -16.837  -0.254  0.00  0.00     0.035 C 
ATOM     31  C   UNL d   1      25.159 -18.160  -0.217  0.00  0.00     0.019 C 
ATOM     32  C   UNL d   1      23.833 -18.417  -0.541  0.00  0.00     0.030 C 
ATOM     33  C   UNL d   1      23.004 -17.344  -0.865  0.00  0.00     0.034 C 
ATOM     34  C   UNL d   1      23.590 -16.091  -1.053  0.00  0.00     0.030 C 
ATOM     35  C   UNL d   1      24.871 -15.787  -0.659  0.00  0.00     0.019 C 
BRANCH  33  36
ATOM     36  N   UNL d   1      21.624 -17.562  -0.972  0.00  0.00    -0.328 N 
ATOM     37  C   UNL d   1      20.848 -18.615  -0.572  0.00  0.00     0.218 C 
ATOM     38  C   UNL d   1      21.370 -19.785   0.230  0.00  0.00     0.117 C 
ATOM     39  O   UNL d   1      19.653 -18.595  -0.885  0.00  0.00    -0.274 OA
ATOM     40  H   UNL d   1      21.101 -16.936  -1.579  0.00  0.00     0.169 HD
ENDBRANCH  33  36
ENDBRANCH   4  30
TORSDOF 8
ENDMDL
MODEL 9
REMARK VINA RESULT:    -9.386      2.194      2.901
REMARK INTER + INTRA:         -14.124
REMARK INTER:                 -11.772
REMARK INTRA:                  -2.351
REMARK CONF_INDEPENDENT:        2.386
REMARK UNBOUND:                -2.351
REMARK  8 active torsions:
REMARK  status: ('A' for Active; 'I' for Inactive)
REMARK    1  A    between atoms: C_2  and  O_3 
REMARK    2  A    between atoms: O_3  and  C_4 
REMARK    3  A    between atoms: C_7  and  N_8 
REMARK       I    between atoms: N_8  and  C_9 
REMARK       I    between atoms: C_9  and  N_23 
REMARK       I    between atoms: N_10  and  C_11 
REMARK    4  A    between atoms: C_11  and  C_13 
REMARK    5  A    between atoms: C_16  and  N_17 
REMARK       I    between atoms: N_17  and  C_18 
REMARK    6  A    between atoms: N_23  and  C_24 
REMARK    7  A    between atoms: C_24  and  C_25 
REMARK    8  A    between atoms: C_25  and  C_26 
ROOT
ATOM      1  N   UNL d   1      28.390 -17.976  -0.152  0.00  0.00    -0.190 N 
ATOM      2  C   UNL d   1      29.439 -17.541  -0.980  0.00  0.00     0.704 C 
ATOM      3  N   UNL d   1      29.248 -16.669  -1.929  0.00  0.00    -0.023 NA
ATOM      4  C   UNL d   1      30.120 -16.111  -2.839  0.00  0.00     0.293 C 
ATOM      5  O   UNL d   1      31.340 -16.041  -2.900  0.00  0.00    -0.265 OA
ATOM      6  N   UNL d   1      30.645 -18.146  -0.668  0.00  0.00    -0.224 N 
ATOM      7  H   UNL d   1      28.569 -18.735   0.492  0.00  0.00     0.184 HD
ATOM      8  H   UNL d   1      30.748 -18.805   0.088  0.00  0.00     0.177 HD
ENDROOT
BRANCH   1   9
ATOM      9  C   UNL d   1      27.003 -17.658  -0.280  0.00  0.00     0.049 A 
ATOM     10  C   UNL d   1      26.005 -18.201   0.551  0.00  0.00     0.033 A 
ATOM     11  C   UNL d   1      24.628 -17.920   0.323  0.00  0.00     0.039 A 
ATOM     12  C   UNL d   1      24.226 -17.043  -0.688  0.00  0.00     0.068 A 
ATOM     13  C   UNL d   1      25.203 -16.455  -1.461  0.00  0.00     0.039 A 
ATOM     14  C   UNL d   1      26.545 -16.758  -1.245  0.00  0.00     0.033 A 
BRANCH  12  15
ATOM     15  O   UNL d   1      22.898 -16.728  -0.788  0.00  0.00    -0.352 OA
BRANCH  15  16
ATOM     16  C   UNL d   1      21.992 -17.841  -0.746  0.00  0.00     0.171 C 
ATOM     17  C   UNL d   1      22.531 -18.949  -1.633  0.00  0.00     0.034 C 
ENDBRANCH  15  16
ENDBRANCH  12  15
ENDBRANCH   1   9
BRANCH   6  18
ATOM     18  C   UNL d   1      31.819 -17.711  -1.373  0.00  0.00     0.142 C 
BRANCH  18  19
ATOM     19  C   UNL d   1      32.640 -18.603  -2.207  0.00  0.00     0.057 C 
BRANCH  19  20
ATOM     20  C   UNL d   1      31.840 -19.506  -3.129  0.00  0.00    -0.048 A 
ATOM     21  C   UNL d   1      31.643 -19.061  -4.364  0.00  0.00    -0.006 A 
ATOM     22  C   UNL d   1      32.074 -17.846  -4.943  0.00  0.00     0.014 A 
ATOM     23  C   UNL d   1      30.813 -20.039  -5.063  0.00  0.00     0.038 A 
ATOM     24  C   UNL d   1      31.607 -17.529  -6.149  0.00  0.00     0.001 A 
ATOM     25  C   UNL d   1      30.804 -18.475  -6.906  0.00  0.00     0.002 A 
ATOM     26  C   UNL d   1      30.405 -19.679  -6.438  0.00  0.00     0.030 A 
ATOM     27  N   UNL d   1      30.575 -21.060  -4.329  0.00  0.00    -0.385 N 
ATOM     28  C   UNL d   1      31.158 -20.852  -2.950  0.00  0.00     0.155 A 
ATOM     29  H   UNL d   1      30.065 -21.875  -4.676  0.00  0.00     0.160 HD
ENDBRANCH  19  20
ENDBRANCH  18  19
ENDBRANCH   6  18
BRANCH   4  30
ATOM     30  C   UNL d   1      29.607 -15.215  -3.850  0.00  0.00     0.035 C 
ATOM     31  C   UNL d   1      28.376 -15.575  -4.440  0.00  0.00     0.019 C 
ATOM     32  C   UNL d   1      28.086 -15.185  -5.741  0.00  0.00     0.030 C 
ATOM     33  C   UNL d   1      29.016 -14.407  -6.428  0.00  0.00     0.034 C 
ATOM     34  C   UNL d   1      30.279 -14.233  -5.860  0.00  0.00     0.030 C 
ATOM     35  C   UNL d   1      30.567 -14.528  -4.549  0.00  0.00     0.019 C 
BRANCH  33  36
ATOM     36  N   UNL d   1      28.644 -13.823  -7.647  0.00  0.00    -0.328 N 
ATOM     37  C   UNL d   1      28.189 -12.566  -7.937  0.00  0.00     0.218 C 
ATOM     38  C   UNL d   1      28.106 -11.449  -6.923  0.00  0.00     0.117 C 
ATOM     39  O   UNL d   1      27.833 -12.342  -9.099  0.00  0.00    -0.274 OA
ATOM     40  H   UNL d   1      28.526 -14.444  -8.442  0.00  0.00     0.169 HD
ENDBRANCH  33  36
ENDBRANCH   4  30
TORSDOF 8
ENDMDL
