MODEL 1
REMARK VINA RESULT:    -8.678      0.000      0.000
REMARK INTER + INTRA:         -13.457
REMARK INTER:                 -11.661
REMARK INTRA:                  -1.795
REMARK CONF_INDEPENDENT:        2.983
REMARK UNBOUND:                -1.795
REMARK  10 active torsions:
REMARK  status: ('A' for Active; 'I' for Inactive)
REMARK    1  A    between atoms: O_2  and  C_3 
REMARK    2  A    between atoms: C_6  and  C_7 
REMARK    3  A    between atoms: C_7  and  C_8 
REMARK    4  A    between atoms: C_8  and  N_9 
REMARK       I    between atoms: N_9  and  C_10 
REMARK    5  A    between atoms: C_10  and  C_12 
REMARK    6  A    between atoms: C_12  and  N_14 
REMARK    7  A    between atoms: N_14  and  C_15 
REMARK    8  A    between atoms: C_19  and  N_20 
REMARK       I    between atoms: N_20  and  C_21 
REMARK    9  A    between atoms: C_21  and  C_23 
REMARK   10  A    between atoms: C_23  and  O_24 
ROOT
ATOM      1  C   UNL d   1      25.819 -14.367  -3.301  0.00  0.00     0.170 C 
ATOM      2  C   UNL d   1      25.313 -13.068  -3.922  0.00  0.00     0.042 C 
ENDROOT
BRANCH   1   3
ATOM      3  C   UNL d   1      26.659 -15.084  -4.382  0.00  0.00     0.239 C 
ATOM      4  N   UNL d   1      28.024 -15.134  -4.127  0.00  0.00    -0.359 N 
ATOM      5  H   UNL d   1      28.415 -14.693  -3.305  0.00  0.00     0.162 HD
ATOM      6  O   UNL d   1      26.160 -15.577  -5.395  0.00  0.00    -0.271 OA
BRANCH   4   7
ATOM      7  C   UNL d   1      28.906 -15.732  -5.094  0.00  0.00     0.127 C 
BRANCH   7   8
ATOM      8  C   UNL d   1      29.978 -16.661  -4.513  0.00  0.00     0.058 C 
BRANCH   8   9
ATOM      9  C   UNL d   1      30.429 -17.731  -5.487  0.00  0.00    -0.057 A 
ATOM     10  C   UNL d   1      30.842 -17.377  -6.779  0.00  0.00     0.010 A 
ATOM     11  C   UNL d   1      31.132 -18.369  -7.725  0.00  0.00     0.037 A 
ATOM     12  C   UNL d   1      31.076 -19.721  -7.380  0.00  0.00     0.068 A 
ATOM     13  C   UNL d   1      30.729 -20.076  -6.085  0.00  0.00     0.037 A 
ATOM     14  C   UNL d   1      30.405 -19.093  -5.154  0.00  0.00     0.010 A 
BRANCH  12  15
ATOM     15  O   UNL d   1      31.463 -20.617  -8.337  0.00  0.00    -0.356 OA
ATOM     16  C   UNL d   1      31.913 -21.877  -7.843  0.00  0.00     0.210 C 
ENDBRANCH  12  15
ENDBRANCH   8   9
ENDBRANCH   7   8
ENDBRANCH   4   7
ENDBRANCH   1   3
BRANCH   1  17
ATOM     17  N   UNL d   1      24.785 -15.290  -2.765  0.00  0.00    -0.377 N 
ATOM     18  H   UNL d   1      23.829 -15.077  -3.052  0.00  0.00     0.160 HD
BRANCH  17  19
ATOM     19  C   UNL d   1      24.957 -16.230  -1.769  0.00  0.00     0.030 A 
ATOM     20  C   UNL d   1      26.128 -16.350  -1.036  0.00  0.00     0.029 A 
ATOM     21  C   UNL d   1      26.252 -17.352  -0.052  0.00  0.00     0.004 A 
ATOM     22  C   UNL d   1      25.170 -18.200   0.271  0.00  0.00     0.029 A 
ATOM     23  C   UNL d   1      23.987 -18.100  -0.452  0.00  0.00     0.036 A 
ATOM     24  C   UNL d   1      23.961 -17.149  -1.466  0.00  0.00     0.058 A 
BRANCH  23  25
ATOM     25  N   UNL d   1      22.858 -18.951  -0.236  0.00  0.00    -0.325 N 
ATOM     26  C   UNL d   1      21.545 -18.648  -0.613  0.00  0.00     0.245 C 
ATOM     27  O   UNL d   1      21.142 -17.597  -1.129  0.00  0.00    -0.271 OA
ATOM     28  H   UNL d   1      23.037 -19.832   0.230  0.00  0.00     0.169 HD
BRANCH  26  29
ATOM     29  C   UNL d   1      20.480 -19.696  -0.319  0.00  0.00     0.267 C 
BRANCH  29  30
ATOM     30  O   UNL d   1      19.427 -19.640  -1.286  0.00  0.00    -0.392 OA
ATOM     31  H   UNL d   1      19.434 -18.728  -1.644  0.00  0.00     0.210 HD
ENDBRANCH  29  30
ENDBRANCH  26  29
ENDBRANCH  23  25
ENDBRANCH  17  19
ENDBRANCH   1  17
TORSDOF 10
ENDMDL
MODEL 2
REMARK VINA RESULT:    -8.457      1.035      1.322
REMARK INTER + INTRA:         -13.602
REMARK INTER:                 -11.440
REMARK INTRA:                  -2.162
REMARK CONF_INDEPENDENT:        2.983
REMARK UNBOUND:                -2.162
REMARK  10 active torsions:
REMARK  status: ('A' for Active; 'I' for Inactive)
REMARK    1  A    between atoms: O_2  and  C_3 
REMARK    2  A    between atoms: C_6  and  C_7 
REMARK    3  A    between atoms: C_7  and  C_8 
REMARK    4  A    between atoms: C_8  and  N_9 
REMARK       I    between atoms: N_9  and  C_10 
REMARK    5  A    between atoms: C_10  and  C_12 
REMARK    6  A    between atoms: C_12  and  N_14 
REMARK    7  A    between atoms: N_14  and  C_15 
REMARK    8  A    between atoms: C_19  and  N_20 
REMARK       I    between atoms: N_20  and  C_21 
REMARK    9  A    between atoms: C_21  and  C_23 
REMARK   10  A    between atoms: C_23  and  O_24 
ROOT
ATOM      1  C   UNL d   1      26.354 -15.065  -3.407  0.00  0.00     0.170 C 
ATOM      2  C   UNL d   1      25.735 -13.684  -3.215  0.00  0.00     0.042 C 
ENDROOT
BRANCH   1   3
ATOM      3  C   UNL d   1      26.835 -15.141  -4.874  0.00  0.00     0.239 C 
ATOM      4  N   UNL d   1      28.067 -14.545  -5.119  0.00  0.00    -0.359 N 
ATOM      5  H   UNL d   1      28.571 -14.072  -4.381  0.00  0.00     0.162 HD
ATOM      6  O   UNL d   1      26.179 -15.688  -5.763  0.00  0.00    -0.271 OA
BRANCH   4   7
ATOM      7  C   UNL d   1      28.584 -14.511  -6.461  0.00  0.00     0.127 C 
BRANCH   7   8
ATOM      8  C   UNL d   1      30.057 -14.914  -6.603  0.00  0.00     0.058 C 
BRANCH   8   9
ATOM      9  C   UNL d   1      30.312 -16.367  -6.257  0.00  0.00    -0.057 A 
ATOM     10  C   UNL d   1      30.778 -17.253  -7.239  0.00  0.00     0.010 A 
ATOM     11  C   UNL d   1      30.888 -18.622  -6.962  0.00  0.00     0.037 A 
ATOM     12  C   UNL d   1      30.596 -19.117  -5.689  0.00  0.00     0.068 A 
ATOM     13  C   UNL d   1      30.195 -18.236  -4.694  0.00  0.00     0.037 A 
ATOM     14  C   UNL d   1      30.050 -16.882  -4.979  0.00  0.00     0.010 A 
BRANCH  12  15
ATOM     15  O   UNL d   1      30.819 -20.449  -5.480  0.00  0.00    -0.356 OA
ATOM     16  C   UNL d   1      31.896 -21.010  -6.229  0.00  0.00     0.210 C 
ENDBRANCH  12  15
ENDBRANCH   8   9
ENDBRANCH   7   8
ENDBRANCH   4   7
ENDBRANCH   1   3
BRANCH   1  17
ATOM     17  N   UNL d   1      25.484 -16.229  -3.096  0.00  0.00    -0.377 N 
ATOM     18  H   UNL d   1      24.798 -16.456  -3.817  0.00  0.00     0.160 HD
BRANCH  17  19
ATOM     19  C   UNL d   1      25.362 -16.863  -1.877  0.00  0.00     0.030 A 
ATOM     20  C   UNL d   1      26.338 -16.806  -0.894  0.00  0.00     0.029 A 
ATOM     21  C   UNL d   1      26.167 -17.503   0.320  0.00  0.00     0.004 A 
ATOM     22  C   UNL d   1      24.973 -18.203   0.602  0.00  0.00     0.029 A 
ATOM     23  C   UNL d   1      23.981 -18.275  -0.370  0.00  0.00     0.036 A 
ATOM     24  C   UNL d   1      24.250 -17.639  -1.577  0.00  0.00     0.058 A 
BRANCH  23  25
ATOM     25  N   UNL d   1      22.764 -19.006  -0.199  0.00  0.00    -0.325 N 
ATOM     26  C   UNL d   1      21.496 -18.545  -0.570  0.00  0.00     0.245 C 
ATOM     27  O   UNL d   1      21.216 -17.435  -1.042  0.00  0.00    -0.271 OA
ATOM     28  H   UNL d   1      22.841 -19.921   0.229  0.00  0.00     0.169 HD
BRANCH  26  29
ATOM     29  C   UNL d   1      20.320 -19.482  -0.329  0.00  0.00     0.267 C 
BRANCH  29  30
ATOM     30  O   UNL d   1      19.368 -19.392  -1.394  0.00  0.00    -0.392 OA
ATOM     31  H   UNL d   1      19.327 -18.444  -1.643  0.00  0.00     0.210 HD
ENDBRANCH  29  30
ENDBRANCH  26  29
ENDBRANCH  23  25
ENDBRANCH  17  19
ENDBRANCH   1  17
TORSDOF 10
ENDMDL
MODEL 3
REMARK VINA RESULT:    -8.322      7.201     10.145
REMARK INTER + INTRA:         -13.376
REMARK INTER:                 -11.305
REMARK INTRA:                  -2.071
REMARK CONF_INDEPENDENT:        2.983
REMARK UNBOUND:                -2.071
REMARK  10 active torsions:
REMARK  status: ('A' for Active; 'I' for Inactive)
REMARK    1  A    between atoms: O_2  and  C_3 
REMARK    2  A    between atoms: C_6  and  C_7 
REMARK    3  A    between atoms: C_7  and  C_8 
REMARK    4  A    between atoms: C_8  and  N_9 
REMARK       I    between atoms: N_9  and  C_10 
REMARK    5  A    between atoms: C_10  and  C_12 
REMARK    6  A    between atoms: C_12  and  N_14 
REMARK    7  A    between atoms: N_14  and  C_15 
REMARK    8  A    between atoms: C_19  and  N_20 
REMARK       I    between atoms: N_20  and  C_21 
REMARK    9  A    between atoms: C_21  and  C_23 
REMARK   10  A    between atoms: C_23  and  O_24 
ROOT
ATOM      1  C   UNL d   1      28.284 -14.467   2.900  0.00  0.00     0.170 C 
ATOM      2  C   UNL d   1      29.586 -13.843   2.407  0.00  0.00     0.042 C 
ENDROOT
BRANCH   1   3
ATOM      3  C   UNL d   1      27.441 -14.796   1.647  0.00  0.00     0.239 C 
ATOM      4  N   UNL d   1      27.737 -16.012   1.043  0.00  0.00    -0.359 N 
ATOM      5  H   UNL d   1      28.480 -16.600   1.398  0.00  0.00     0.162 HD
ATOM      6  O   UNL d   1      26.570 -14.040   1.212  0.00  0.00    -0.271 OA
BRANCH   4   7
ATOM      7  C   UNL d   1      27.049 -16.393  -0.161  0.00  0.00     0.127 C 
BRANCH   7   8
ATOM      8  C   UNL d   1      26.416 -17.789  -0.137  0.00  0.00     0.058 C 
BRANCH   8   9
ATOM      9  C   UNL d   1      24.907 -17.759  -0.278  0.00  0.00    -0.057 A 
ATOM     10  C   UNL d   1      24.171 -18.950  -0.213  0.00  0.00     0.010 A 
ATOM     11  C   UNL d   1      22.794 -18.946  -0.474  0.00  0.00     0.037 A 
ATOM     12  C   UNL d   1      22.123 -17.751  -0.742  0.00  0.00     0.068 A 
ATOM     13  C   UNL d   1      22.836 -16.560  -0.747  0.00  0.00     0.037 A 
ATOM     14  C   UNL d   1      24.209 -16.567  -0.523  0.00  0.00     0.010 A 
BRANCH  12  15
ATOM     15  O   UNL d   1      20.767 -17.827  -0.895  0.00  0.00    -0.356 OA
ATOM     16  C   UNL d   1      20.184 -19.078  -0.535  0.00  0.00     0.210 C 
ENDBRANCH  12  15
ENDBRANCH   8   9
ENDBRANCH   7   8
ENDBRANCH   4   7
ENDBRANCH   1   3
BRANCH   1  17
ATOM     17  N   UNL d   1      27.482 -13.656   3.853  0.00  0.00    -0.377 N 
ATOM     18  H   UNL d   1      26.544 -13.418   3.530  0.00  0.00     0.160 HD
BRANCH  17  19
ATOM     19  C   UNL d   1      27.946 -13.022   4.988  0.00  0.00     0.030 A 
ATOM     20  C   UNL d   1      28.028 -11.643   5.103  0.00  0.00     0.029 A 
ATOM     21  C   UNL d   1      28.540 -11.056   6.278  0.00  0.00     0.004 A 
ATOM     22  C   UNL d   1      28.902 -11.843   7.393  0.00  0.00     0.029 A 
ATOM     23  C   UNL d   1      28.830 -13.229   7.300  0.00  0.00     0.036 A 
ATOM     24  C   UNL d   1      28.399 -13.745   6.083  0.00  0.00     0.058 A 
BRANCH  23  25
ATOM     25  N   UNL d   1      29.227 -14.110   8.354  0.00  0.00    -0.325 N 
ATOM     26  C   UNL d   1      28.755 -14.045   9.670  0.00  0.00     0.245 C 
ATOM     27  O   UNL d   1      27.983 -13.202  10.143  0.00  0.00    -0.271 OA
ATOM     28  H   UNL d   1      29.904 -14.825   8.117  0.00  0.00     0.169 HD
BRANCH  26  29
ATOM     29  C   UNL d   1      29.280 -15.090  10.646  0.00  0.00     0.267 C 
BRANCH  29  30
ATOM     30  O   UNL d   1      30.358 -15.833  10.068  0.00  0.00    -0.392 OA
ATOM     31  H   UNL d   1      30.132 -15.949   9.121  0.00  0.00     0.210 HD
ENDBRANCH  29  30
ENDBRANCH  26  29
ENDBRANCH  23  25
ENDBRANCH  17  19
ENDBRANCH   1  17
TORSDOF 10
ENDMDL
MODEL 4
REMARK VINA RESULT:    -7.954      3.608      6.192
REMARK INTER + INTRA:         -13.240
REMARK INTER:                 -10.937
REMARK INTRA:                  -2.303
REMARK CONF_INDEPENDENT:        2.983
REMARK UNBOUND:                -2.303
REMARK  10 active torsions:
REMARK  status: ('A' for Active; 'I' for Inactive)
REMARK    1  A    between atoms: O_2  and  C_3 
REMARK    2  A    between atoms: C_6  and  C_7 
REMARK    3  A    between atoms: C_7  and  C_8 
REMARK    4  A    between atoms: C_8  and  N_9 
REMARK       I    between atoms: N_9  and  C_10 
REMARK    5  A    between atoms: C_10  and  C_12 
REMARK    6  A    between atoms: C_12  and  N_14 
REMARK    7  A    between atoms: N_14  and  C_15 
REMARK    8  A    between atoms: C_19  and  N_20 
REMARK       I    between atoms: N_20  and  C_21 
REMARK    9  A    between atoms: C_21  and  C_23 
REMARK   10  A    between atoms: C_23  and  O_24 
ROOT
ATOM      1  C   UNL d   1      26.094 -14.971  -3.355  0.00  0.00     0.170 C 
ATOM      2  C   UNL d   1      25.285 -13.695  -3.144  0.00  0.00     0.042 C 
ENDROOT
BRANCH   1   3
ATOM      3  C   UNL d   1      26.610 -14.939  -4.812  0.00  0.00     0.239 C 
ATOM      4  N   UNL d   1      27.700 -14.105  -5.031  0.00  0.00    -0.359 N 
ATOM      5  H   UNL d   1      28.083 -13.544  -4.282  0.00  0.00     0.162 HD
ATOM      6  O   UNL d   1      26.097 -15.603  -5.715  0.00  0.00    -0.271 OA
BRANCH   4   7
ATOM      7  C   UNL d   1      28.226 -13.960  -6.362  0.00  0.00     0.127 C 
BRANCH   7   8
ATOM      8  C   UNL d   1      28.355 -12.515  -6.858  0.00  0.00     0.058 C 
BRANCH   8   9
ATOM      9  C   UNL d   1      27.330 -11.582  -6.243  0.00  0.00    -0.057 A 
ATOM     10  C   UNL d   1      26.341 -10.996  -7.044  0.00  0.00     0.010 A 
ATOM     11  C   UNL d   1      25.476 -10.032  -6.509  0.00  0.00     0.037 A 
ATOM     12  C   UNL d   1      25.544  -9.686  -5.158  0.00  0.00     0.068 A 
ATOM     13  C   UNL d   1      26.480 -10.308  -4.345  0.00  0.00     0.037 A 
ATOM     14  C   UNL d   1      27.364 -11.238  -4.883  0.00  0.00     0.010 A 
BRANCH  12  15
ATOM     15  O   UNL d   1      24.603  -8.806  -4.700  0.00  0.00    -0.356 OA
ATOM     16  C   UNL d   1      24.182  -7.821  -5.643  0.00  0.00     0.210 C 
ENDBRANCH  12  15
ENDBRANCH   8   9
ENDBRANCH   7   8
ENDBRANCH   4   7
ENDBRANCH   1   3
BRANCH   1  17
ATOM     17  N   UNL d   1      25.389 -16.252  -3.093  0.00  0.00    -0.377 N 
ATOM     18  H   UNL d   1      24.816 -16.592  -3.866  0.00  0.00     0.160 HD
BRANCH  17  19
ATOM     19  C   UNL d   1      25.254 -16.883  -1.873  0.00  0.00     0.030 A 
ATOM     20  C   UNL d   1      26.219 -16.823  -0.880  0.00  0.00     0.029 A 
ATOM     21  C   UNL d   1      26.034 -17.515   0.335  0.00  0.00     0.004 A 
ATOM     22  C   UNL d   1      24.837 -18.214   0.606  0.00  0.00     0.029 A 
ATOM     23  C   UNL d   1      23.856 -18.289  -0.376  0.00  0.00     0.036 A 
ATOM     24  C   UNL d   1      24.139 -17.657  -1.582  0.00  0.00     0.058 A 
BRANCH  23  25
ATOM     25  N   UNL d   1      22.637 -19.019  -0.216  0.00  0.00    -0.325 N 
ATOM     26  C   UNL d   1      21.379 -18.575  -0.636  0.00  0.00     0.245 C 
ATOM     27  O   UNL d   1      21.108 -17.481  -1.150  0.00  0.00    -0.271 OA
ATOM     28  H   UNL d   1      22.705 -19.920   0.242  0.00  0.00     0.169 HD
BRANCH  26  29
ATOM     29  C   UNL d   1      20.199 -19.509  -0.398  0.00  0.00     0.267 C 
BRANCH  29  30
ATOM     30  O   UNL d   1      19.199 -19.337  -1.409  0.00  0.00    -0.392 OA
ATOM     31  H   UNL d   1      19.201 -18.383  -1.633  0.00  0.00     0.210 HD
ENDBRANCH  29  30
ENDBRANCH  26  29
ENDBRANCH  23  25
ENDBRANCH  17  19
ENDBRANCH   1  17
TORSDOF 10
ENDMDL
MODEL 5
REMARK VINA RESULT:    -7.923      2.129      2.872
REMARK INTER + INTRA:         -13.169
REMARK INTER:                 -10.906
REMARK INTRA:                  -2.264
REMARK CONF_INDEPENDENT:        2.983
REMARK UNBOUND:                -2.264
REMARK  10 active torsions:
REMARK  status: ('A' for Active; 'I' for Inactive)
REMARK    1  A    between atoms: O_2  and  C_3 
REMARK    2  A    between atoms: C_6  and  C_7 
REMARK    3  A    between atoms: C_7  and  C_8 
REMARK    4  A    between atoms: C_8  and  N_9 
REMARK       I    between atoms: N_9  and  C_10 
REMARK    5  A    between atoms: C_10  and  C_12 
REMARK    6  A    between atoms: C_12  and  N_14 
REMARK    7  A    between atoms: N_14  and  C_15 
REMARK    8  A    between atoms: C_19  and  N_20 
REMARK       I    between atoms: N_20  and  C_21 
REMARK    9  A    between atoms: C_21  and  C_23 
REMARK   10  A    between atoms: C_23  and  O_24 
ROOT
ATOM      1  C   UNL d   1      25.763 -14.947  -3.433  0.00  0.00     0.170 C 
ATOM      2  C   UNL d   1      24.724 -13.829  -3.435  0.00  0.00     0.042 C 
ENDROOT
BRANCH   1   3
ATOM      3  C   UNL d   1      26.471 -14.903  -4.807  0.00  0.00     0.239 C 
ATOM      4  N   UNL d   1      27.412 -13.889  -4.950  0.00  0.00    -0.359 N 
ATOM      5  H   UNL d   1      27.573 -13.222  -4.207  0.00  0.00     0.162 HD
ATOM      6  O   UNL d   1      26.224 -15.704  -5.710  0.00  0.00    -0.271 OA
BRANCH   4   7
ATOM      7  C   UNL d   1      28.091 -13.724  -6.207  0.00  0.00     0.127 C 
BRANCH   7   8
ATOM      8  C   UNL d   1      29.491 -14.344  -6.278  0.00  0.00     0.058 C 
BRANCH   8   9
ATOM      9  C   UNL d   1      29.732 -15.391  -5.208  0.00  0.00    -0.057 A 
ATOM     10  C   UNL d   1      29.909 -15.005  -3.873  0.00  0.00     0.010 A 
ATOM     11  C   UNL d   1      30.264 -15.952  -2.903  0.00  0.00     0.037 A 
ATOM     12  C   UNL d   1      30.385 -17.302  -3.238  0.00  0.00     0.068 A 
ATOM     13  C   UNL d   1      30.150 -17.701  -4.546  0.00  0.00     0.037 A 
ATOM     14  C   UNL d   1      29.833 -16.756  -5.517  0.00  0.00     0.010 A 
BRANCH  12  15
ATOM     15  O   UNL d   1      30.644 -18.170  -2.213  0.00  0.00    -0.356 OA
ATOM     16  C   UNL d   1      30.050 -17.826  -0.962  0.00  0.00     0.210 C 
ENDBRANCH  12  15
ENDBRANCH   8   9
ENDBRANCH   7   8
ENDBRANCH   4   7
ENDBRANCH   1   3
BRANCH   1  17
ATOM     17  N   UNL d   1      25.258 -16.318  -3.166  0.00  0.00    -0.377 N 
ATOM     18  H   UNL d   1      24.809 -16.773  -3.962  0.00  0.00     0.160 HD
BRANCH  17  19
ATOM     19  C   UNL d   1      25.134 -16.924  -1.932  0.00  0.00     0.030 A 
ATOM     20  C   UNL d   1      26.092 -16.813  -0.936  0.00  0.00     0.029 A 
ATOM     21  C   UNL d   1      25.921 -17.482   0.294  0.00  0.00     0.004 A 
ATOM     22  C   UNL d   1      24.743 -18.208   0.576  0.00  0.00     0.029 A 
ATOM     23  C   UNL d   1      23.769 -18.334  -0.409  0.00  0.00     0.036 A 
ATOM     24  C   UNL d   1      24.040 -17.722  -1.628  0.00  0.00     0.058 A 
BRANCH  23  25
ATOM     25  N   UNL d   1      22.570 -19.095  -0.237  0.00  0.00    -0.325 N 
ATOM     26  C   UNL d   1      21.300 -18.691  -0.664  0.00  0.00     0.245 C 
ATOM     27  O   UNL d   1      21.000 -17.615  -1.196  0.00  0.00    -0.271 OA
ATOM     28  H   UNL d   1      22.662 -19.986   0.236  0.00  0.00     0.169 HD
BRANCH  26  29
ATOM     29  C   UNL d   1      20.147 -19.654  -0.411  0.00  0.00     0.267 C 
BRANCH  29  30
ATOM     30  O   UNL d   1      19.261 -19.697  -1.536  0.00  0.00    -0.392 OA
ATOM     31  H   UNL d   1      18.915 -18.786  -1.644  0.00  0.00     0.210 HD
ENDBRANCH  29  30
ENDBRANCH  26  29
ENDBRANCH  23  25
ENDBRANCH  17  19
ENDBRANCH   1  17
TORSDOF 10
ENDMDL
MODEL 6
REMARK VINA RESULT:    -7.766      4.405      8.937
REMARK INTER + INTRA:         -12.676
REMARK INTER:                 -10.749
REMARK INTRA:                  -1.927
REMARK CONF_INDEPENDENT:        2.983
REMARK UNBOUND:                -1.927
REMARK  10 active torsions:
REMARK  status: ('A' for Active; 'I' for Inactive)
REMARK    1  A    between atoms: O_2  and  C_3 
REMARK    2  A    between atoms: C_6  and  C_7 
REMARK    3  A    between atoms: C_7  and  C_8 
REMARK    4  A    between atoms: C_8  and  N_9 
REMARK       I    between atoms: N_9  and  C_10 
REMARK    5  A    between atoms: C_10  and  C_12 
REMARK    6  A    between atoms: C_12  and  N_14 
REMARK    7  A    between atoms: N_14  and  C_15 
REMARK    8  A    between atoms: C_19  and  N_20 
REMARK       I    between atoms: N_20  and  C_21 
REMARK    9  A    between atoms: C_21  and  C_23 
REMARK   10  A    between atoms: C_23  and  O_24 
ROOT
ATOM      1  C   UNL d   1      26.119 -14.299  -4.335  0.00  0.00     0.170 C 
ATOM      2  C   UNL d   1      25.905 -15.551  -5.181  0.00  0.00     0.042 C 
ENDROOT
BRANCH   1   3
ATOM      3  C   UNL d   1      25.561 -14.609  -2.927  0.00  0.00     0.239 C 
ATOM      4  N   UNL d   1      26.516 -14.976  -1.985  0.00  0.00    -0.359 N 
ATOM      5  H   UNL d   1      27.491 -15.061  -2.241  0.00  0.00     0.162 HD
ATOM      6  O   UNL d   1      24.361 -14.537  -2.654  0.00  0.00    -0.271 OA
BRANCH   4   7
ATOM      7  C   UNL d   1      26.100 -15.338  -0.657  0.00  0.00     0.127 C 
BRANCH   7   8
ATOM      8  C   UNL d   1      25.943 -16.843  -0.410  0.00  0.00     0.058 C 
BRANCH   8   9
ATOM      9  C   UNL d   1      24.520 -17.330  -0.600  0.00  0.00    -0.057 A 
ATOM     10  C   UNL d   1      23.484 -16.410  -0.815  0.00  0.00     0.010 A 
ATOM     11  C   UNL d   1      22.152 -16.842  -0.858  0.00  0.00     0.037 A 
ATOM     12  C   UNL d   1      21.839 -18.199  -0.750  0.00  0.00     0.068 A 
ATOM     13  C   UNL d   1      22.865 -19.122  -0.600  0.00  0.00     0.037 A 
ATOM     14  C   UNL d   1      24.185 -18.690  -0.521  0.00  0.00     0.010 A 
BRANCH  12  15
ATOM     15  O   UNL d   1      20.524 -18.541  -0.895  0.00  0.00    -0.356 OA
ATOM     16  C   UNL d   1      20.049 -19.529   0.019  0.00  0.00     0.210 C 
ENDBRANCH  12  15
ENDBRANCH   8   9
ENDBRANCH   7   8
ENDBRANCH   4   7
ENDBRANCH   1   3
BRANCH   1  17
ATOM     17  N   UNL d   1      25.520 -13.041  -4.853  0.00  0.00    -0.377 N 
ATOM     18  H   UNL d   1      24.745 -13.171  -5.504  0.00  0.00     0.160 HD
BRANCH  17  19
ATOM     19  C   UNL d   1      26.040 -11.769  -4.725  0.00  0.00     0.030 A 
ATOM     20  C   UNL d   1      27.077 -11.293  -5.513  0.00  0.00     0.029 A 
ATOM     21  C   UNL d   1      27.584  -9.993  -5.313  0.00  0.00     0.004 A 
ATOM     22  C   UNL d   1      27.002  -9.116  -4.371  0.00  0.00     0.029 A 
ATOM     23  C   UNL d   1      25.962  -9.572  -3.568  0.00  0.00     0.036 A 
ATOM     24  C   UNL d   1      25.568 -10.892  -3.758  0.00  0.00     0.058 A 
BRANCH  23  25
ATOM     25  N   UNL d   1      25.348  -8.778  -2.550  0.00  0.00    -0.325 N 
ATOM     26  C   UNL d   1      25.948  -8.435  -1.333  0.00  0.00     0.245 C 
ATOM     27  O   UNL d   1      27.057  -8.801  -0.920  0.00  0.00    -0.271 OA
ATOM     28  H   UNL d   1      24.408  -8.450  -2.735  0.00  0.00     0.169 HD
BRANCH  26  29
ATOM     29  C   UNL d   1      25.141  -7.558  -0.385  0.00  0.00     0.267 C 
BRANCH  29  30
ATOM     30  O   UNL d   1      25.464  -7.847   0.979  0.00  0.00    -0.392 OA
ATOM     31  H   UNL d   1      26.314  -8.335   0.960  0.00  0.00     0.210 HD
ENDBRANCH  29  30
ENDBRANCH  26  29
ENDBRANCH  23  25
ENDBRANCH  17  19
ENDBRANCH   1  17
TORSDOF 10
ENDMDL
MODEL 7
REMARK VINA RESULT:    -7.632      2.788      4.470
REMARK INTER + INTRA:         -12.732
REMARK INTER:                 -10.615
REMARK INTRA:                  -2.118
REMARK CONF_INDEPENDENT:        2.983
REMARK UNBOUND:                -2.118
REMARK  10 active torsions:
REMARK  status: ('A' for Active; 'I' for Inactive)
REMARK    1  A    between atoms: O_2  and  C_3 
REMARK    2  A    between atoms: C_6  and  C_7 
REMARK    3  A    between atoms: C_7  and  C_8 
REMARK    4  A    between atoms: C_8  and  N_9 
REMARK       I    between atoms: N_9  and  C_10 
REMARK    5  A    between atoms: C_10  and  C_12 
REMARK    6  A    between atoms: C_12  and  N_14 
REMARK    7  A    between atoms: N_14  and  C_15 
REMARK    8  A    between atoms: C_19  and  N_20 
REMARK       I    between atoms: N_20  and  C_21 
REMARK    9  A    between atoms: C_21  and  C_23 
REMARK   10  A    between atoms: C_23  and  O_24 
ROOT
ATOM      1  C   UNL d   1      25.789 -14.404  -3.308  0.00  0.00     0.170 C 
ATOM      2  C   UNL d   1      25.274 -13.151  -4.009  0.00  0.00     0.042 C 
ENDROOT
BRANCH   1   3
ATOM      3  C   UNL d   1      26.705 -15.138  -4.315  0.00  0.00     0.239 C 
ATOM      4  N   UNL d   1      28.031 -15.261  -3.919  0.00  0.00    -0.359 N 
ATOM      5  H   UNL d   1      28.353 -14.858  -3.049  0.00  0.00     0.162 HD
ATOM      6  O   UNL d   1      26.293 -15.582  -5.389  0.00  0.00    -0.271 OA
BRANCH   4   7
ATOM      7  C   UNL d   1      28.982 -15.879  -4.805  0.00  0.00     0.127 C 
BRANCH   7   8
ATOM      8  C   UNL d   1      29.929 -14.911  -5.524  0.00  0.00     0.058 C 
BRANCH   8   9
ATOM      9  C   UNL d   1      29.201 -13.794  -6.245  0.00  0.00    -0.057 A 
ATOM     10  C   UNL d   1      29.242 -13.716  -7.644  0.00  0.00     0.010 A 
ATOM     11  C   UNL d   1      28.686 -12.615  -8.308  0.00  0.00     0.037 A 
ATOM     12  C   UNL d   1      28.028 -11.611  -7.595  0.00  0.00     0.068 A 
ATOM     13  C   UNL d   1      27.929 -11.713  -6.214  0.00  0.00     0.037 A 
ATOM     14  C   UNL d   1      28.513 -12.788  -5.551  0.00  0.00     0.010 A 
BRANCH  12  15
ATOM     15  O   UNL d   1      27.435 -10.621  -8.328  0.00  0.00    -0.356 OA
ATOM     16  C   UNL d   1      26.456 -11.064  -9.266  0.00  0.00     0.210 C 
ENDBRANCH  12  15
ENDBRANCH   8   9
ENDBRANCH   7   8
ENDBRANCH   4   7
ENDBRANCH   1   3
BRANCH   1  17
ATOM     17  N   UNL d   1      24.759 -15.339  -2.784  0.00  0.00    -0.377 N 
ATOM     18  H   UNL d   1      23.807 -15.150  -3.102  0.00  0.00     0.160 HD
BRANCH  17  19
ATOM     19  C   UNL d   1      24.921 -16.257  -1.767  0.00  0.00     0.030 A 
ATOM     20  C   UNL d   1      26.082 -16.353  -1.014  0.00  0.00     0.029 A 
ATOM     21  C   UNL d   1      26.197 -17.334  -0.007  0.00  0.00     0.004 A 
ATOM     22  C   UNL d   1      25.116 -18.182   0.317  0.00  0.00     0.029 A 
ATOM     23  C   UNL d   1      23.943 -18.105  -0.426  0.00  0.00     0.036 A 
ATOM     24  C   UNL d   1      23.927 -17.175  -1.460  0.00  0.00     0.058 A 
BRANCH  23  25
ATOM     25  N   UNL d   1      22.817 -18.959  -0.209  0.00  0.00    -0.325 N 
ATOM     26  C   UNL d   1      21.497 -18.642  -0.549  0.00  0.00     0.245 C 
ATOM     27  O   UNL d   1      21.086 -17.576  -1.027  0.00  0.00    -0.271 OA
ATOM     28  H   UNL d   1      23.003 -19.853   0.229  0.00  0.00     0.169 HD
BRANCH  26  29
ATOM     29  C   UNL d   1      20.435 -19.695  -0.260  0.00  0.00     0.267 C 
BRANCH  29  30
ATOM     30  O   UNL d   1      19.461 -19.739  -1.308  0.00  0.00    -0.392 OA
ATOM     31  H   UNL d   1      19.630 -18.954  -1.870  0.00  0.00     0.210 HD
ENDBRANCH  29  30
ENDBRANCH  26  29
ENDBRANCH  23  25
ENDBRANCH  17  19
ENDBRANCH   1  17
TORSDOF 10
ENDMDL
MODEL 8
REMARK VINA RESULT:    -7.167      2.417      3.577
REMARK INTER + INTRA:         -12.670
REMARK INTER:                 -10.150
REMARK INTRA:                  -2.520
REMARK CONF_INDEPENDENT:        2.983
REMARK UNBOUND:                -2.520
REMARK  10 active torsions:
REMARK  status: ('A' for Active; 'I' for Inactive)
REMARK    1  A    between atoms: O_2  and  C_3 
REMARK    2  A    between atoms: C_6  and  C_7 
REMARK    3  A    between atoms: C_7  and  C_8 
REMARK    4  A    between atoms: C_8  and  N_9 
REMARK       I    between atoms: N_9  and  C_10 
REMARK    5  A    between atoms: C_10  and  C_12 
REMARK    6  A    between atoms: C_12  and  N_14 
REMARK    7  A    between atoms: N_14  and  C_15 
REMARK    8  A    between atoms: C_19  and  N_20 
REMARK       I    between atoms: N_20  and  C_21 
REMARK    9  A    between atoms: C_21  and  C_23 
REMARK   10  A    between atoms: C_23  and  O_24 
ROOT
ATOM      1  C   UNL d   1      25.061 -14.592  -3.165  0.00  0.00     0.170 C 
ATOM      2  C   UNL d   1      25.817 -15.570  -4.060  0.00  0.00     0.042 C 
ENDROOT
BRANCH   1   3
ATOM      3  C   UNL d   1      25.581 -13.177  -3.507  0.00  0.00     0.239 C 
ATOM      4  N   UNL d   1      25.415 -12.795  -4.833  0.00  0.00    -0.359 N 
ATOM      5  H   UNL d   1      25.015 -13.432  -5.510  0.00  0.00     0.162 HD
ATOM      6  O   UNL d   1      26.103 -12.438  -2.670  0.00  0.00    -0.271 OA
BRANCH   4   7
ATOM      7  C   UNL d   1      25.912 -11.519  -5.272  0.00  0.00     0.127 C 
BRANCH   7   8
ATOM      8  C   UNL d   1      27.437 -11.422  -5.401  0.00  0.00     0.058 C 
BRANCH   8   9
ATOM      9  C   UNL d   1      28.121 -12.775  -5.392  0.00  0.00    -0.057 A 
ATOM     10  C   UNL d   1      28.155 -13.553  -6.557  0.00  0.00     0.010 A 
ATOM     11  C   UNL d   1      28.667 -14.857  -6.522  0.00  0.00     0.037 A 
ATOM     12  C   UNL d   1      29.208 -15.378  -5.345  0.00  0.00     0.068 A 
ATOM     13  C   UNL d   1      29.236 -14.589  -4.204  0.00  0.00     0.037 A 
ATOM     14  C   UNL d   1      28.694 -13.308  -4.228  0.00  0.00     0.010 A 
BRANCH  12  15
ATOM     15  O   UNL d   1      29.768 -16.623  -5.424  0.00  0.00    -0.356 OA
ATOM     16  C   UNL d   1      30.303 -17.126  -4.201  0.00  0.00     0.210 C 
ENDBRANCH  12  15
ENDBRANCH   8   9
ENDBRANCH   7   8
ENDBRANCH   4   7
ENDBRANCH   1   3
BRANCH   1  17
ATOM     17  N   UNL d   1      25.154 -14.828  -1.701  0.00  0.00    -0.377 N 
ATOM     18  H   UNL d   1      25.308 -13.988  -1.140  0.00  0.00     0.160 HD
BRANCH  17  19
ATOM     19  C   UNL d   1      25.281 -16.048  -1.070  0.00  0.00     0.030 A 
ATOM     20  C   UNL d   1      26.488 -16.525  -0.581  0.00  0.00     0.029 A 
ATOM     21  C   UNL d   1      26.557 -17.795   0.028  0.00  0.00     0.004 A 
ATOM     22  C   UNL d   1      25.397 -18.575   0.231  0.00  0.00     0.029 A 
ATOM     23  C   UNL d   1      24.176 -18.118  -0.252  0.00  0.00     0.036 A 
ATOM     24  C   UNL d   1      24.193 -16.898  -0.919  0.00  0.00     0.058 A 
BRANCH  23  25
ATOM     25  N   UNL d   1      22.959 -18.861  -0.144  0.00  0.00    -0.325 N 
ATOM     26  C   UNL d   1      21.698 -18.388  -0.523  0.00  0.00     0.245 C 
ATOM     27  O   UNL d   1      21.423 -17.258  -0.948  0.00  0.00    -0.271 OA
ATOM     28  H   UNL d   1      23.031 -19.795   0.241  0.00  0.00     0.169 HD
BRANCH  26  29
ATOM     29  C   UNL d   1      20.521 -19.341  -0.354  0.00  0.00     0.267 C 
BRANCH  29  30
ATOM     30  O   UNL d   1      19.683 -19.328  -1.514  0.00  0.00    -0.392 OA
ATOM     31  H   UNL d   1      19.413 -18.394  -1.645  0.00  0.00     0.210 HD
ENDBRANCH  29  30
ENDBRANCH  26  29
ENDBRANCH  23  25
ENDBRANCH  17  19
ENDBRANCH   1  17
TORSDOF 10
ENDMDL
MODEL 9
REMARK VINA RESULT:    -6.885      2.806      4.320
REMARK INTER + INTRA:         -12.719
REMARK INTER:                  -9.868
REMARK INTRA:                  -2.851
REMARK CONF_INDEPENDENT:        2.983
REMARK UNBOUND:                -2.851
REMARK  10 active torsions:
REMARK  status: ('A' for Active; 'I' for Inactive)
REMARK    1  A    between atoms: O_2  and  C_3 
REMARK    2  A    between atoms: C_6  and  C_7 
REMARK    3  A    between atoms: C_7  and  C_8 
REMARK    4  A    between atoms: C_8  and  N_9 
REMARK       I    between atoms: N_9  and  C_10 
REMARK    5  A    between atoms: C_10  and  C_12 
REMARK    6  A    between atoms: C_12  and  N_14 
REMARK    7  A    between atoms: N_14  and  C_15 
REMARK    8  A    between atoms: C_19  and  N_20 
REMARK       I    between atoms: N_20  and  C_21 
REMARK    9  A    between atoms: C_21  and  C_23 
REMARK   10  A    between atoms: C_23  and  O_24 
ROOT
ATOM      1  C   UNL d   1      25.928 -14.577  -3.428  0.00  0.00     0.170 C 
ATOM      2  C   UNL d   1      25.116 -13.552  -4.215  0.00  0.00     0.042 C 
ENDROOT
BRANCH   1   3
ATOM      3  C   UNL d   1      26.943 -15.198  -4.414  0.00  0.00     0.239 C 
ATOM      4  N   UNL d   1      28.242 -15.303  -3.932  0.00  0.00    -0.359 N 
ATOM      5  H   UNL d   1      28.483 -14.956  -3.013  0.00  0.00     0.162 HD
ATOM      6  O   UNL d   1      26.628 -15.574  -5.545  0.00  0.00    -0.271 OA
BRANCH   4   7
ATOM      7  C   UNL d   1      29.278 -15.817  -4.787  0.00  0.00     0.127 C 
BRANCH   7   8
ATOM      8  C   UNL d   1      30.019 -17.045  -4.247  0.00  0.00     0.058 C 
BRANCH   8   9
ATOM      9  C   UNL d   1      30.409 -18.029  -5.332  0.00  0.00    -0.057 A 
ATOM     10  C   UNL d   1      30.733 -17.569  -6.616  0.00  0.00     0.010 A 
ATOM     11  C   UNL d   1      30.963 -18.479  -7.656  0.00  0.00     0.037 A 
ATOM     12  C   UNL d   1      30.936 -19.855  -7.418  0.00  0.00     0.068 A 
ATOM     13  C   UNL d   1      30.677 -20.316  -6.136  0.00  0.00     0.037 A 
ATOM     14  C   UNL d   1      30.413 -19.414  -5.110  0.00  0.00     0.010 A 
BRANCH  12  15
ATOM     15  O   UNL d   1      31.262 -20.668  -8.468  0.00  0.00    -0.356 OA
ATOM     16  C   UNL d   1      31.155 -20.067  -9.758  0.00  0.00     0.210 C 
ENDBRANCH  12  15
ENDBRANCH   8   9
ENDBRANCH   7   8
ENDBRANCH   4   7
ENDBRANCH   1   3
BRANCH   1  17
ATOM     17  N   UNL d   1      25.157 -15.650  -2.748  0.00  0.00    -0.377 N 
ATOM     18  H   UNL d   1      24.158 -15.659  -2.957  0.00  0.00     0.160 HD
BRANCH  17  19
ATOM     19  C   UNL d   1      25.602 -16.460  -1.723  0.00  0.00     0.030 A 
ATOM     20  C   UNL d   1      24.745 -17.132  -0.865  0.00  0.00     0.029 A 
ATOM     21  C   UNL d   1      25.262 -17.921   0.184  0.00  0.00     0.004 A 
ATOM     22  C   UNL d   1      26.652 -18.115   0.338  0.00  0.00     0.029 A 
ATOM     23  C   UNL d   1      27.530 -17.449  -0.509  0.00  0.00     0.036 A 
ATOM     24  C   UNL d   1      26.957 -16.619  -1.466  0.00  0.00     0.058 A 
BRANCH  23  25
ATOM     25  N   UNL d   1      28.953 -17.538  -0.395  0.00  0.00    -0.325 N 
ATOM     26  C   UNL d   1      29.853 -16.567  -0.847  0.00  0.00     0.245 C 
ATOM     27  O   UNL d   1      29.580 -15.525  -1.457  0.00  0.00    -0.271 OA
ATOM     28  H   UNL d   1      29.321 -18.374   0.043  0.00  0.00     0.169 HD
BRANCH  26  29
ATOM     29  C   UNL d   1      31.335 -16.833  -0.612  0.00  0.00     0.267 C 
BRANCH  29  30
ATOM     30  O   UNL d   1      31.523 -18.013   0.176  0.00  0.00    -0.392 OA
ATOM     31  H   UNL d   1      30.660 -18.194   0.605  0.00  0.00     0.210 HD
ENDBRANCH  29  30
ENDBRANCH  26  29
ENDBRANCH  23  25
ENDBRANCH  17  19
ENDBRANCH   1  17
TORSDOF 10
ENDMDL
