MODEL 1
REMARK VINA RESULT:    -7.877      0.000      0.000
REMARK INTER + INTRA:         -11.286
REMARK INTER:                  -9.965
REMARK INTRA:                  -1.321
REMARK CONF_INDEPENDENT:        2.088
REMARK UNBOUND:                -1.321
REMARK  7 active torsions:
REMARK  status: ('A' for Active; 'I' for Inactive)
REMARK    1  A    between atoms: O_2  and  C_3 
REMARK    2  A    between atoms: C_5  and  C_6 
REMARK    3  A    between atoms: C_6  and  N_7 
REMARK       I    between atoms: N_7  and  C_8 
REMARK    4  A    between atoms: C_8  and  C_10 
REMARK    5  A    between atoms: N_13  and  C_14 
REMARK    6  A    between atoms: C_27  and  O_28 
REMARK    7  A    between atoms: C_30  and  O_31 
ROOT
ATOM      1  C   UNL d   1      29.037 -13.229   1.789  0.00  0.00     0.081 C 
ATOM      2  C   UNL d   1      30.329 -13.688   2.501  0.00  0.00     0.034 C 
ATOM      3  C   UNL d   1      30.139 -14.014   4.021  0.00  0.00     0.121 C 
ATOM      4  N   UNL d   1      29.358 -12.756   4.840  0.00  0.00    -0.381 N 
ATOM      5  C   UNL d   1      28.093 -12.581   4.046  0.00  0.00     0.121 C 
ATOM      6  C   UNL d   1      28.375 -12.129   2.632  0.00  0.00     0.034 C 
ENDROOT
BRANCH   1   7
ATOM      7  C   UNL d   1      27.942 -14.264   1.427  0.00  0.00     0.222 C 
ATOM      8  N   UNL d   1      28.305 -15.576   1.353  0.00  0.00    -0.356 N 
ATOM      9  H   UNL d   1      29.281 -15.773   1.227  0.00  0.00     0.162 HD
ATOM     10  O   UNL d   1      26.778 -13.910   1.245  0.00  0.00    -0.273 OA
BRANCH   8  11
ATOM     11  C   UNL d   1      27.346 -16.617   0.960  0.00  0.00     0.161 C 
BRANCH  11  12
ATOM     12  C   UNL d   1      26.645 -16.343  -0.355  0.00  0.00    -0.035 C 
ATOM     13  C   UNL d   1      25.249 -16.519  -0.471  0.00  0.00     0.048 C 
ATOM     14  C   UNL d   1      24.509 -16.052  -1.586  0.00  0.00     0.104 C 
ATOM     15  C   UNL d   1      25.225 -15.422  -2.628  0.00  0.00     0.135 C 
ATOM     16  C   UNL d   1      26.635 -15.301  -2.548  0.00  0.00     0.104 C 
ATOM     17  C   UNL d   1      27.321 -15.800  -1.448  0.00  0.00     0.048 C 
BRANCH  14  18
ATOM     18  O   UNL d   1      23.152 -16.130  -1.348  0.00  0.00    -0.353 OA
ATOM     19  C   UNL d   1      22.576 -17.102  -0.480  0.00  0.00     0.210 C 
ENDBRANCH  14  18
BRANCH  15  20
ATOM     20  O   UNL d   1      24.780 -14.825  -3.759  0.00  0.00    -0.351 OA
ATOM     21  C   UNL d   1      24.780 -13.453  -3.893  0.00  0.00     0.210 C 
ENDBRANCH  15  20
BRANCH  16  22
ATOM     22  O   UNL d   1      27.485 -14.678  -3.448  0.00  0.00    -0.353 OA
ATOM     23  C   UNL d   1      27.497 -15.153  -4.796  0.00  0.00     0.210 C 
ENDBRANCH  16  22
ENDBRANCH  11  12
ENDBRANCH   8  11
ENDBRANCH   1   7
BRANCH   4  24
ATOM     24  C   UNL d   1      29.320 -12.688   6.403  0.00  0.00     0.263 C 
ATOM     25  N   UNL d   1      28.340 -12.043   7.676  0.00  0.00    -0.355 N 
ATOM     26  C   UNL d   1      28.427 -12.899   8.659  0.00  0.00     0.052 C 
ATOM     27  H   UNL d   1      27.513 -11.425   7.659  0.00  0.00     0.163 HD
ATOM     28  C   UNL d   1      28.154 -13.162  10.117  0.00  0.00     0.033 C 
ATOM     29  C   UNL d   1      29.067 -14.062   8.000  0.00  0.00     0.039 C 
ATOM     30  C   UNL d   1      29.171 -13.862  10.704  0.00  0.00     0.026 C 
ATOM     31  C   UNL d   1      30.318 -14.376   9.949  0.00  0.00     0.035 C 
ATOM     32 CL   UNL d   1      31.682 -15.047  10.742  0.00  0.00    -0.084 Cl
ATOM     33  C   UNL d   1      30.319 -14.449   8.624  0.00  0.00     0.049 C 
ATOM     34  N   UNL d   1      28.866 -14.050   6.778  0.00  0.00    -0.253 NA
ATOM     35  H   UNL d   1      27.912 -13.809   6.401  0.00  0.00     0.131 HD
ENDBRANCH   4  24
TORSDOF 7
ENDMDL
MODEL 2
REMARK VINA RESULT:    -7.869      1.439      2.510
REMARK INTER + INTRA:         -11.260
REMARK INTER:                  -9.957
REMARK INTRA:                  -1.303
REMARK CONF_INDEPENDENT:        2.088
REMARK UNBOUND:                -1.303
REMARK  7 active torsions:
REMARK  status: ('A' for Active; 'I' for Inactive)
REMARK    1  A    between atoms: O_2  and  C_3 
REMARK    2  A    between atoms: C_5  and  C_6 
REMARK    3  A    between atoms: C_6  and  N_7 
REMARK       I    between atoms: N_7  and  C_8 
REMARK    4  A    between atoms: C_8  and  C_10 
REMARK    5  A    between atoms: N_13  and  C_14 
REMARK    6  A    between atoms: C_27  and  O_28 
REMARK    7  A    between atoms: C_30  and  O_31 
ROOT
ATOM      1  C   UNL d   1      28.641 -12.136   3.055  0.00  0.00     0.081 C 
ATOM      2  C   UNL d   1      30.072 -12.317   3.609  0.00  0.00     0.034 C 
ATOM      3  C   UNL d   1      30.125 -12.898   5.063  0.00  0.00     0.121 C 
ATOM      4  N   UNL d   1      29.123 -12.037   6.120  0.00  0.00    -0.381 N 
ATOM      5  C   UNL d   1      27.785 -12.107   5.436  0.00  0.00     0.121 C 
ATOM      6  C   UNL d   1      27.797 -11.397   4.104  0.00  0.00     0.034 C 
ENDROOT
BRANCH   1   7
ATOM      7  C   UNL d   1      27.829 -13.371   2.588  0.00  0.00     0.222 C 
ATOM      8  N   UNL d   1      28.468 -14.302   1.823  0.00  0.00    -0.356 N 
ATOM      9  H   UNL d   1      29.303 -14.008   1.350  0.00  0.00     0.162 HD
ATOM     10  O   UNL d   1      26.655 -13.517   2.926  0.00  0.00    -0.273 OA
BRANCH   8  11
ATOM     11  C   UNL d   1      27.761 -15.473   1.288  0.00  0.00     0.161 C 
BRANCH  11  12
ATOM     12  C   UNL d   1      26.933 -15.180   0.054  0.00  0.00    -0.035 C 
ATOM     13  C   UNL d   1      27.121 -13.979  -0.664  0.00  0.00     0.048 C 
ATOM     14  C   UNL d   1      26.559 -13.758  -1.947  0.00  0.00     0.104 C 
ATOM     15  C   UNL d   1      25.750 -14.781  -2.491  0.00  0.00     0.135 C 
ATOM     16  C   UNL d   1      25.504 -15.962  -1.747  0.00  0.00     0.104 C 
ATOM     17  C   UNL d   1      26.052 -16.121  -0.480  0.00  0.00     0.048 C 
BRANCH  14  18
ATOM     18  O   UNL d   1      27.086 -12.624  -2.530  0.00  0.00    -0.353 OA
ATOM     19  C   UNL d   1      26.277 -11.627  -3.146  0.00  0.00     0.210 C 
ENDBRANCH  14  18
BRANCH  15  20
ATOM     20  O   UNL d   1      25.155 -14.874  -3.703  0.00  0.00    -0.351 OA
ATOM     21  C   UNL d   1      25.880 -15.175  -4.836  0.00  0.00     0.210 C 
ENDBRANCH  15  20
BRANCH  16  22
ATOM     22  O   UNL d   1      24.779 -17.075  -2.139  0.00  0.00    -0.353 OA
ATOM     23  C   UNL d   1      24.101 -17.824  -1.128  0.00  0.00     0.210 C 
ENDBRANCH  16  22
ENDBRANCH  11  12
ENDBRANCH   8  11
ENDBRANCH   1   7
BRANCH   4  24
ATOM     24  C   UNL d   1      29.221 -12.209   7.672  0.00  0.00     0.263 C 
ATOM     25  N   UNL d   1      28.668 -11.449   9.125  0.00  0.00    -0.355 N 
ATOM     26  C   UNL d   1      28.475 -12.417   9.982  0.00  0.00     0.052 C 
ATOM     27  H   UNL d   1      28.155 -10.567   9.286  0.00  0.00     0.163 HD
ATOM     28  C   UNL d   1      28.221 -12.784  11.420  0.00  0.00     0.033 C 
ATOM     29  C   UNL d   1      28.554 -13.616   9.113  0.00  0.00     0.039 C 
ATOM     30  C   UNL d   1      28.914 -13.903  11.788  0.00  0.00     0.026 C 
ATOM     31  C   UNL d   1      29.708 -14.690  10.840  0.00  0.00     0.035 C 
ATOM     32 CL   UNL d   1      30.745 -15.949  11.369  0.00  0.00    -0.084 Cl
ATOM     33  C   UNL d   1      29.590 -14.547   9.525  0.00  0.00     0.049 C 
ATOM     34  N   UNL d   1      28.292 -13.334   7.937  0.00  0.00    -0.253 NA
ATOM     35  H   UNL d   1      27.488 -12.690   7.713  0.00  0.00     0.131 HD
ENDBRANCH   4  24
TORSDOF 7
ENDMDL
MODEL 3
REMARK VINA RESULT:    -7.725      7.199      9.254
REMARK INTER + INTRA:         -11.291
REMARK INTER:                  -9.813
REMARK INTRA:                  -1.477
REMARK CONF_INDEPENDENT:        2.088
REMARK UNBOUND:                -1.477
REMARK  7 active torsions:
REMARK  status: ('A' for Active; 'I' for Inactive)
REMARK    1  A    between atoms: O_2  and  C_3 
REMARK    2  A    between atoms: C_5  and  C_6 
REMARK    3  A    between atoms: C_6  and  N_7 
REMARK       I    between atoms: N_7  and  C_8 
REMARK    4  A    between atoms: C_8  and  C_10 
REMARK    5  A    between atoms: N_13  and  C_14 
REMARK    6  A    between atoms: C_27  and  O_28 
REMARK    7  A    between atoms: C_30  and  O_31 
ROOT
ATOM      1  C   UNL d   1      27.985 -12.744  -5.260  0.00  0.00     0.081 C 
ATOM      2  C   UNL d   1      28.365 -12.680  -3.764  0.00  0.00     0.034 C 
ATOM      3  C   UNL d   1      28.247 -14.051  -3.016  0.00  0.00     0.121 C 
ATOM      4  N   UNL d   1      26.742 -14.779  -3.273  0.00  0.00    -0.381 N 
ATOM      5  C   UNL d   1      26.659 -14.844  -4.774  0.00  0.00     0.121 C 
ATOM      6  C   UNL d   1      26.637 -13.467  -5.395  0.00  0.00     0.034 C 
ENDROOT
BRANCH   1   7
ATOM      7  C   UNL d   1      28.961 -13.381  -6.282  0.00  0.00     0.222 C 
ATOM      8  N   UNL d   1      29.433 -14.633  -6.016  0.00  0.00    -0.356 N 
ATOM      9  H   UNL d   1      29.385 -14.946  -5.063  0.00  0.00     0.162 HD
ATOM     10  O   UNL d   1      29.271 -12.786  -7.312  0.00  0.00    -0.273 OA
BRANCH   8  11
ATOM     11  C   UNL d   1      30.407 -15.290  -6.898  0.00  0.00     0.161 C 
BRANCH  11  12
ATOM     12  C   UNL d   1      30.698 -16.730  -6.528  0.00  0.00    -0.035 C 
ATOM     13  C   UNL d   1      30.770 -17.119  -5.173  0.00  0.00     0.048 C 
ATOM     14  C   UNL d   1      30.795 -18.478  -4.768  0.00  0.00     0.104 C 
ATOM     15  C   UNL d   1      30.786 -19.462  -5.781  0.00  0.00     0.135 C 
ATOM     16  C   UNL d   1      30.780 -19.077  -7.145  0.00  0.00     0.104 C 
ATOM     17  C   UNL d   1      30.785 -17.732  -7.494  0.00  0.00     0.048 C 
BRANCH  14  18
ATOM     18  O   UNL d   1      30.622 -18.591  -3.403  0.00  0.00    -0.353 OA
ATOM     19  C   UNL d   1      30.459 -17.462  -2.550  0.00  0.00     0.210 C 
ENDBRANCH  14  18
BRANCH  15  20
ATOM     20  O   UNL d   1      30.732 -20.812  -5.688  0.00  0.00    -0.351 OA
ATOM     21  C   UNL d   1      30.780 -21.449  -4.467  0.00  0.00     0.210 C 
ENDBRANCH  15  20
BRANCH  16  22
ATOM     22  O   UNL d   1      30.725 -19.900  -8.258  0.00  0.00    -0.353 OA
ATOM     23  C   UNL d   1      31.531 -19.555  -9.386  0.00  0.00     0.210 C 
ENDBRANCH  16  22
ENDBRANCH  11  12
ENDBRANCH   8  11
ENDBRANCH   1   7
BRANCH   4  24
ATOM     24  C   UNL d   1      26.252 -15.987  -2.407  0.00  0.00     0.263 C 
ATOM     25  N   UNL d   1      26.850 -17.090  -1.215  0.00  0.00    -0.355 N 
ATOM     26  C   UNL d   1      25.844 -17.332  -0.418  0.00  0.00     0.052 C 
ATOM     27  H   UNL d   1      27.799 -17.245  -0.839  0.00  0.00     0.163 HD
ATOM     28  C   UNL d   1      25.303 -18.200   0.688  0.00  0.00     0.033 C 
ATOM     29  C   UNL d   1      24.871 -16.290  -0.825  0.00  0.00     0.039 C 
ATOM     30  C   UNL d   1      23.975 -18.473   0.515  0.00  0.00     0.026 C 
ATOM     31  C   UNL d   1      23.179 -17.882  -0.565  0.00  0.00     0.035 C 
ATOM     32 CL   UNL d   1      21.583 -18.414  -0.895  0.00  0.00    -0.084 Cl
ATOM     33  C   UNL d   1      23.603 -16.841  -1.270  0.00  0.00     0.049 C 
ATOM     34  N   UNL d   1      25.442 -15.328  -1.354  0.00  0.00    -0.253 NA
ATOM     35  H   UNL d   1      26.335 -14.948  -0.940  0.00  0.00     0.131 HD
ENDBRANCH   4  24
TORSDOF 7
ENDMDL
MODEL 4
REMARK VINA RESULT:    -7.689      7.142     11.089
REMARK INTER + INTRA:         -11.156
REMARK INTER:                  -9.777
REMARK INTRA:                  -1.379
REMARK CONF_INDEPENDENT:        2.088
REMARK UNBOUND:                -1.379
REMARK  7 active torsions:
REMARK  status: ('A' for Active; 'I' for Inactive)
REMARK    1  A    between atoms: O_2  and  C_3 
REMARK    2  A    between atoms: C_5  and  C_6 
REMARK    3  A    between atoms: C_6  and  N_7 
REMARK       I    between atoms: N_7  and  C_8 
REMARK    4  A    between atoms: C_8  and  C_10 
REMARK    5  A    between atoms: N_13  and  C_14 
REMARK    6  A    between atoms: C_27  and  O_28 
REMARK    7  A    between atoms: C_30  and  O_31 
ROOT
ATOM      1  C   UNL d   1      28.925 -14.232  -5.084  0.00  0.00     0.081 C 
ATOM      2  C   UNL d   1      29.451 -14.430  -6.523  0.00  0.00     0.034 C 
ATOM      3  C   UNL d   1      29.754 -15.922  -6.892  0.00  0.00     0.121 C 
ATOM      4  N   UNL d   1      30.735 -16.669  -5.734  0.00  0.00    -0.381 N 
ATOM      5  C   UNL d   1      29.963 -16.454  -4.461  0.00  0.00     0.121 C 
ATOM      6  C   UNL d   1      29.845 -14.989  -4.115  0.00  0.00     0.034 C 
ENDROOT
BRANCH   1   7
ATOM      7  C   UNL d   1      27.464 -14.612  -4.733  0.00  0.00     0.222 C 
ATOM      8  N   UNL d   1      26.852 -13.928  -3.724  0.00  0.00    -0.356 N 
ATOM      9  H   UNL d   1      27.447 -13.452  -3.070  0.00  0.00     0.162 HD
ATOM     10  O   UNL d   1      26.870 -15.482  -5.368  0.00  0.00    -0.273 OA
BRANCH   8  11
ATOM     11  C   UNL d   1      25.491 -14.262  -3.285  0.00  0.00     0.161 C 
BRANCH  11  12
ATOM     12  C   UNL d   1      25.440 -15.208  -2.103  0.00  0.00    -0.035 C 
ATOM     13  C   UNL d   1      24.422 -16.183  -2.012  0.00  0.00     0.048 C 
ATOM     14  C   UNL d   1      24.461 -17.242  -1.070  0.00  0.00     0.104 C 
ATOM     15  C   UNL d   1      25.551 -17.280  -0.172  0.00  0.00     0.135 C 
ATOM     16  C   UNL d   1      26.541 -16.266  -0.216  0.00  0.00     0.104 C 
ATOM     17  C   UNL d   1      26.446 -15.231  -1.138  0.00  0.00     0.048 C 
BRANCH  14  18
ATOM     18  O   UNL d   1      23.490 -18.184  -1.345  0.00  0.00    -0.353 OA
ATOM     19  C   UNL d   1      22.256 -18.249  -0.636  0.00  0.00     0.210 C 
ENDBRANCH  14  18
BRANCH  15  20
ATOM     20  O   UNL d   1      25.879 -18.198   0.767  0.00  0.00    -0.351 OA
ATOM     21  C   UNL d   1      27.029 -18.950   0.663  0.00  0.00     0.210 C 
ENDBRANCH  15  20
BRANCH  16  22
ATOM     22  O   UNL d   1      27.690 -16.172   0.551  0.00  0.00    -0.353 OA
ATOM     23  C   UNL d   1      28.949 -16.339  -0.105  0.00  0.00     0.210 C 
ENDBRANCH  16  22
ENDBRANCH  11  12
ENDBRANCH   8  11
ENDBRANCH   1   7
BRANCH   4  24
ATOM     24  C   UNL d   1      31.433 -18.042  -6.006  0.00  0.00     0.263 C 
ATOM     25  N   UNL d   1      32.130 -19.367  -5.139  0.00  0.00    -0.355 N 
ATOM     26  C   UNL d   1      31.871 -20.433  -5.848  0.00  0.00     0.052 C 
ATOM     27  H   UNL d   1      32.322 -19.505  -4.133  0.00  0.00     0.163 HD
ATOM     28  C   UNL d   1      32.163 -21.894  -6.065  0.00  0.00     0.033 C 
ATOM     29  C   UNL d   1      30.876 -19.921  -6.820  0.00  0.00     0.039 C 
ATOM     30  C   UNL d   1      32.216 -22.209  -7.395  0.00  0.00     0.026 C 
ATOM     31  C   UNL d   1      31.908 -21.240  -8.451  0.00  0.00     0.035 C 
ATOM     32 CL   UNL d   1      32.202 -21.593 -10.102  0.00  0.00    -0.084 Cl
ATOM     33  C   UNL d   1      31.291 -20.092  -8.201  0.00  0.00     0.049 C 
ATOM     34  N   UNL d   1      30.297 -18.919  -6.380  0.00  0.00    -0.253 NA
ATOM     35  H   UNL d   1      29.976 -18.890  -5.377  0.00  0.00     0.131 HD
ENDBRANCH   4  24
TORSDOF 7
ENDMDL
MODEL 5
REMARK VINA RESULT:    -7.668      1.837      2.706
REMARK INTER + INTRA:         -11.116
REMARK INTER:                  -9.756
REMARK INTRA:                  -1.360
REMARK CONF_INDEPENDENT:        2.088
REMARK UNBOUND:                -1.360
REMARK  7 active torsions:
REMARK  status: ('A' for Active; 'I' for Inactive)
REMARK    1  A    between atoms: O_2  and  C_3 
REMARK    2  A    between atoms: C_5  and  C_6 
REMARK    3  A    between atoms: C_6  and  N_7 
REMARK       I    between atoms: N_7  and  C_8 
REMARK    4  A    between atoms: C_8  and  C_10 
REMARK    5  A    between atoms: N_13  and  C_14 
REMARK    6  A    between atoms: C_27  and  O_28 
REMARK    7  A    between atoms: C_30  and  O_31 
ROOT
ATOM      1  C   UNL d   1      27.498 -12.917   1.138  0.00  0.00     0.081 C 
ATOM      2  C   UNL d   1      28.983 -12.650   1.470  0.00  0.00     0.034 C 
ATOM      3  C   UNL d   1      29.525 -13.476   2.685  0.00  0.00     0.121 C 
ATOM      4  N   UNL d   1      28.521 -13.334   4.039  0.00  0.00    -0.381 N 
ATOM      5  C   UNL d   1      27.183 -13.761   3.503  0.00  0.00     0.121 C 
ATOM      6  C   UNL d   1      26.679 -12.821   2.433  0.00  0.00     0.034 C 
ENDROOT
BRANCH   1   7
ATOM      7  C   UNL d   1      27.088 -14.230   0.424  0.00  0.00     0.222 C 
ATOM      8  N   UNL d   1      28.078 -15.101   0.074  0.00  0.00    -0.356 N 
ATOM      9  H   UNL d   1      29.009 -14.731   0.008  0.00  0.00     0.162 HD
ATOM     10  O   UNL d   1      25.905 -14.487   0.210  0.00  0.00    -0.273 OA
BRANCH   8  11
ATOM     11  C   UNL d   1      27.787 -16.341  -0.658  0.00  0.00     0.161 C 
BRANCH  11  12
ATOM     12  C   UNL d   1      27.610 -16.147  -2.150  0.00  0.00    -0.035 C 
ATOM     13  C   UNL d   1      26.378 -15.693  -2.670  0.00  0.00     0.048 C 
ATOM     14  C   UNL d   1      26.227 -15.264  -4.013  0.00  0.00     0.104 C 
ATOM     15  C   UNL d   1      27.360 -15.339  -4.855  0.00  0.00     0.135 C 
ATOM     16  C   UNL d   1      28.581 -15.855  -4.355  0.00  0.00     0.104 C 
ATOM     17  C   UNL d   1      28.674 -16.291  -3.040  0.00  0.00     0.048 C 
BRANCH  14  18
ATOM     18  O   UNL d   1      25.007 -14.648  -4.201  0.00  0.00    -0.353 OA
ATOM     19  C   UNL d   1      24.780 -13.276  -3.897  0.00  0.00     0.210 C 
ENDBRANCH  14  18
BRANCH  15  20
ATOM     20  O   UNL d   1      27.524 -14.937  -6.137  0.00  0.00    -0.351 OA
ATOM     21  C   UNL d   1      28.176 -13.762  -6.442  0.00  0.00     0.210 C 
ENDBRANCH  15  20
BRANCH  16  22
ATOM     22  O   UNL d   1      29.792 -15.958  -5.021  0.00  0.00    -0.353 OA
ATOM     23  C   UNL d   1      30.795 -14.979  -4.742  0.00  0.00     0.210 C 
ENDBRANCH  16  22
ENDBRANCH  11  12
ENDBRANCH   8  11
ENDBRANCH   1   7
BRANCH   4  24
ATOM     24  C   UNL d   1      28.983 -13.800   5.460  0.00  0.00     0.263 C 
ATOM     25  N   UNL d   1      30.299 -14.629   6.218  0.00  0.00    -0.355 N 
ATOM     26  C   UNL d   1      30.439 -14.076   7.393  0.00  0.00     0.052 C 
ATOM     27  H   UNL d   1      31.120 -15.118   5.825  0.00  0.00     0.163 HD
ATOM     28  C   UNL d   1      31.080 -14.168   8.752  0.00  0.00     0.033 C 
ATOM     29  C   UNL d   1      29.589 -12.868   7.267  0.00  0.00     0.039 C 
ATOM     30  C   UNL d   1      30.226 -13.773   9.744  0.00  0.00     0.026 C 
ATOM     31  C   UNL d   1      28.895 -13.223   9.471  0.00  0.00     0.035 C 
ATOM     32 CL   UNL d   1      27.764 -12.951  10.729  0.00  0.00    -0.084 Cl
ATOM     33  C   UNL d   1      28.534 -12.810   8.262  0.00  0.00     0.049 C 
ATOM     34  N   UNL d   1      29.454 -12.538   6.081  0.00  0.00    -0.253 NA
ATOM     35  H   UNL d   1      30.282 -12.555   5.429  0.00  0.00     0.131 HD
ENDBRANCH   4  24
TORSDOF 7
ENDMDL
MODEL 6
REMARK VINA RESULT:    -7.660      5.591      9.174
REMARK INTER + INTRA:         -11.490
REMARK INTER:                  -9.748
REMARK INTRA:                  -1.742
REMARK CONF_INDEPENDENT:        2.088
REMARK UNBOUND:                -1.742
REMARK  7 active torsions:
REMARK  status: ('A' for Active; 'I' for Inactive)
REMARK    1  A    between atoms: O_2  and  C_3 
REMARK    2  A    between atoms: C_5  and  C_6 
REMARK    3  A    between atoms: C_6  and  N_7 
REMARK       I    between atoms: N_7  and  C_8 
REMARK    4  A    between atoms: C_8  and  C_10 
REMARK    5  A    between atoms: N_13  and  C_14 
REMARK    6  A    between atoms: C_27  and  O_28 
REMARK    7  A    between atoms: C_30  and  O_31 
ROOT
ATOM      1  C   UNL d   1      26.806 -11.694  -4.620  0.00  0.00     0.081 C 
ATOM      2  C   UNL d   1      25.531 -12.471  -5.020  0.00  0.00     0.034 C 
ATOM      3  C   UNL d   1      25.024 -13.472  -3.927  0.00  0.00     0.121 C 
ATOM      4  N   UNL d   1      26.261 -14.490  -3.385  0.00  0.00    -0.381 N 
ATOM      5  C   UNL d   1      27.318 -13.517  -2.940  0.00  0.00     0.121 C 
ATOM      6  C   UNL d   1      27.845 -12.694  -4.091  0.00  0.00     0.034 C 
ENDROOT
BRANCH   1   7
ATOM      7  C   UNL d   1      26.716 -10.531  -3.600  0.00  0.00     0.222 C 
ATOM      8  N   UNL d   1      27.878  -9.924  -3.223  0.00  0.00    -0.356 N 
ATOM      9  H   UNL d   1      28.729 -10.438  -3.367  0.00  0.00     0.162 HD
ATOM     10  O   UNL d   1      25.628 -10.151  -3.172  0.00  0.00    -0.273 OA
BRANCH   8  11
ATOM     11  C   UNL d   1      27.894  -8.853  -2.217  0.00  0.00     0.161 C 
BRANCH  11  12
ATOM     12  C   UNL d   1      27.225  -9.227  -0.910  0.00  0.00    -0.035 C 
ATOM     13  C   UNL d   1      27.427 -10.505  -0.345  0.00  0.00     0.048 C 
ATOM     14  C   UNL d   1      27.033 -10.826   0.979  0.00  0.00     0.104 C 
ATOM     15  C   UNL d   1      26.379  -9.822   1.728  0.00  0.00     0.135 C 
ATOM     16  C   UNL d   1      26.115  -8.559   1.143  0.00  0.00     0.104 C 
ATOM     17  C   UNL d   1      26.494  -8.299  -0.168  0.00  0.00     0.048 C 
BRANCH  14  18
ATOM     18  O   UNL d   1      27.554 -12.042   1.369  0.00  0.00    -0.353 OA
ATOM     19  C   UNL d   1      26.932 -13.285   1.058  0.00  0.00     0.210 C 
ENDBRANCH  14  18
BRANCH  15  20
ATOM     20  O   UNL d   1      25.964  -9.823   3.017  0.00  0.00    -0.351 OA
ATOM     21  C   UNL d   1      26.865  -9.834   4.060  0.00  0.00     0.210 C 
ENDBRANCH  15  20
BRANCH  16  22
ATOM     22  O   UNL d   1      25.530  -7.454   1.740  0.00  0.00    -0.353 OA
ATOM     23  C   UNL d   1      26.383  -6.531   2.421  0.00  0.00     0.210 C 
ENDBRANCH  16  22
ENDBRANCH  11  12
ENDBRANCH   8  11
ENDBRANCH   1   7
BRANCH   4  24
ATOM     24  C   UNL d   1      25.963 -15.769  -2.534  0.00  0.00     0.263 C 
ATOM     25  N   UNL d   1      26.754 -16.830  -1.419  0.00  0.00    -0.355 N 
ATOM     26  C   UNL d   1      25.834 -17.206  -0.571  0.00  0.00     0.052 C 
ATOM     27  H   UNL d   1      27.737 -16.888  -1.105  0.00  0.00     0.163 HD
ATOM     28  C   UNL d   1      25.464 -18.159   0.534  0.00  0.00     0.033 C 
ATOM     29  C   UNL d   1      24.728 -16.269  -0.883  0.00  0.00     0.039 C 
ATOM     30  C   UNL d   1      24.165 -18.575   0.432  0.00  0.00     0.026 C 
ATOM     31  C   UNL d   1      23.242 -18.047  -0.577  0.00  0.00     0.035 C 
ATOM     32 CL   UNL d   1      21.697 -18.746  -0.828  0.00  0.00    -0.084 Cl
ATOM     33  C   UNL d   1      23.503 -16.945  -1.269  0.00  0.00     0.049 C 
ATOM     34  N   UNL d   1      25.155 -15.234  -1.411  0.00  0.00    -0.253 NA
ATOM     35  H   UNL d   1      26.024 -14.768  -1.039  0.00  0.00     0.131 HD
ENDBRANCH   4  24
TORSDOF 7
ENDMDL
MODEL 7
REMARK VINA RESULT:    -7.501      7.218      9.673
REMARK INTER + INTRA:         -10.994
REMARK INTER:                  -9.589
REMARK INTRA:                  -1.405
REMARK CONF_INDEPENDENT:        2.088
REMARK UNBOUND:                -1.405
REMARK  7 active torsions:
REMARK  status: ('A' for Active; 'I' for Inactive)
REMARK    1  A    between atoms: O_2  and  C_3 
REMARK    2  A    between atoms: C_5  and  C_6 
REMARK    3  A    between atoms: C_6  and  N_7 
REMARK       I    between atoms: N_7  and  C_8 
REMARK    4  A    between atoms: C_8  and  C_10 
REMARK    5  A    between atoms: N_13  and  C_14 
REMARK    6  A    between atoms: C_27  and  O_28 
REMARK    7  A    between atoms: C_30  and  O_31 
ROOT
ATOM      1  C   UNL d   1      28.142 -13.117  -5.391  0.00  0.00     0.081 C 
ATOM      2  C   UNL d   1      28.667 -13.104  -3.938  0.00  0.00     0.034 C 
ATOM      3  C   UNL d   1      28.472 -14.459  -3.177  0.00  0.00     0.121 C 
ATOM      4  N   UNL d   1      26.879 -15.018  -3.286  0.00  0.00    -0.381 N 
ATOM      5  C   UNL d   1      26.648 -15.064  -4.772  0.00  0.00     0.121 C 
ATOM      6  C   UNL d   1      26.717 -13.690  -5.394  0.00  0.00     0.034 C 
ENDROOT
BRANCH   1   7
ATOM      7  C   UNL d   1      28.942 -13.851  -6.498  0.00  0.00     0.222 C 
ATOM      8  N   UNL d   1      29.896 -14.743  -6.108  0.00  0.00    -0.356 N 
ATOM      9  H   UNL d   1      30.246 -14.657  -5.171  0.00  0.00     0.162 HD
ATOM     10  O   UNL d   1      28.697 -13.653  -7.687  0.00  0.00    -0.273 OA
BRANCH   8  11
ATOM     11  C   UNL d   1      30.742 -15.439  -7.087  0.00  0.00     0.161 C 
BRANCH  11  12
ATOM     12  C   UNL d   1      30.733 -16.948  -6.946  0.00  0.00    -0.035 C 
ATOM     13  C   UNL d   1      31.170 -17.767  -8.010  0.00  0.00     0.048 C 
ATOM     14  C   UNL d   1      31.413 -19.155  -7.855  0.00  0.00     0.104 C 
ATOM     15  C   UNL d   1      31.164 -19.726  -6.587  0.00  0.00     0.135 C 
ATOM     16  C   UNL d   1      30.662 -18.921  -5.534  0.00  0.00     0.104 C 
ATOM     17  C   UNL d   1      30.411 -17.570  -5.740  0.00  0.00     0.048 C 
BRANCH  14  18
ATOM     18  O   UNL d   1      32.056 -19.671  -8.962  0.00  0.00    -0.353 OA
ATOM     19  C   UNL d   1      31.395 -20.472  -9.935  0.00  0.00     0.210 C 
ENDBRANCH  14  18
BRANCH  15  20
ATOM     20  O   UNL d   1      31.372 -20.986  -6.139  0.00  0.00    -0.351 OA
ATOM     21  C   UNL d   1      31.904 -21.959  -6.957  0.00  0.00     0.210 C 
ENDBRANCH  15  20
BRANCH  16  22
ATOM     22  O   UNL d   1      30.406 -19.300  -4.226  0.00  0.00    -0.353 OA
ATOM     23  C   UNL d   1      30.819 -18.418  -3.180  0.00  0.00     0.210 C 
ENDBRANCH  16  22
ENDBRANCH  11  12
ENDBRANCH   8  11
ENDBRANCH   1   7
BRANCH   4  24
ATOM     24  C   UNL d   1      26.345 -16.171  -2.373  0.00  0.00     0.263 C 
ATOM     25  N   UNL d   1      26.889 -17.213  -1.103  0.00  0.00    -0.355 N 
ATOM     26  C   UNL d   1      25.854 -17.400  -0.328  0.00  0.00     0.052 C 
ATOM     27  H   UNL d   1      27.823 -17.357  -0.686  0.00  0.00     0.163 HD
ATOM     28  C   UNL d   1      25.266 -18.200   0.805  0.00  0.00     0.033 C 
ATOM     29  C   UNL d   1      24.909 -16.371  -0.824  0.00  0.00     0.039 C 
ATOM     30  C   UNL d   1      23.941 -18.468   0.602  0.00  0.00     0.026 C 
ATOM     31  C   UNL d   1      23.189 -17.928  -0.535  0.00  0.00     0.035 C 
ATOM     32 CL   UNL d   1      21.598 -18.460  -0.889  0.00  0.00    -0.084 Cl
ATOM     33  C   UNL d   1      23.650 -16.931  -1.281  0.00  0.00     0.049 C 
ATOM     34  N   UNL d   1      25.510 -15.446  -1.385  0.00  0.00    -0.253 NA
ATOM     35  H   UNL d   1      26.393 -15.054  -0.963  0.00  0.00     0.131 HD
ENDBRANCH   4  24
TORSDOF 7
ENDMDL
MODEL 8
REMARK VINA RESULT:    -7.427      5.565      9.270
REMARK INTER + INTRA:         -11.268
REMARK INTER:                  -9.515
REMARK INTRA:                  -1.752
REMARK CONF_INDEPENDENT:        2.088
REMARK UNBOUND:                -1.752
REMARK  7 active torsions:
REMARK  status: ('A' for Active; 'I' for Inactive)
REMARK    1  A    between atoms: O_2  and  C_3 
REMARK    2  A    between atoms: C_5  and  C_6 
REMARK    3  A    between atoms: C_6  and  N_7 
REMARK       I    between atoms: N_7  and  C_8 
REMARK    4  A    between atoms: C_8  and  C_10 
REMARK    5  A    between atoms: N_13  and  C_14 
REMARK    6  A    between atoms: C_27  and  O_28 
REMARK    7  A    between atoms: C_30  and  O_31 
ROOT
ATOM      1  C   UNL d   1      26.874 -11.529  -4.575  0.00  0.00     0.081 C 
ATOM      2  C   UNL d   1      25.869 -12.486  -5.254  0.00  0.00     0.034 C 
ATOM      3  C   UNL d   1      25.246 -13.549  -4.287  0.00  0.00     0.121 C 
ATOM      4  N   UNL d   1      26.436 -14.372  -3.409  0.00  0.00    -0.381 N 
ATOM      5  C   UNL d   1      27.192 -13.252  -2.750  0.00  0.00     0.121 C 
ATOM      6  C   UNL d   1      27.875 -12.362  -3.762  0.00  0.00     0.034 C 
ENDROOT
BRANCH   1   7
ATOM      7  C   UNL d   1      26.361 -10.389  -3.659  0.00  0.00     0.222 C 
ATOM      8  N   UNL d   1      27.269  -9.477  -3.207  0.00  0.00    -0.356 N 
ATOM      9  H   UNL d   1      28.235  -9.749  -3.224  0.00  0.00     0.162 HD
ATOM     10  O   UNL d   1      25.167 -10.298  -3.376  0.00  0.00    -0.273 OA
BRANCH   8  11
ATOM     11  C   UNL d   1      26.883  -8.399  -2.287  0.00  0.00     0.161 C 
BRANCH  11  12
ATOM     12  C   UNL d   1      26.955  -8.785  -0.824  0.00  0.00    -0.035 C 
ATOM     13  C   UNL d   1      26.443  -7.920   0.168  0.00  0.00     0.048 C 
ATOM     14  C   UNL d   1      26.261  -8.324   1.515  0.00  0.00     0.104 C 
ATOM     15  C   UNL d   1      26.652  -9.637   1.862  0.00  0.00     0.135 C 
ATOM     16  C   UNL d   1      27.227 -10.487   0.885  0.00  0.00     0.104 C 
ATOM     17  C   UNL d   1      27.412 -10.037  -0.416  0.00  0.00     0.048 C 
BRANCH  14  18
ATOM     18  O   UNL d   1      25.530  -7.389   2.218  0.00  0.00    -0.353 OA
ATOM     19  C   UNL d   1      25.933  -6.029   2.343  0.00  0.00     0.210 C 
ENDBRANCH  14  18
BRANCH  15  20
ATOM     20  O   UNL d   1      26.529 -10.305   3.033  0.00  0.00    -0.351 OA
ATOM     21  C   UNL d   1      27.131  -9.848   4.185  0.00  0.00     0.210 C 
ENDBRANCH  15  20
BRANCH  16  22
ATOM     22  O   UNL d   1      27.622 -11.807   1.037  0.00  0.00    -0.353 OA
ATOM     23  C   UNL d   1      26.655 -12.828   0.782  0.00  0.00     0.210 C 
ENDBRANCH  16  22
ENDBRANCH  11  12
ENDBRANCH   8  11
ENDBRANCH   1   7
BRANCH   4  24
ATOM     24  C   UNL d   1      26.115 -15.679  -2.610  0.00  0.00     0.263 C 
ATOM     25  N   UNL d   1      26.900 -16.827  -1.581  0.00  0.00    -0.355 N 
ATOM     26  C   UNL d   1      25.997 -17.208  -0.718  0.00  0.00     0.052 C 
ATOM     27  H   UNL d   1      27.891 -16.941  -1.310  0.00  0.00     0.163 HD
ATOM     28  C   UNL d   1      25.628 -18.200   0.353  0.00  0.00     0.033 C 
ATOM     29  C   UNL d   1      24.922 -16.211  -0.939  0.00  0.00     0.039 C 
ATOM     30  C   UNL d   1      24.310 -18.556   0.282  0.00  0.00     0.026 C 
ATOM     31  C   UNL d   1      23.373 -17.940  -0.662  0.00  0.00     0.035 C 
ATOM     32 CL   UNL d   1      21.791 -18.561  -0.887  0.00  0.00    -0.084 Cl
ATOM     33  C   UNL d   1      23.655 -16.816  -1.309  0.00  0.00     0.049 C 
ATOM     34  N   UNL d   1      25.373 -15.169  -1.432  0.00  0.00    -0.253 NA
ATOM     35  H   UNL d   1      26.275 -14.759  -1.072  0.00  0.00     0.131 HD
ENDBRANCH   4  24
TORSDOF 7
ENDMDL
MODEL 9
REMARK VINA RESULT:    -7.225      7.227      9.364
REMARK INTER + INTRA:         -11.224
REMARK INTER:                  -9.313
REMARK INTRA:                  -1.911
REMARK CONF_INDEPENDENT:        2.088
REMARK UNBOUND:                -1.911
REMARK  7 active torsions:
REMARK  status: ('A' for Active; 'I' for Inactive)
REMARK    1  A    between atoms: O_2  and  C_3 
REMARK    2  A    between atoms: C_5  and  C_6 
REMARK    3  A    between atoms: C_6  and  N_7 
REMARK       I    between atoms: N_7  and  C_8 
REMARK    4  A    between atoms: C_8  and  C_10 
REMARK    5  A    between atoms: N_13  and  C_14 
REMARK    6  A    between atoms: C_27  and  O_28 
REMARK    7  A    between atoms: C_30  and  O_31 
ROOT
ATOM      1  C   UNL d   1      29.009 -12.820  -6.259  0.00  0.00     0.081 C 
ATOM      2  C   UNL d   1      28.785 -11.960  -4.996  0.00  0.00     0.034 C 
ATOM      3  C   UNL d   1      28.313 -12.774  -3.744  0.00  0.00     0.121 C 
ATOM      4  N   UNL d   1      26.986 -13.761  -4.101  0.00  0.00    -0.381 N 
ATOM      5  C   UNL d   1      27.485 -14.577  -5.262  0.00  0.00     0.121 C 
ATOM      6  C   UNL d   1      27.780 -13.717  -6.468  0.00  0.00     0.034 C 
ENDROOT
BRANCH   1   7
ATOM      7  C   UNL d   1      30.267 -13.718  -6.373  0.00  0.00     0.222 C 
ATOM      8  N   UNL d   1      30.396 -14.496  -7.485  0.00  0.00    -0.356 N 
ATOM      9  H   UNL d   1      29.560 -14.688  -8.007  0.00  0.00     0.162 HD
ATOM     10  O   UNL d   1      31.133 -13.701  -5.500  0.00  0.00    -0.273 OA
BRANCH   8  11
ATOM     11  C   UNL d   1      31.525 -15.421  -7.649  0.00  0.00     0.161 C 
BRANCH  11  12
ATOM     12  C   UNL d   1      31.319 -16.767  -6.985  0.00  0.00    -0.035 C 
ATOM     13  C   UNL d   1      31.019 -16.845  -5.607  0.00  0.00     0.048 C 
ATOM     14  C   UNL d   1      30.580 -18.042  -4.987  0.00  0.00     0.104 C 
ATOM     15  C   UNL d   1      30.484 -19.199  -5.793  0.00  0.00     0.135 C 
ATOM     16  C   UNL d   1      30.847 -19.141  -7.161  0.00  0.00     0.104 C 
ATOM     17  C   UNL d   1      31.300 -17.953  -7.719  0.00  0.00     0.048 C 
BRANCH  14  18
ATOM     18  O   UNL d   1      30.126 -17.798  -3.707  0.00  0.00    -0.353 OA
ATOM     19  C   UNL d   1      29.481 -16.584  -3.335  0.00  0.00     0.210 C 
ENDBRANCH  14  18
BRANCH  15  20
ATOM     20  O   UNL d   1      30.033 -20.439  -5.492  0.00  0.00    -0.351 OA
ATOM     21  C   UNL d   1      30.732 -21.270  -4.644  0.00  0.00     0.210 C 
ENDBRANCH  15  20
BRANCH  16  22
ATOM     22  O   UNL d   1      30.773 -20.158  -8.101  0.00  0.00    -0.353 OA
ATOM     23  C   UNL d   1      31.309 -19.907  -9.401  0.00  0.00     0.210 C 
ENDBRANCH  16  22
ENDBRANCH  11  12
ENDBRANCH   8  11
ENDBRANCH   1   7
BRANCH   4  24
ATOM     24  C   UNL d   1      26.134 -14.437  -2.976  0.00  0.00     0.263 C 
ATOM     25  N   UNL d   1      24.483 -14.597  -2.481  0.00  0.00    -0.355 N 
ATOM     26  C   UNL d   1      24.381 -15.792  -1.965  0.00  0.00     0.052 C 
ATOM     27  H   UNL d   1      23.616 -14.157  -2.831  0.00  0.00     0.163 HD
ATOM     28  C   UNL d   1      23.531 -16.739  -1.159  0.00  0.00     0.033 C 
ATOM     29  C   UNL d   1      25.659 -16.417  -2.380  0.00  0.00     0.039 C 
ATOM     30  C   UNL d   1      24.285 -17.492  -0.301  0.00  0.00     0.026 C 
ATOM     31  C   UNL d   1      25.750 -17.437  -0.278  0.00  0.00     0.035 C 
ATOM     32 CL   UNL d   1      26.655 -18.214   0.953  0.00  0.00    -0.084 Cl
ATOM     33  C   UNL d   1      26.454 -16.882  -1.257  0.00  0.00     0.049 C 
ATOM     34  N   UNL d   1      26.122 -15.863  -3.385  0.00  0.00    -0.253 NA
ATOM     35  H   UNL d   1      25.489 -15.602  -4.186  0.00  0.00     0.131 HD
ENDBRANCH   4  24
TORSDOF 7
ENDMDL
