MODEL 1
REMARK VINA RESULT:    -7.281      0.000      0.000
REMARK INTER + INTRA:         -10.290
REMARK INTER:                  -9.370
REMARK INTRA:                  -0.921
REMARK CONF_INDEPENDENT:        2.088
REMARK UNBOUND:                -0.921
REMARK  7 active torsions:
REMARK  status: ('A' for Active; 'I' for Inactive)
REMARK       I    between atoms: C_2  and  N_3 
REMARK       I    between atoms: C_2  and  N_12 
REMARK    1  A    between atoms: N_3  and  C_4 
REMARK    2  A    between atoms: C_4  and  C_5 
REMARK    3  A    between atoms: C_5  and  C_6 
REMARK    4  A    between atoms: C_6  and  N_7 
REMARK    5  A    between atoms: N_12  and  N_13 
REMARK       I    between atoms: N_13  and  C_14 
REMARK    6  A    between atoms: C_14  and  C_16 
REMARK    7  A    between atoms: C_19  and  N_20 
ROOT
ATOM      1  O   UNL d   1      27.257 -18.355   0.272  0.00  0.00    -0.246 OA
ATOM      2  C   UNL d   1      26.867 -17.193   0.349  0.00  0.00     0.334 C 
ATOM      3  N   UNL d   1      25.659 -16.804  -0.179  0.00  0.00    -0.342 N 
ATOM      4  N   UNL d   1      27.619 -16.222   0.975  0.00  0.00    -0.249 N 
ATOM      5  H   UNL d   1      25.378 -15.848  -0.077  0.00  0.00     0.164 HD
ATOM      6  H   UNL d   1      28.518 -16.517   1.364  0.00  0.00     0.192 HD
ENDROOT
BRANCH   4   7
ATOM      7  N   UNL d   1      27.304 -14.851   1.084  0.00  0.00    -0.262 N 
ATOM      8  C   UNL d   1      28.059 -14.022   1.912  0.00  0.00     0.271 C 
ATOM      9  O   UNL d   1      29.086 -14.379   2.485  0.00  0.00    -0.266 OA
ATOM     10  H   UNL d   1      26.432 -14.524   0.701  0.00  0.00     0.190 HD
BRANCH   8  11
ATOM     11  C   UNL d   1      27.581 -12.603   2.050  0.00  0.00     0.055 A 
ATOM     12  C   UNL d   1      27.438 -12.053   3.343  0.00  0.00     0.021 A 
ATOM     13  C   UNL d   1      27.030 -10.716   3.523  0.00  0.00     0.037 A 
ATOM     14  C   UNL d   1      26.744  -9.923   2.407  0.00  0.00     0.104 A 
ATOM     15  C   UNL d   1      26.847 -10.465   1.120  0.00  0.00     0.060 A 
ATOM     16  C   UNL d   1      27.255 -11.799   0.947  0.00  0.00     0.052 A 
ATOM     17 CL   UNL d   1      27.302 -12.383  -0.680  0.00  0.00    -0.083 Cl
BRANCH  14  18
ATOM     18  N   UNL d   1      26.342  -8.515   2.570  0.00  0.00    -0.116 N 
ATOM     19  O   UNL d   1      26.889  -7.858   3.466  0.00  0.00    -0.532 OA
ATOM     20  O   UNL d   1      25.494  -8.068   1.784  0.00  0.00    -0.532 OA
ENDBRANCH  14  18
ENDBRANCH   8  11
ENDBRANCH   4   7
BRANCH   3  21
ATOM     21  C   UNL d   1      24.787 -17.754  -0.862  0.00  0.00     0.126 C 
BRANCH  21  22
ATOM     22  C   UNL d   1      23.415 -17.853  -0.197  0.00  0.00     0.040 C 
BRANCH  22  23
ATOM     23  C   UNL d   1      22.891 -19.289  -0.147  0.00  0.00     0.130 C 
BRANCH  23  24
ATOM     24  N   UNL d   1      21.423 -19.368  -0.315  0.00  0.00    -0.352 N 
ATOM     25  C   UNL d   1      20.597 -20.317   0.287  0.00  0.00     0.108 A 
ATOM     26  C   UNL d   1      19.315 -20.028  -0.090  0.00  0.00     0.106 A 
ATOM     27  N   UNL d   1      19.393 -18.921  -0.898  0.00  0.00    -0.361 N 
ATOM     28  C   UNL d   1      20.661 -18.516  -1.021  0.00  0.00     0.182 A 
ATOM     29  H   UNL d   1      18.601 -18.457  -1.340  0.00  0.00     0.166 HD
ENDBRANCH  23  24
ENDBRANCH  22  23
ENDBRANCH  21  22
ENDBRANCH   3  21
TORSDOF 7
ENDMDL
MODEL 2
REMARK VINA RESULT:    -6.931      6.085      8.920
REMARK INTER + INTRA:          -9.846
REMARK INTER:                  -9.019
REMARK INTRA:                  -0.827
REMARK CONF_INDEPENDENT:        2.088
REMARK UNBOUND:                -0.827
REMARK  7 active torsions:
REMARK  status: ('A' for Active; 'I' for Inactive)
REMARK       I    between atoms: C_2  and  N_3 
REMARK       I    between atoms: C_2  and  N_12 
REMARK    1  A    between atoms: N_3  and  C_4 
REMARK    2  A    between atoms: C_4  and  C_5 
REMARK    3  A    between atoms: C_5  and  C_6 
REMARK    4  A    between atoms: C_6  and  N_7 
REMARK    5  A    between atoms: N_12  and  N_13 
REMARK       I    between atoms: N_13  and  C_14 
REMARK    6  A    between atoms: C_14  and  C_16 
REMARK    7  A    between atoms: C_19  and  N_20 
ROOT
ATOM      1  O   UNL d   1      31.038 -17.635  -2.456  0.00  0.00    -0.246 OA
ATOM      2  C   UNL d   1      30.916 -17.935  -1.272  0.00  0.00     0.334 C 
ATOM      3  N   UNL d   1      29.801 -17.579  -0.551  0.00  0.00    -0.342 N 
ATOM      4  N   UNL d   1      31.890 -18.648  -0.606  0.00  0.00    -0.249 N 
ATOM      5  H   UNL d   1      29.740 -17.859   0.408  0.00  0.00     0.164 HD
ATOM      6  H   UNL d   1      32.718 -18.908  -1.145  0.00  0.00     0.192 HD
ENDROOT
BRANCH   4   7
ATOM      7  N   UNL d   1      31.888 -19.007   0.759  0.00  0.00    -0.262 N 
ATOM      8  C   UNL d   1      32.545 -20.161   1.181  0.00  0.00     0.271 C 
ATOM      9  O   UNL d   1      33.251 -20.853   0.450  0.00  0.00    -0.266 OA
ATOM     10  H   UNL d   1      31.265 -18.523   1.384  0.00  0.00     0.190 HD
BRANCH   8  11
ATOM     11  C   UNL d   1      32.395 -20.521   2.633  0.00  0.00     0.055 A 
ATOM     12  C   UNL d   1      31.202 -21.141   3.064  0.00  0.00     0.021 A 
ATOM     13  C   UNL d   1      31.029 -21.531   4.407  0.00  0.00     0.037 A 
ATOM     14  C   UNL d   1      32.046 -21.286   5.336  0.00  0.00     0.104 A 
ATOM     15  C   UNL d   1      33.221 -20.640   4.931  0.00  0.00     0.060 A 
ATOM     16  C   UNL d   1      33.388 -20.255   3.590  0.00  0.00     0.052 A 
ATOM     17 CL   UNL d   1      34.853 -19.420   3.207  0.00  0.00    -0.083 Cl
BRANCH  14  18
ATOM     18  N   UNL d   1      31.898 -21.711   6.739  0.00  0.00    -0.116 N 
ATOM     19  O   UNL d   1      32.901 -22.147   7.319  0.00  0.00    -0.532 OA
ATOM     20  O   UNL d   1      30.781 -21.582   7.259  0.00  0.00    -0.532 OA
ENDBRANCH  14  18
ENDBRANCH   8  11
ENDBRANCH   4   7
BRANCH   3  21
ATOM     21  C   UNL d   1      28.712 -16.823  -1.162  0.00  0.00     0.126 C 
BRANCH  21  22
ATOM     22  C   UNL d   1      27.374 -17.085  -0.473  0.00  0.00     0.040 C 
BRANCH  22  23
ATOM     23  C   UNL d   1      26.179 -16.718  -1.354  0.00  0.00     0.130 C 
BRANCH  23  24
ATOM     24  N   UNL d   1      24.903 -17.266  -0.844  0.00  0.00    -0.352 N 
ATOM     25  C   UNL d   1      23.645 -16.706  -1.063  0.00  0.00     0.108 A 
ATOM     26  C   UNL d   1      22.731 -17.526  -0.461  0.00  0.00     0.106 A 
ATOM     27  N   UNL d   1      23.448 -18.555   0.097  0.00  0.00    -0.361 N 
ATOM     28  C   UNL d   1      24.754 -18.405  -0.146  0.00  0.00     0.182 A 
ATOM     29  H   UNL d   1      23.052 -19.335   0.618  0.00  0.00     0.166 HD
ENDBRANCH  23  24
ENDBRANCH  22  23
ENDBRANCH  21  22
ENDBRANCH   3  21
TORSDOF 7
ENDMDL
MODEL 3
REMARK VINA RESULT:    -6.589      3.130      4.317
REMARK INTER + INTRA:          -9.644
REMARK INTER:                  -8.677
REMARK INTRA:                  -0.967
REMARK CONF_INDEPENDENT:        2.088
REMARK UNBOUND:                -0.967
REMARK  7 active torsions:
REMARK  status: ('A' for Active; 'I' for Inactive)
REMARK       I    between atoms: C_2  and  N_3 
REMARK       I    between atoms: C_2  and  N_12 
REMARK    1  A    between atoms: N_3  and  C_4 
REMARK    2  A    between atoms: C_4  and  C_5 
REMARK    3  A    between atoms: C_5  and  C_6 
REMARK    4  A    between atoms: C_6  and  N_7 
REMARK    5  A    between atoms: N_12  and  N_13 
REMARK       I    between atoms: N_13  and  C_14 
REMARK    6  A    between atoms: C_14  and  C_16 
REMARK    7  A    between atoms: C_19  and  N_20 
ROOT
ATOM      1  O   UNL d   1      27.887 -17.893   0.208  0.00  0.00    -0.246 OA
ATOM      2  C   UNL d   1      27.566 -16.726   0.409  0.00  0.00     0.334 C 
ATOM      3  N   UNL d   1      26.311 -16.261   0.092  0.00  0.00    -0.342 N 
ATOM      4  N   UNL d   1      28.445 -15.823   0.967  0.00  0.00    -0.249 N 
ATOM      5  H   UNL d   1      26.091 -15.304   0.290  0.00  0.00     0.164 HD
ATOM      6  H   UNL d   1      29.378 -16.173   1.198  0.00  0.00     0.192 HD
ENDROOT
BRANCH   4   7
ATOM      7  N   UNL d   1      28.212 -14.451   1.199  0.00  0.00    -0.262 N 
ATOM      8  C   UNL d   1      27.807 -14.011   2.458  0.00  0.00     0.271 C 
ATOM      9  O   UNL d   1      27.749 -14.736   3.449  0.00  0.00    -0.266 OA
ATOM     10  H   UNL d   1      28.169 -13.828   0.409  0.00  0.00     0.190 HD
BRANCH   8  11
ATOM     11  C   UNL d   1      27.475 -12.550   2.580  0.00  0.00     0.055 A 
ATOM     12  C   UNL d   1      26.863 -11.895   1.490  0.00  0.00     0.021 A 
ATOM     13  C   UNL d   1      26.498 -10.536   1.569  0.00  0.00     0.037 A 
ATOM     14  C   UNL d   1      26.762  -9.815   2.739  0.00  0.00     0.104 A 
ATOM     15  C   UNL d   1      27.401 -10.442   3.816  0.00  0.00     0.060 A 
ATOM     16  C   UNL d   1      27.761 -11.798   3.731  0.00  0.00     0.052 A 
ATOM     17 CL   UNL d   1      28.590 -12.460   5.096  0.00  0.00    -0.083 Cl
BRANCH  14  18
ATOM     18  N   UNL d   1      26.365  -8.401   2.854  0.00  0.00    -0.116 N 
ATOM     19  O   UNL d   1      26.896  -7.723   3.743  0.00  0.00    -0.532 OA
ATOM     20  O   UNL d   1      25.539  -7.972   2.036  0.00  0.00    -0.532 OA
ENDBRANCH  14  18
ENDBRANCH   8  11
ENDBRANCH   4   7
BRANCH   3  21
ATOM     21  C   UNL d   1      25.306 -17.135  -0.502  0.00  0.00     0.126 C 
BRANCH  21  22
ATOM     22  C   UNL d   1      24.553 -16.451  -1.643  0.00  0.00     0.040 C 
BRANCH  22  23
ATOM     23  C   UNL d   1      25.478 -16.036  -2.788  0.00  0.00     0.130 C 
BRANCH  23  24
ATOM     24  N   UNL d   1      25.504 -14.572  -3.000  0.00  0.00    -0.352 N 
ATOM     25  C   UNL d   1      26.271 -13.669  -2.265  0.00  0.00     0.108 A 
ATOM     26  C   UNL d   1      26.041 -12.427  -2.790  0.00  0.00     0.106 A 
ATOM     27  N   UNL d   1      25.154 -12.606  -3.823  0.00  0.00    -0.361 N 
ATOM     28  C   UNL d   1      24.843 -13.899  -3.957  0.00  0.00     0.182 A 
ATOM     29  H   UNL d   1      24.786 -11.867  -4.417  0.00  0.00     0.166 HD
ENDBRANCH  23  24
ENDBRANCH  22  23
ENDBRANCH  21  22
ENDBRANCH   3  21
TORSDOF 7
ENDMDL
MODEL 4
REMARK VINA RESULT:    -6.495      2.018      2.802
REMARK INTER + INTRA:         -10.062
REMARK INTER:                  -8.584
REMARK INTRA:                  -1.478
REMARK CONF_INDEPENDENT:        2.088
REMARK UNBOUND:                -1.478
REMARK  7 active torsions:
REMARK  status: ('A' for Active; 'I' for Inactive)
REMARK       I    between atoms: C_2  and  N_3 
REMARK       I    between atoms: C_2  and  N_12 
REMARK    1  A    between atoms: N_3  and  C_4 
REMARK    2  A    between atoms: C_4  and  C_5 
REMARK    3  A    between atoms: C_5  and  C_6 
REMARK    4  A    between atoms: C_6  and  N_7 
REMARK    5  A    between atoms: N_12  and  N_13 
REMARK       I    between atoms: N_13  and  C_14 
REMARK    6  A    between atoms: C_14  and  C_16 
REMARK    7  A    between atoms: C_19  and  N_20 
ROOT
ATOM      1  O   UNL d   1      29.492 -17.341  -0.531  0.00  0.00    -0.246 OA
ATOM      2  C   UNL d   1      29.049 -16.242  -0.209  0.00  0.00     0.334 C 
ATOM      3  N   UNL d   1      28.005 -15.660  -0.890  0.00  0.00    -0.342 N 
ATOM      4  N   UNL d   1      29.573 -15.538   0.854  0.00  0.00    -0.249 N 
ATOM      5  H   UNL d   1      27.669 -14.769  -0.580  0.00  0.00     0.164 HD
ATOM      6  H   UNL d   1      30.351 -15.974   1.354  0.00  0.00     0.192 HD
ENDROOT
BRANCH   4   7
ATOM      7  N   UNL d   1      29.186 -14.252   1.287  0.00  0.00    -0.262 N 
ATOM      8  C   UNL d   1      27.840 -13.960   1.502  0.00  0.00     0.271 C 
ATOM      9  O   UNL d   1      26.943 -14.799   1.457  0.00  0.00    -0.266 OA
ATOM     10  H   UNL d   1      29.867 -13.510   1.264  0.00  0.00     0.190 HD
BRANCH   8  11
ATOM     11  C   UNL d   1      27.515 -12.535   1.854  0.00  0.00     0.055 A 
ATOM     12  C   UNL d   1      27.320 -11.602   0.812  0.00  0.00     0.021 A 
ATOM     13  C   UNL d   1      26.976 -10.264   1.090  0.00  0.00     0.037 A 
ATOM     14  C   UNL d   1      26.842  -9.844   2.418  0.00  0.00     0.104 A 
ATOM     15  C   UNL d   1      27.067 -10.749   3.462  0.00  0.00     0.060 A 
ATOM     16  C   UNL d   1      27.409 -12.083   3.179  0.00  0.00     0.052 A 
ATOM     17 CL   UNL d   1      27.714 -13.104   4.540  0.00  0.00    -0.083 Cl
BRANCH  14  18
ATOM     18  N   UNL d   1      26.457  -8.457   2.731  0.00  0.00    -0.116 N 
ATOM     19  O   UNL d   1      27.092  -7.866   3.614  0.00  0.00    -0.532 OA
ATOM     20  O   UNL d   1      25.532  -7.959   2.072  0.00  0.00    -0.532 OA
ENDBRANCH  14  18
ENDBRANCH   8  11
ENDBRANCH   4   7
BRANCH   3  21
ATOM     21  C   UNL d   1      27.379 -16.322  -2.029  0.00  0.00     0.126 C 
BRANCH  21  22
ATOM     22  C   UNL d   1      25.863 -16.138  -2.038  0.00  0.00     0.040 C 
BRANCH  22  23
ATOM     23  C   UNL d   1      25.264 -16.148  -0.631  0.00  0.00     0.130 C 
BRANCH  23  24
ATOM     24  N   UNL d   1      24.213 -17.176  -0.464  0.00  0.00    -0.352 N 
ATOM     25  C   UNL d   1      22.864 -17.002  -0.772  0.00  0.00     0.108 A 
ATOM     26  C   UNL d   1      22.238 -18.189  -0.510  0.00  0.00     0.106 A 
ATOM     27  N   UNL d   1      23.211 -19.046  -0.060  0.00  0.00    -0.361 N 
ATOM     28  C   UNL d   1      24.402 -18.440  -0.046  0.00  0.00     0.182 A 
ATOM     29  H   UNL d   1      23.062 -20.014   0.218  0.00  0.00     0.166 HD
ENDBRANCH  23  24
ENDBRANCH  22  23
ENDBRANCH  21  22
ENDBRANCH   3  21
TORSDOF 7
ENDMDL
MODEL 5
REMARK VINA RESULT:    -6.287      3.604      4.448
REMARK INTER + INTRA:          -9.690
REMARK INTER:                  -8.375
REMARK INTRA:                  -1.315
REMARK CONF_INDEPENDENT:        2.088
REMARK UNBOUND:                -1.315
REMARK  7 active torsions:
REMARK  status: ('A' for Active; 'I' for Inactive)
REMARK       I    between atoms: C_2  and  N_3 
REMARK       I    between atoms: C_2  and  N_12 
REMARK    1  A    between atoms: N_3  and  C_4 
REMARK    2  A    between atoms: C_4  and  C_5 
REMARK    3  A    between atoms: C_5  and  C_6 
REMARK    4  A    between atoms: C_6  and  N_7 
REMARK    5  A    between atoms: N_12  and  N_13 
REMARK       I    between atoms: N_13  and  C_14 
REMARK    6  A    between atoms: C_14  and  C_16 
REMARK    7  A    between atoms: C_19  and  N_20 
ROOT
ATOM      1  O   UNL d   1      25.316 -15.299  -5.055  0.00  0.00    -0.246 OA
ATOM      2  C   UNL d   1      25.477 -14.345  -4.299  0.00  0.00     0.334 C 
ATOM      3  N   UNL d   1      25.998 -14.509  -3.036  0.00  0.00    -0.342 N 
ATOM      4  N   UNL d   1      25.151 -13.062  -4.679  0.00  0.00    -0.249 N 
ATOM      5  H   UNL d   1      26.126 -13.698  -2.463  0.00  0.00     0.164 HD
ATOM      6  H   UNL d   1      24.762 -12.946  -5.618  0.00  0.00     0.192 HD
ENDROOT
BRANCH   4   7
ATOM      7  N   UNL d   1      25.242 -11.897  -3.887  0.00  0.00    -0.262 N 
ATOM      8  C   UNL d   1      26.440 -11.576  -3.250  0.00  0.00     0.271 C 
ATOM      9  O   UNL d   1      27.493 -12.184  -3.425  0.00  0.00    -0.266 OA
ATOM     10  H   UNL d   1      24.396 -11.408  -3.648  0.00  0.00     0.190 HD
BRANCH   8  11
ATOM     11  C   UNL d   1      26.410 -10.379  -2.339  0.00  0.00     0.055 A 
ATOM     12  C   UNL d   1      25.688  -9.234  -2.739  0.00  0.00     0.021 A 
ATOM     13  C   UNL d   1      25.599  -8.102  -1.904  0.00  0.00     0.037 A 
ATOM     14  C   UNL d   1      26.251  -8.102  -0.666  0.00  0.00     0.104 A 
ATOM     15  C   UNL d   1      27.000  -9.217  -0.271  0.00  0.00     0.060 A 
ATOM     16  C   UNL d   1      27.084 -10.343  -1.108  0.00  0.00     0.052 A 
ATOM     17 CL   UNL d   1      28.075 -11.645  -0.548  0.00  0.00    -0.083 Cl
BRANCH  14  18
ATOM     18  N   UNL d   1      26.149  -6.941   0.235  0.00  0.00    -0.116 N 
ATOM     19  O   UNL d   1      27.058  -6.102   0.201  0.00  0.00    -0.532 OA
ATOM     20  O   UNL d   1      25.144  -6.865   0.957  0.00  0.00    -0.532 OA
ENDBRANCH  14  18
ENDBRANCH   8  11
ENDBRANCH   4   7
BRANCH   3  21
ATOM     21  C   UNL d   1      26.377 -15.826  -2.536  0.00  0.00     0.126 C 
BRANCH  21  22
ATOM     22  C   UNL d   1      25.622 -16.194  -1.260  0.00  0.00     0.040 C 
BRANCH  22  23
ATOM     23  C   UNL d   1      24.105 -16.193  -1.456  0.00  0.00     0.130 C 
BRANCH  23  24
ATOM     24  N   UNL d   1      23.461 -17.421  -0.940  0.00  0.00    -0.352 N 
ATOM     25  C   UNL d   1      22.086 -17.646  -0.892  0.00  0.00     0.108 A 
ATOM     26  C   UNL d   1      21.903 -18.904  -0.386  0.00  0.00     0.106 A 
ATOM     27  N   UNL d   1      23.158 -19.407  -0.147  0.00  0.00    -0.361 N 
ATOM     28  C   UNL d   1      24.095 -18.520  -0.495  0.00  0.00     0.182 A 
ATOM     29  H   UNL d   1      23.360 -20.330   0.231  0.00  0.00     0.166 HD
ENDBRANCH  23  24
ENDBRANCH  22  23
ENDBRANCH  21  22
ENDBRANCH   3  21
TORSDOF 7
ENDMDL
MODEL 6
REMARK VINA RESULT:    -6.242      5.041      5.637
REMARK INTER + INTRA:          -9.693
REMARK INTER:                  -8.331
REMARK INTRA:                  -1.362
REMARK CONF_INDEPENDENT:        2.088
REMARK UNBOUND:                -1.362
REMARK  7 active torsions:
REMARK  status: ('A' for Active; 'I' for Inactive)
REMARK       I    between atoms: C_2  and  N_3 
REMARK       I    between atoms: C_2  and  N_12 
REMARK    1  A    between atoms: N_3  and  C_4 
REMARK    2  A    between atoms: C_4  and  C_5 
REMARK    3  A    between atoms: C_5  and  C_6 
REMARK    4  A    between atoms: C_6  and  N_7 
REMARK    5  A    between atoms: N_12  and  N_13 
REMARK       I    between atoms: N_13  and  C_14 
REMARK    6  A    between atoms: C_14  and  C_16 
REMARK    7  A    between atoms: C_19  and  N_20 
ROOT
ATOM      1  O   UNL d   1      25.619 -18.169   0.220  0.00  0.00    -0.246 OA
ATOM      2  C   UNL d   1      25.613 -17.181  -0.509  0.00  0.00     0.334 C 
ATOM      3  N   UNL d   1      24.451 -16.500  -0.788  0.00  0.00    -0.342 N 
ATOM      4  N   UNL d   1      26.771 -16.701  -1.080  0.00  0.00    -0.249 N 
ATOM      5  H   UNL d   1      24.499 -15.691  -1.376  0.00  0.00     0.164 HD
ATOM      6  H   UNL d   1      27.632 -17.212  -0.872  0.00  0.00     0.192 HD
ENDROOT
BRANCH   4   7
ATOM      7  N   UNL d   1      26.885 -15.612  -1.970  0.00  0.00    -0.262 N 
ATOM      8  C   UNL d   1      26.079 -15.547  -3.105  0.00  0.00     0.271 C 
ATOM      9  O   UNL d   1      25.161 -16.331  -3.338  0.00  0.00    -0.266 OA
ATOM     10  H   UNL d   1      27.668 -14.986  -1.871  0.00  0.00     0.190 HD
BRANCH   8  11
ATOM     11  C   UNL d   1      26.348 -14.409  -4.051  0.00  0.00     0.055 A 
ATOM     12  C   UNL d   1      25.394 -13.375  -4.165  0.00  0.00     0.021 A 
ATOM     13  C   UNL d   1      25.618 -12.269  -5.009  0.00  0.00     0.037 A 
ATOM     14  C   UNL d   1      26.795 -12.199  -5.762  0.00  0.00     0.104 A 
ATOM     15  C   UNL d   1      27.734 -13.235  -5.687  0.00  0.00     0.060 A 
ATOM     16  C   UNL d   1      27.506 -14.335  -4.842  0.00  0.00     0.052 A 
ATOM     17 CL   UNL d   1      28.704 -15.582  -4.862  0.00  0.00    -0.083 Cl
BRANCH  14  18
ATOM     18  N   UNL d   1      27.063 -11.039  -6.630  0.00  0.00    -0.116 N 
ATOM     19  O   UNL d   1      26.158 -10.663  -7.386  0.00  0.00    -0.532 OA
ATOM     20  O   UNL d   1      28.173 -10.497  -6.532  0.00  0.00    -0.532 OA
ENDBRANCH  14  18
ENDBRANCH   8  11
ENDBRANCH   4   7
BRANCH   3  21
ATOM     21  C   UNL d   1      23.170 -16.926  -0.233  0.00  0.00     0.126 C 
BRANCH  21  22
ATOM     22  C   UNL d   1      22.562 -18.087  -1.019  0.00  0.00     0.040 C 
BRANCH  22  23
ATOM     23  C   UNL d   1      22.297 -19.312  -0.143  0.00  0.00     0.130 C 
BRANCH  23  24
ATOM     24  N   UNL d   1      20.864 -19.673  -0.084  0.00  0.00    -0.352 N 
ATOM     25  C   UNL d   1      20.283 -20.496   0.881  0.00  0.00     0.108 A 
ATOM     26  C   UNL d   1      18.944 -20.552   0.606  0.00  0.00     0.106 A 
ATOM     27  N   UNL d   1      18.747 -19.767  -0.503  0.00  0.00    -0.361 N 
ATOM     28  C   UNL d   1      19.901 -19.228  -0.909  0.00  0.00     0.182 A 
ATOM     29  H   UNL d   1      17.851 -19.603  -0.956  0.00  0.00     0.166 HD
ENDBRANCH  23  24
ENDBRANCH  22  23
ENDBRANCH  21  22
ENDBRANCH   3  21
TORSDOF 7
ENDMDL
MODEL 7
REMARK VINA RESULT:    -6.202      4.798      8.084
REMARK INTER + INTRA:          -9.672
REMARK INTER:                  -8.290
REMARK INTRA:                  -1.382
REMARK CONF_INDEPENDENT:        2.088
REMARK UNBOUND:                -1.382
REMARK  7 active torsions:
REMARK  status: ('A' for Active; 'I' for Inactive)
REMARK       I    between atoms: C_2  and  N_3 
REMARK       I    between atoms: C_2  and  N_12 
REMARK    1  A    between atoms: N_3  and  C_4 
REMARK    2  A    between atoms: C_4  and  C_5 
REMARK    3  A    between atoms: C_5  and  C_6 
REMARK    4  A    between atoms: C_6  and  N_7 
REMARK    5  A    between atoms: N_12  and  N_13 
REMARK       I    between atoms: N_13  and  C_14 
REMARK    6  A    between atoms: C_14  and  C_16 
REMARK    7  A    between atoms: C_19  and  N_20 
ROOT
ATOM      1  O   UNL d   1      31.211 -16.300  -1.000  0.00  0.00    -0.246 OA
ATOM      2  C   UNL d   1      30.030 -16.565  -1.205  0.00  0.00     0.334 C 
ATOM      3  N   UNL d   1      29.377 -16.115  -2.328  0.00  0.00    -0.342 N 
ATOM      4  N   UNL d   1      29.300 -17.332  -0.322  0.00  0.00    -0.249 N 
ATOM      5  H   UNL d   1      28.418 -16.370  -2.459  0.00  0.00     0.164 HD
ATOM      6  H   UNL d   1      29.790 -17.662   0.512  0.00  0.00     0.192 HD
ENDROOT
BRANCH   4   7
ATOM      7  N   UNL d   1      27.932 -17.661  -0.421  0.00  0.00    -0.262 N 
ATOM      8  C   UNL d   1      26.985 -16.661  -0.642  0.00  0.00     0.271 C 
ATOM      9  O   UNL d   1      27.270 -15.490  -0.883  0.00  0.00    -0.266 OA
ATOM     10  H   UNL d   1      27.637 -18.586  -0.156  0.00  0.00     0.190 HD
BRANCH   8  11
ATOM     11  C   UNL d   1      25.544 -17.091  -0.621  0.00  0.00     0.055 A 
ATOM     12  C   UNL d   1      25.178 -18.218   0.147  0.00  0.00     0.021 A 
ATOM     13  C   UNL d   1      23.835 -18.637   0.228  0.00  0.00     0.037 A 
ATOM     14  C   UNL d   1      22.848 -17.940  -0.476  0.00  0.00     0.104 A 
ATOM     15  C   UNL d   1      23.201 -16.842  -1.270  0.00  0.00     0.060 A 
ATOM     16  C   UNL d   1      24.541 -16.428  -1.346  0.00  0.00     0.052 A 
ATOM     17 CL   UNL d   1      24.876 -15.093  -2.394  0.00  0.00    -0.083 Cl
BRANCH  14  18
ATOM     18  N   UNL d   1      21.434 -18.344  -0.384  0.00  0.00    -0.116 N 
ATOM     19  O   UNL d   1      20.634 -17.830  -1.176  0.00  0.00    -0.532 OA
ATOM     20  O   UNL d   1      21.138 -19.192   0.470  0.00  0.00    -0.532 OA
ENDBRANCH  14  18
ENDBRANCH   8  11
ENDBRANCH   4   7
BRANCH   3  21
ATOM     21  C   UNL d   1      30.058 -15.296  -3.326  0.00  0.00     0.126 C 
BRANCH  21  22
ATOM     22  C   UNL d   1      29.129 -14.894  -4.470  0.00  0.00     0.040 C 
BRANCH  22  23
ATOM     23  C   UNL d   1      27.708 -14.594  -3.992  0.00  0.00     0.130 C 
BRANCH  23  24
ATOM     24  N   UNL d   1      27.119 -13.410  -4.656  0.00  0.00    -0.352 N 
ATOM     25  C   UNL d   1      27.829 -12.482  -5.417  0.00  0.00     0.108 A 
ATOM     26  C   UNL d   1      26.923 -11.568  -5.881  0.00  0.00     0.106 A 
ATOM     27  N   UNL d   1      25.700 -11.963  -5.400  0.00  0.00    -0.361 N 
ATOM     28  C   UNL d   1      25.816 -13.080  -4.675  0.00  0.00     0.182 A 
ATOM     29  H   UNL d   1      24.817 -11.486  -5.574  0.00  0.00     0.166 HD
ENDBRANCH  23  24
ENDBRANCH  22  23
ENDBRANCH  21  22
ENDBRANCH   3  21
TORSDOF 7
ENDMDL
MODEL 8
REMARK VINA RESULT:    -6.008      4.589      8.268
REMARK INTER + INTRA:          -9.681
REMARK INTER:                  -8.097
REMARK INTRA:                  -1.585
REMARK CONF_INDEPENDENT:        2.088
REMARK UNBOUND:                -1.585
REMARK  7 active torsions:
REMARK  status: ('A' for Active; 'I' for Inactive)
REMARK       I    between atoms: C_2  and  N_3 
REMARK       I    between atoms: C_2  and  N_12 
REMARK    1  A    between atoms: N_3  and  C_4 
REMARK    2  A    between atoms: C_4  and  C_5 
REMARK    3  A    between atoms: C_5  and  C_6 
REMARK    4  A    between atoms: C_6  and  N_7 
REMARK    5  A    between atoms: N_12  and  N_13 
REMARK       I    between atoms: N_13  and  C_14 
REMARK    6  A    between atoms: C_14  and  C_16 
REMARK    7  A    between atoms: C_19  and  N_20 
ROOT
ATOM      1  O   UNL d   1      31.236 -16.223  -0.522  0.00  0.00    -0.246 OA
ATOM      2  C   UNL d   1      30.054 -16.398  -0.803  0.00  0.00     0.334 C 
ATOM      3  N   UNL d   1      29.405 -15.598  -1.715  0.00  0.00    -0.342 N 
ATOM      4  N   UNL d   1      29.318 -17.409  -0.223  0.00  0.00    -0.249 N 
ATOM      5  H   UNL d   1      28.445 -15.791  -1.922  0.00  0.00     0.164 HD
ATOM      6  H   UNL d   1      29.804 -17.999   0.456  0.00  0.00     0.192 HD
ENDROOT
BRANCH   4   7
ATOM      7  N   UNL d   1      27.948 -17.678  -0.424  0.00  0.00    -0.262 N 
ATOM      8  C   UNL d   1      27.006 -16.659  -0.288  0.00  0.00     0.271 C 
ATOM      9  O   UNL d   1      27.297 -15.477  -0.117  0.00  0.00    -0.266 OA
ATOM     10  H   UNL d   1      27.649 -18.637  -0.489  0.00  0.00     0.190 HD
BRANCH   8  11
ATOM     11  C   UNL d   1      25.563 -17.064  -0.411  0.00  0.00     0.055 A 
ATOM     12  C   UNL d   1      25.109 -18.199   0.294  0.00  0.00     0.021 A 
ATOM     13  C   UNL d   1      23.758 -18.597   0.241  0.00  0.00     0.037 A 
ATOM     14  C   UNL d   1      22.852 -17.868  -0.537  0.00  0.00     0.104 A 
ATOM     15  C   UNL d   1      23.295 -16.760  -1.271  0.00  0.00     0.060 A 
ATOM     16  C   UNL d   1      24.643 -16.369  -1.212  0.00  0.00     0.052 A 
ATOM     17 CL   UNL d   1      25.095 -15.019  -2.195  0.00  0.00    -0.083 Cl
BRANCH  14  18
ATOM     18  N   UNL d   1      21.429 -18.249  -0.585  0.00  0.00    -0.116 N 
ATOM     19  O   UNL d   1      21.086 -19.275   0.014  0.00  0.00    -0.532 OA
ATOM     20  O   UNL d   1      20.660 -17.502  -1.207  0.00  0.00    -0.532 OA
ENDBRANCH  14  18
ENDBRANCH   8  11
ENDBRANCH   4   7
BRANCH   3  21
ATOM     21  C   UNL d   1      30.093 -14.501  -2.386  0.00  0.00     0.126 C 
BRANCH  21  22
ATOM     22  C   UNL d   1      29.119 -13.439  -2.895  0.00  0.00     0.040 C 
BRANCH  22  23
ATOM     23  C   UNL d   1      28.082 -14.011  -3.862  0.00  0.00     0.130 C 
BRANCH  23  24
ATOM     24  N   UNL d   1      28.684 -14.498  -5.123  0.00  0.00    -0.352 N 
ATOM     25  C   UNL d   1      29.245 -15.762  -5.308  0.00  0.00     0.108 A 
ATOM     26  C   UNL d   1      29.655 -15.831  -6.611  0.00  0.00     0.106 A 
ATOM     27  N   UNL d   1      29.332 -14.624  -7.179  0.00  0.00    -0.361 N 
ATOM     28  C   UNL d   1      28.735 -13.828  -6.287  0.00  0.00     0.182 A 
ATOM     29  H   UNL d   1      29.508 -14.363  -8.147  0.00  0.00     0.166 HD
ENDBRANCH  23  24
ENDBRANCH  22  23
ENDBRANCH  21  22
ENDBRANCH   3  21
TORSDOF 7
ENDMDL
MODEL 9
REMARK VINA RESULT:    -5.775      4.027      7.745
REMARK INTER + INTRA:          -9.625
REMARK INTER:                  -7.863
REMARK INTRA:                  -1.761
REMARK CONF_INDEPENDENT:        2.088
REMARK UNBOUND:                -1.761
REMARK  7 active torsions:
REMARK  status: ('A' for Active; 'I' for Inactive)
REMARK       I    between atoms: C_2  and  N_3 
REMARK       I    between atoms: C_2  and  N_12 
REMARK    1  A    between atoms: N_3  and  C_4 
REMARK    2  A    between atoms: C_4  and  C_5 
REMARK    3  A    between atoms: C_5  and  C_6 
REMARK    4  A    between atoms: C_6  and  N_7 
REMARK    5  A    between atoms: N_12  and  N_13 
REMARK       I    between atoms: N_13  and  C_14 
REMARK    6  A    between atoms: C_14  and  C_16 
REMARK    7  A    between atoms: C_19  and  N_20 
ROOT
ATOM      1  O   UNL d   1      30.889 -13.798   0.530  0.00  0.00    -0.246 OA
ATOM      2  C   UNL d   1      29.760 -14.230   0.314  0.00  0.00     0.334 C 
ATOM      3  N   UNL d   1      28.842 -13.510  -0.414  0.00  0.00    -0.342 N 
ATOM      4  N   UNL d   1      29.358 -15.461   0.785  0.00  0.00    -0.249 N 
ATOM      5  H   UNL d   1      27.939 -13.912  -0.577  0.00  0.00     0.164 HD
ATOM      6  H   UNL d   1      30.044 -15.991   1.328  0.00  0.00     0.192 HD
ENDROOT
BRANCH   4   7
ATOM      7  N   UNL d   1      28.079 -16.041   0.647  0.00  0.00    -0.262 N 
ATOM      8  C   UNL d   1      27.469 -16.102  -0.605  0.00  0.00     0.271 C 
ATOM      9  O   UNL d   1      28.026 -15.786  -1.654  0.00  0.00    -0.266 OA
ATOM     10  H   UNL d   1      27.548 -16.244   1.478  0.00  0.00     0.190 HD
BRANCH   8  11
ATOM     11  C   UNL d   1      26.063 -16.635  -0.636  0.00  0.00     0.055 A 
ATOM     12  C   UNL d   1      25.038 -15.827  -1.172  0.00  0.00     0.021 A 
ATOM     13  C   UNL d   1      23.712 -16.296  -1.259  0.00  0.00     0.037 A 
ATOM     14  C   UNL d   1      23.398 -17.576  -0.790  0.00  0.00     0.104 A 
ATOM     15  C   UNL d   1      24.398 -18.376  -0.223  0.00  0.00     0.060 A 
ATOM     16  C   UNL d   1      25.718 -17.903  -0.141  0.00  0.00     0.052 A 
ATOM     17 CL   UNL d   1      26.864 -18.950   0.622  0.00  0.00    -0.083 Cl
BRANCH  14  18
ATOM     18  N   UNL d   1      22.024 -18.098  -0.895  0.00  0.00    -0.116 N 
ATOM     19  O   UNL d   1      21.094 -17.280  -0.897  0.00  0.00    -0.532 OA
ATOM     20  O   UNL d   1      21.886 -19.325  -0.998  0.00  0.00    -0.532 OA
ENDBRANCH  14  18
ENDBRANCH   8  11
ENDBRANCH   4   7
BRANCH   3  21
ATOM     21  C   UNL d   1      29.167 -12.196  -0.958  0.00  0.00     0.126 C 
BRANCH  21  22
ATOM     22  C   UNL d   1      28.783 -12.075  -2.432  0.00  0.00     0.040 C 
BRANCH  22  23
ATOM     23  C   UNL d   1      27.344 -11.592  -2.625  0.00  0.00     0.130 C 
BRANCH  23  24
ATOM     24  N   UNL d   1      26.516 -12.553  -3.386  0.00  0.00    -0.352 N 
ATOM     25  C   UNL d   1      26.674 -13.939  -3.369  0.00  0.00     0.108 A 
ATOM     26  C   UNL d   1      25.698 -14.463  -4.170  0.00  0.00     0.106 A 
ATOM     27  N   UNL d   1      24.977 -13.396  -4.645  0.00  0.00    -0.361 N 
ATOM     28  C   UNL d   1      25.461 -12.248  -4.161  0.00  0.00     0.182 A 
ATOM     29  H   UNL d   1      24.177 -13.458  -5.271  0.00  0.00     0.166 HD
ENDBRANCH  23  24
ENDBRANCH  22  23
ENDBRANCH  21  22
ENDBRANCH   3  21
TORSDOF 7
ENDMDL
