MODEL 1
REMARK VINA RESULT:    -9.285      0.000      0.000
REMARK INTER + INTRA:         -13.602
REMARK INTER:                 -11.969
REMARK INTRA:                  -1.632
REMARK CONF_INDEPENDENT:        2.685
REMARK UNBOUND:                -1.632
REMARK  9 active torsions:
REMARK  status: ('A' for Active; 'I' for Inactive)
REMARK    1  A    between atoms: C_2  and  O_3 
REMARK    2  A    between atoms: O_3  and  C_4 
REMARK    3  A    between atoms: C_7  and  C_8 
REMARK    4  A    between atoms: C_8  and  C_9 
REMARK    5  A    between atoms: C_9  and  N_10 
REMARK       I    between atoms: N_10  and  C_11 
REMARK    6  A    between atoms: C_11  and  C_13 
REMARK    7  A    between atoms: N_16  and  C_17 
REMARK    8  A    between atoms: C_30  and  O_31 
REMARK    9  A    between atoms: O_31  and  C_32 
ROOT
ATOM      1  C   UNL d   1      27.636 -12.345   1.278  0.00  0.00     0.081 C 
ATOM      2  C   UNL d   1      28.883 -11.731   1.930  0.00  0.00     0.044 C 
ATOM      3  C   UNL d   1      29.473 -12.580   3.107  0.00  0.00     0.277 C 
ATOM      4  N   UNL d   1      28.327 -13.024   4.216  0.00  0.00     0.125 N 
ATOM      5  C   UNL d   1      27.263 -13.709   3.376  0.00  0.00     0.277 C 
ATOM      6  C   UNL d   1      26.649 -12.782   2.359  0.00  0.00     0.044 C 
ENDROOT
BRANCH   1   7
ATOM      7  C   UNL d   1      27.875 -13.471   0.255  0.00  0.00     0.221 C 
ATOM      8  N   UNL d   1      28.382 -14.660   0.743  0.00  0.00    -0.360 N 
ATOM      9  H   UNL d   1      29.002 -14.624   1.534  0.00  0.00     0.162 HD
ATOM     10  O   UNL d   1      27.515 -13.341  -0.911  0.00  0.00    -0.273 OA
BRANCH   8  11
ATOM     11  C   UNL d   1      28.664 -15.742  -0.183  0.00  0.00     0.127 C 
BRANCH  11  12
ATOM     12  C   UNL d   1      28.010 -17.074   0.229  0.00  0.00     0.058 C 
BRANCH  12  13
ATOM     13  C   UNL d   1      26.550 -17.170  -0.142  0.00  0.00    -0.054 A 
ATOM     14  C   UNL d   1      25.750 -18.225   0.293  0.00  0.00     0.010 A 
ATOM     15  C   UNL d   1      24.428 -18.351  -0.181  0.00  0.00     0.040 A 
ATOM     16  C   UNL d   1      23.833 -17.393  -1.040  0.00  0.00     0.102 A 
ATOM     17  C   UNL d   1      24.634 -16.281  -1.414  0.00  0.00     0.102 A 
ATOM     18  C   UNL d   1      25.961 -16.216  -0.974  0.00  0.00     0.046 A 
BRANCH  16  19
ATOM     19  O   UNL d   1      22.469 -17.601  -1.196  0.00  0.00    -0.349 OA
BRANCH  19  20
ATOM     20  C   UNL d   1      21.795 -18.583  -0.405  0.00  0.00     0.171 C 
ATOM     21  C   UNL d   1      20.435 -19.028  -0.895  0.00  0.00     0.034 C 
ENDBRANCH  19  20
ENDBRANCH  16  19
BRANCH  17  22
ATOM     22  O   UNL d   1      24.393 -15.111  -2.133  0.00  0.00    -0.349 OA
BRANCH  22  23
ATOM     23  C   UNL d   1      25.413 -14.878  -3.039  0.00  0.00     0.171 C 
ATOM     24  C   UNL d   1      25.277 -14.123  -4.328  0.00  0.00     0.034 C 
ENDBRANCH  22  23
ENDBRANCH  17  22
ENDBRANCH  12  13
ENDBRANCH  11  12
ENDBRANCH   8  11
ENDBRANCH   1   7
BRANCH   4  25
ATOM     25  C   UNL d   1      28.764 -13.653   5.563  0.00  0.00     0.404 C 
ATOM     26  N   UNL d   1      30.080 -14.477   6.200  0.00  0.00    -0.347 N 
ATOM     27  C   UNL d   1      30.192 -14.076   7.440  0.00  0.00     0.052 C 
ATOM     28  H   UNL d   1      30.808 -15.055   5.755  0.00  0.00     0.163 HD
ATOM     29  C   UNL d   1      30.897 -14.233   8.759  0.00  0.00     0.033 C 
ATOM     30  C   UNL d   1      29.253 -12.933   7.500  0.00  0.00     0.039 C 
ATOM     31  C   UNL d   1      30.132 -13.854   9.831  0.00  0.00     0.026 C 
ATOM     32  C   UNL d   1      28.759 -13.347   9.702  0.00  0.00     0.035 C 
ATOM     33 CL   UNL d   1      27.764 -13.076  11.071  0.00  0.00    -0.084 Cl
ATOM     34  C   UNL d   1      28.256 -12.959   8.536  0.00  0.00     0.049 C 
ATOM     35  N   UNL d   1      29.077 -12.450   6.374  0.00  0.00    -0.244 NA
ATOM     36  H   UNL d   1      29.927 -12.247   5.797  0.00  0.00     0.131 HD
ENDBRANCH   4  25
TORSDOF 9
ENDMDL
MODEL 2
REMARK VINA RESULT:    -9.042      1.535      2.282
REMARK INTER + INTRA:         -12.970
REMARK INTER:                 -11.726
REMARK INTRA:                  -1.244
REMARK CONF_INDEPENDENT:        2.685
REMARK UNBOUND:                -1.244
REMARK  9 active torsions:
REMARK  status: ('A' for Active; 'I' for Inactive)
REMARK    1  A    between atoms: C_2  and  O_3 
REMARK    2  A    between atoms: O_3  and  C_4 
REMARK    3  A    between atoms: C_7  and  C_8 
REMARK    4  A    between atoms: C_8  and  C_9 
REMARK    5  A    between atoms: C_9  and  N_10 
REMARK       I    between atoms: N_10  and  C_11 
REMARK    6  A    between atoms: C_11  and  C_13 
REMARK    7  A    between atoms: N_16  and  C_17 
REMARK    8  A    between atoms: C_30  and  O_31 
REMARK    9  A    between atoms: O_31  and  C_32 
ROOT
ATOM      1  C   UNL d   1      30.290 -12.984   2.824  0.00  0.00     0.081 C 
ATOM      2  C   UNL d   1      30.957 -14.082   3.665  0.00  0.00     0.044 C 
ATOM      3  C   UNL d   1      30.338 -14.258   5.094  0.00  0.00     0.277 C 
ATOM      4  N   UNL d   1      30.195 -12.825   5.912  0.00  0.00     0.125 N 
ATOM      5  C   UNL d   1      29.410 -11.944   4.956  0.00  0.00     0.277 C 
ATOM      6  C   UNL d   1      30.140 -11.713   3.658  0.00  0.00     0.044 C 
ENDROOT
BRANCH   1   7
ATOM      7  C   UNL d   1      28.967 -13.355   2.130  0.00  0.00     0.221 C 
ATOM      8  N   UNL d   1      28.666 -14.700   2.037  0.00  0.00    -0.360 N 
ATOM      9  H   UNL d   1      29.426 -15.353   1.945  0.00  0.00     0.162 HD
ATOM     10  O   UNL d   1      28.174 -12.481   1.790  0.00  0.00    -0.273 OA
BRANCH   8  11
ATOM     11  C   UNL d   1      27.450 -15.108   1.357  0.00  0.00     0.127 C 
BRANCH  11  12
ATOM     12  C   UNL d   1      27.550 -16.513   0.733  0.00  0.00     0.058 C 
BRANCH  12  13
ATOM     13  C   UNL d   1      26.263 -16.983   0.097  0.00  0.00    -0.054 A 
ATOM     14  C   UNL d   1      25.547 -18.065   0.605  0.00  0.00     0.010 A 
ATOM     15  C   UNL d   1      24.424 -18.557  -0.091  0.00  0.00     0.040 A 
ATOM     16  C   UNL d   1      23.931 -17.943  -1.270  0.00  0.00     0.102 A 
ATOM     17  C   UNL d   1      24.623 -16.793  -1.734  0.00  0.00     0.102 A 
ATOM     18  C   UNL d   1      25.770 -16.366  -1.053  0.00  0.00     0.046 A 
BRANCH  16  19
ATOM     19  O   UNL d   1      22.698 -18.456  -1.654  0.00  0.00    -0.349 OA
BRANCH  19  20
ATOM     20  C   UNL d   1      21.852 -19.093  -0.693  0.00  0.00     0.171 C 
ATOM     21  C   UNL d   1      20.361 -18.930  -0.893  0.00  0.00     0.034 C 
ENDBRANCH  19  20
ENDBRANCH  16  19
BRANCH  17  22
ATOM     22  O   UNL d   1      24.401 -15.875  -2.759  0.00  0.00    -0.349 OA
BRANCH  22  23
ATOM     23  C   UNL d   1      25.390 -14.908  -2.770  0.00  0.00     0.171 C 
ATOM     24  C   UNL d   1      25.230 -13.503  -3.271  0.00  0.00     0.034 C 
ENDBRANCH  22  23
ENDBRANCH  17  22
ENDBRANCH  12  13
ENDBRANCH  11  12
ENDBRANCH   8  11
ENDBRANCH   1   7
BRANCH   4  25
ATOM     25  C   UNL d   1      29.833 -12.834   7.419  0.00  0.00     0.404 C 
ATOM     26  N   UNL d   1      28.618 -12.263   8.427  0.00  0.00    -0.347 N 
ATOM     27  C   UNL d   1      28.465 -13.168   9.358  0.00  0.00     0.052 C 
ATOM     28  H   UNL d   1      27.958 -11.477   8.327  0.00  0.00     0.163 HD
ATOM     29  C   UNL d   1      27.785 -13.557  10.642  0.00  0.00     0.033 C 
ATOM     30  C   UNL d   1      29.271 -14.300   8.848  0.00  0.00     0.039 C 
ATOM     31  C   UNL d   1      28.505 -14.452  11.387  0.00  0.00     0.026 C 
ATOM     32  C   UNL d   1      29.813 -14.978  10.972  0.00  0.00     0.035 C 
ATOM     33 CL   UNL d   1      30.775 -15.936  12.019  0.00  0.00    -0.084 Cl
ATOM     34  C   UNL d   1      30.266 -14.844   9.732  0.00  0.00     0.049 C 
ATOM     35  N   UNL d   1      29.389 -14.236   7.618  0.00  0.00    -0.244 NA
ATOM     36  H   UNL d   1      28.521 -14.072   7.057  0.00  0.00     0.131 HD
ENDBRANCH   4  25
TORSDOF 9
ENDMDL
MODEL 3
REMARK VINA RESULT:    -6.881      4.198      8.174
REMARK INTER + INTRA:         -13.015
REMARK INTER:                  -9.565
REMARK INTRA:                  -3.449
REMARK CONF_INDEPENDENT:        2.685
REMARK UNBOUND:                -3.449
REMARK  9 active torsions:
REMARK  status: ('A' for Active; 'I' for Inactive)
REMARK    1  A    between atoms: C_2  and  O_3 
REMARK    2  A    between atoms: O_3  and  C_4 
REMARK    3  A    between atoms: C_7  and  C_8 
REMARK    4  A    between atoms: C_8  and  C_9 
REMARK    5  A    between atoms: C_9  and  N_10 
REMARK       I    between atoms: N_10  and  C_11 
REMARK    6  A    between atoms: C_11  and  C_13 
REMARK    7  A    between atoms: N_16  and  C_17 
REMARK    8  A    between atoms: C_30  and  O_31 
REMARK    9  A    between atoms: O_31  and  C_32 
ROOT
ATOM      1  C   UNL d   1      27.113 -11.414  -4.106  0.00  0.00     0.081 C 
ATOM      2  C   UNL d   1      25.756 -12.041  -4.455  0.00  0.00     0.044 C 
ATOM      3  C   UNL d   1      25.329 -13.212  -3.506  0.00  0.00     0.277 C 
ATOM      4  N   UNL d   1      26.522 -14.344  -3.307  0.00  0.00     0.125 N 
ATOM      5  C   UNL d   1      27.718 -13.526  -2.852  0.00  0.00     0.277 C 
ATOM      6  C   UNL d   1      28.149 -12.515  -3.882  0.00  0.00     0.044 C 
ENDROOT
BRANCH   1   7
ATOM      7  C   UNL d   1      27.127 -10.394  -2.953  0.00  0.00     0.221 C 
ATOM      8  N   UNL d   1      28.174 -10.482  -2.055  0.00  0.00    -0.360 N 
ATOM      9  H   UNL d   1      28.563 -11.390  -1.864  0.00  0.00     0.162 HD
ATOM     10  O   UNL d   1      26.308  -9.480  -2.918  0.00  0.00    -0.273 OA
BRANCH   8  11
ATOM     11  C   UNL d   1      28.215  -9.570  -0.926  0.00  0.00     0.127 C 
BRANCH  11  12
ATOM     12  C   UNL d   1      27.033  -9.755   0.043  0.00  0.00     0.058 C 
BRANCH  12  13
ATOM     13  C   UNL d   1      27.135 -11.001   0.889  0.00  0.00    -0.054 A 
ATOM     14  C   UNL d   1      27.027 -10.956   2.277  0.00  0.00     0.010 A 
ATOM     15  C   UNL d   1      27.259 -12.118   3.041  0.00  0.00     0.040 A 
ATOM     16  C   UNL d   1      27.528 -13.377   2.449  0.00  0.00     0.102 A 
ATOM     17  C   UNL d   1      27.558 -13.426   1.030  0.00  0.00     0.102 A 
ATOM     18  C   UNL d   1      27.383 -12.243   0.302  0.00  0.00     0.046 A 
BRANCH  16  19
ATOM     19  O   UNL d   1      27.501 -14.411   3.376  0.00  0.00    -0.349 OA
BRANCH  19  20
ATOM     20  C   UNL d   1      27.412 -14.124   4.773  0.00  0.00     0.171 C 
ATOM     21  C   UNL d   1      28.559 -14.603   5.636  0.00  0.00     0.034 C 
ENDBRANCH  19  20
ENDBRANCH  16  19
BRANCH  17  22
ATOM     22  O   UNL d   1      27.681 -14.455   0.097  0.00  0.00    -0.349 OA
BRANCH  22  23
ATOM     23  C   UNL d   1      28.478 -15.470   0.595  0.00  0.00     0.171 C 
ATOM     24  C   UNL d   1      29.693 -16.034  -0.081  0.00  0.00     0.034 C 
ENDBRANCH  22  23
ENDBRANCH  17  22
ENDBRANCH  12  13
ENDBRANCH  11  12
ENDBRANCH   8  11
ENDBRANCH   1   7
BRANCH   4  25
ATOM     25  C   UNL d   1      26.198 -15.687  -2.605  0.00  0.00     0.404 C 
ATOM     26  N   UNL d   1      26.973 -16.826  -1.646  0.00  0.00    -0.347 N 
ATOM     27  C   UNL d   1      26.074 -17.260  -0.801  0.00  0.00     0.052 C 
ATOM     28  H   UNL d   1      27.968 -17.076  -1.547  0.00  0.00     0.163 HD
ATOM     29  C   UNL d   1      25.736 -18.230   0.297  0.00  0.00     0.033 C 
ATOM     30  C   UNL d   1      24.953 -16.313  -1.003  0.00  0.00     0.039 C 
ATOM     31  C   UNL d   1      24.399 -18.512   0.380  0.00  0.00     0.026 C 
ATOM     32  C   UNL d   1      23.394 -17.926  -0.519  0.00  0.00     0.035 C 
ATOM     33 CL   UNL d   1      21.764 -18.454  -0.519  0.00  0.00    -0.084 Cl
ATOM     34  C   UNL d   1      23.663 -16.878  -1.289  0.00  0.00     0.049 C 
ATOM     35  N   UNL d   1      25.363 -15.240  -1.462  0.00  0.00    -0.244 NA
ATOM     36  H   UNL d   1      26.188 -14.796  -0.995  0.00  0.00     0.131 HD
ENDBRANCH   4  25
TORSDOF 9
ENDMDL
