MODEL 1
REMARK VINA RESULT:   -28.852      0.000      0.000
REMARK INTER + INTRA:         -32.730
REMARK INTER:                 -30.940
REMARK INTRA:                  -1.791
REMARK CONF_INDEPENDENT:        2.088
REMARK UNBOUND:                -1.791
REMARK  7 active torsions:
REMARK  status: ('A' for Active; 'I' for Inactive)
REMARK    1  A    between atoms: C_5  and  N_6 
REMARK       I    between atoms: N_6  and  C_7 
REMARK    2  A    between atoms: C_7  and  C_9 
REMARK    3  A    between atoms: C_9  and  N_10 
REMARK    4  A    between atoms: N_13  and  C_14 
REMARK    5  A    between atoms: C_14  and  C_15 
REMARK    6  A    between atoms: C_23  and  C_24 
REMARK       I    between atoms: C_24  and  N_26 
REMARK    7  A    between atoms: N_26  and  N_27 
ROOT
ATOM      1  N   UNL d   1      25.543 -14.336  -1.907  0.00  0.00    -0.283 N 
ATOM      2  C   UNL d   1      26.914 -14.191  -1.653  0.00  0.00     0.333 C 
ATOM      3  O   UNL d   1      27.532 -13.341  -2.303  0.00  0.00    -0.246 OA
ATOM      4  N   UNL d   1      27.514 -14.989  -0.678  0.00  0.00    -0.265 N 
ATOM      5  C   UNL d   1      26.945 -16.127  -0.142  0.00  0.00     0.265 C 
ATOM      6  O   UNL d   1      27.573 -16.880   0.599  0.00  0.00    -0.267 OA
ATOM      7  C   UNL d   1      25.586 -16.386  -0.519  0.00  0.00     0.074 A 
ATOM      8  C   UNL d   1      24.776 -17.516  -0.111  0.00  0.00    -0.021 A 
ATOM      9  C   UNL d   1      25.262 -18.574   0.776  0.00  0.00     0.051 C 
ATOM     10  C   UNL d   1      23.500 -17.515  -0.637  0.00  0.00     0.083 A 
ATOM     11  S   UNL d   1      23.381 -16.165  -1.588  0.00  0.00    -0.065 SA
ATOM     12  C   UNL d   1      24.937 -15.512  -1.347  0.00  0.00     0.098 A 
ENDROOT
BRANCH   1  13
ATOM     13  C   UNL d   1      25.043 -13.193  -2.803  0.00  0.00     0.237 C 
BRANCH  13  14
ATOM     14  C   UNL d   1      25.761 -13.005  -4.086  0.00  0.00     0.240 C 
ATOM     15  N   UNL d   1      26.854 -12.309  -4.428  0.00  0.00    -0.326 N 
ATOM     16  H   UNL d   1      27.337 -11.726  -3.759  0.00  0.00     0.169 HD
ATOM     17  O   UNL d   1      25.232 -13.568  -5.022  0.00  0.00    -0.271 OA
BRANCH  15  18
ATOM     18  C   UNL d   1      27.324 -12.381  -5.806  0.00  0.00     0.034 A 
ATOM     19  C   UNL d   1      26.862 -11.443  -6.701  0.00  0.00     0.030 A 
ATOM     20  C   UNL d   1      27.314 -11.462  -8.032  0.00  0.00     0.009 A 
ATOM     21  C   UNL d   1      28.232 -12.416  -8.501  0.00  0.00    -0.062 A 
ATOM     22  C   UNL d   1      28.740 -12.437  -9.903  0.00  0.00     0.048 C 
ATOM     23  C   UNL d   1      28.699 -13.372  -7.632  0.00  0.00     0.009 A 
ATOM     24  C   UNL d   1      28.248 -13.344  -6.325  0.00  0.00     0.030 A 
ENDBRANCH  15  18
ENDBRANCH  13  14
ENDBRANCH   1  13
BRANCH   4  25
ATOM     25  C   UNL d   1      28.897 -14.807  -0.215  0.00  0.00     0.141 C 
BRANCH  25  26
ATOM     26  C   UNL d   1      29.105 -13.814   0.913  0.00  0.00    -0.004 C 
ATOM     27  C   UNL d   1      28.674 -12.411   0.467  0.00  0.00     0.011 C 
ATOM     28  C   UNL d   1      28.326 -14.196   2.161  0.00  0.00     0.011 C 
ENDBRANCH  25  26
ENDBRANCH   4  25
BRANCH  10  29
ATOM     29  C   UNL d   1      22.337 -18.416  -0.525  0.00  0.00     0.273 C 
ATOM     30  O   UNL d   1      22.371 -19.570  -0.086  0.00  0.00    -0.266 OA
ATOM     31  N   UNL d   1      21.124 -17.885  -0.974  0.00  0.00    -0.289 N 
ATOM     32  H   UNL d   1      21.061 -16.934  -1.282  0.00  0.00     0.183 HD
BRANCH  31  33
ATOM     33  N   UNL d   1      19.905 -18.575  -0.895  0.00  0.00    -0.247 NA
ATOM     34  H   UNL d   1      20.016 -19.461  -1.399  0.00  0.00     0.143 HD
ATOM     35  H   UNL d   1      19.212 -18.036  -1.418  0.00  0.00     0.143 HD
ENDBRANCH  31  33
ENDBRANCH  10  29
TORSDOF 7
ENDMDL
MODEL 2
REMARK VINA RESULT:   -28.829      2.664      3.606
REMARK INTER + INTRA:         -32.738
REMARK INTER:                 -30.917
REMARK INTRA:                  -1.821
REMARK CONF_INDEPENDENT:        2.088
REMARK UNBOUND:                -1.821
REMARK  7 active torsions:
REMARK  status: ('A' for Active; 'I' for Inactive)
REMARK    1  A    between atoms: C_5  and  N_6 
REMARK       I    between atoms: N_6  and  C_7 
REMARK    2  A    between atoms: C_7  and  C_9 
REMARK    3  A    between atoms: C_9  and  N_10 
REMARK    4  A    between atoms: N_13  and  C_14 
REMARK    5  A    between atoms: C_14  and  C_15 
REMARK    6  A    between atoms: C_23  and  C_24 
REMARK       I    between atoms: C_24  and  N_26 
REMARK    7  A    between atoms: N_26  and  N_27 
ROOT
ATOM      1  N   UNL d   1      25.710 -14.732  -2.534  0.00  0.00    -0.283 N 
ATOM      2  C   UNL d   1      27.109 -14.816  -2.522  0.00  0.00     0.333 C 
ATOM      3  O   UNL d   1      27.730 -14.160  -3.365  0.00  0.00    -0.246 OA
ATOM      4  N   UNL d   1      27.737 -15.611  -1.563  0.00  0.00    -0.265 N 
ATOM      5  C   UNL d   1      27.095 -16.569  -0.802  0.00  0.00     0.265 C 
ATOM      6  O   UNL d   1      27.714 -17.348  -0.082  0.00  0.00    -0.267 OA
ATOM      7  C   UNL d   1      25.667 -16.611  -0.921  0.00  0.00     0.074 A 
ATOM      8  C   UNL d   1      24.770 -17.529  -0.249  0.00  0.00    -0.021 A 
ATOM      9  C   UNL d   1      25.228 -18.567   0.675  0.00  0.00     0.051 C 
ATOM     10  C   UNL d   1      23.437 -17.346  -0.561  0.00  0.00     0.083 A 
ATOM     11  S   UNL d   1      23.371 -16.096  -1.644  0.00  0.00    -0.065 SA
ATOM     12  C   UNL d   1      25.031 -15.718  -1.739  0.00  0.00     0.098 A 
ENDROOT
BRANCH   1  13
ATOM     13  C   UNL d   1      25.250 -13.610  -3.476  0.00  0.00     0.237 C 
BRANCH  13  14
ATOM     14  C   UNL d   1      25.686 -12.239  -3.123  0.00  0.00     0.240 C 
ATOM     15  N   UNL d   1      25.566 -11.054  -3.738  0.00  0.00    -0.326 N 
ATOM     16  H   UNL d   1      25.149 -10.977  -4.655  0.00  0.00     0.169 HD
ATOM     17  O   UNL d   1      26.305 -12.183  -2.081  0.00  0.00    -0.271 OA
BRANCH  15  18
ATOM     18  C   UNL d   1      26.084  -9.865  -3.071  0.00  0.00     0.034 A 
ATOM     19  C   UNL d   1      25.325  -8.717  -3.105  0.00  0.00     0.030 A 
ATOM     20  C   UNL d   1      25.776  -7.559  -2.449  0.00  0.00     0.009 A 
ATOM     21  C   UNL d   1      26.992  -7.517  -1.748  0.00  0.00    -0.062 A 
ATOM     22  C   UNL d   1      27.475  -6.304  -1.028  0.00  0.00     0.048 C 
ATOM     23  C   UNL d   1      27.776  -8.644  -1.711  0.00  0.00     0.009 A 
ATOM     24  C   UNL d   1      27.323  -9.778  -2.359  0.00  0.00     0.030 A 
ENDBRANCH  15  18
ENDBRANCH  13  14
ENDBRANCH   1  13
BRANCH   4  25
ATOM     25  C   UNL d   1      29.190 -15.640  -1.353  0.00  0.00     0.141 C 
BRANCH  25  26
ATOM     26  C   UNL d   1      29.741 -14.684  -0.312  0.00  0.00    -0.004 C 
ATOM     27  C   UNL d   1      30.246 -13.403  -0.988  0.00  0.00     0.011 C 
ATOM     28  C   UNL d   1      28.700 -14.316   0.732  0.00  0.00     0.011 C 
ENDBRANCH  25  26
ENDBRANCH   4  25
BRANCH  10  29
ATOM     29  C   UNL d   1      22.182 -18.005  -0.150  0.00  0.00     0.273 C 
ATOM     30  O   UNL d   1      21.977 -18.519   0.953  0.00  0.00    -0.266 OA
ATOM     31  N   UNL d   1      21.179 -18.039  -1.123  0.00  0.00    -0.289 N 
ATOM     32  H   UNL d   1      21.303 -17.580  -2.006  0.00  0.00     0.183 HD
BRANCH  31  33
ATOM     33  N   UNL d   1      19.903 -18.575  -0.896  0.00  0.00    -0.247 NA
ATOM     34  H   UNL d   1      19.215 -17.859  -1.154  0.00  0.00     0.143 HD
ATOM     35  H   UNL d   1      19.803 -18.715   0.111  0.00  0.00     0.143 HD
ENDBRANCH  31  33
ENDBRANCH  10  29
TORSDOF 7
ENDMDL
MODEL 3
REMARK VINA RESULT:   -28.479      1.727      2.285
REMARK INTER + INTRA:         -32.872
REMARK INTER:                 -30.567
REMARK INTRA:                  -2.304
REMARK CONF_INDEPENDENT:        2.088
REMARK UNBOUND:                -2.304
REMARK  7 active torsions:
REMARK  status: ('A' for Active; 'I' for Inactive)
REMARK    1  A    between atoms: C_5  and  N_6 
REMARK       I    between atoms: N_6  and  C_7 
REMARK    2  A    between atoms: C_7  and  C_9 
REMARK    3  A    between atoms: C_9  and  N_10 
REMARK    4  A    between atoms: N_13  and  C_14 
REMARK    5  A    between atoms: C_14  and  C_15 
REMARK    6  A    between atoms: C_23  and  C_24 
REMARK       I    between atoms: C_24  and  N_26 
REMARK    7  A    between atoms: N_26  and  N_27 
ROOT
ATOM      1  N   UNL d   1      26.297 -14.968  -1.417  0.00  0.00    -0.283 N 
ATOM      2  C   UNL d   1      27.572 -15.515  -1.220  0.00  0.00     0.333 C 
ATOM      3  O   UNL d   1      28.545 -14.860  -1.611  0.00  0.00    -0.246 OA
ATOM      4  N   UNL d   1      27.693 -16.750  -0.583  0.00  0.00    -0.265 N 
ATOM      5  C   UNL d   1      26.650 -17.636  -0.392  0.00  0.00     0.265 C 
ATOM      6  O   UNL d   1      26.833 -18.773   0.035  0.00  0.00    -0.267 OA
ATOM      7  C   UNL d   1      25.346 -17.153  -0.742  0.00  0.00     0.074 A 
ATOM      8  C   UNL d   1      24.100 -17.887  -0.655  0.00  0.00    -0.021 A 
ATOM      9  C   UNL d   1      24.013 -19.267  -0.176  0.00  0.00     0.051 C 
ATOM     10  C   UNL d   1      22.994 -17.173  -1.071  0.00  0.00     0.083 A 
ATOM     11  S   UNL d   1      23.541 -15.684  -1.545  0.00  0.00    -0.065 SA
ATOM     12  C   UNL d   1      25.203 -15.876  -1.213  0.00  0.00     0.098 A 
ENDROOT
BRANCH   1  13
ATOM     13  C   UNL d   1      26.408 -13.507  -1.878  0.00  0.00     0.237 C 
BRANCH  13  14
ATOM     14  C   UNL d   1      26.896 -13.292  -3.260  0.00  0.00     0.240 C 
ATOM     15  N   UNL d   1      28.111 -13.364  -3.823  0.00  0.00    -0.326 N 
ATOM     16  H   UNL d   1      28.935 -13.554  -3.271  0.00  0.00     0.169 HD
ATOM     17  O   UNL d   1      26.025 -12.949  -4.032  0.00  0.00    -0.271 OA
BRANCH  15  18
ATOM     18  C   UNL d   1      28.231 -13.130  -5.257  0.00  0.00     0.034 A 
ATOM     19  C   UNL d   1      28.680 -14.162  -6.050  0.00  0.00     0.030 A 
ATOM     20  C   UNL d   1      28.782 -13.984  -7.440  0.00  0.00     0.009 A 
ATOM     21  C   UNL d   1      28.443 -12.776  -8.071  0.00  0.00    -0.062 A 
ATOM     22  C   UNL d   1      28.523 -12.577  -9.546  0.00  0.00     0.048 C 
ATOM     23  C   UNL d   1      28.006 -11.725  -7.301  0.00  0.00     0.009 A 
ATOM     24  C   UNL d   1      27.909 -11.910  -5.935  0.00  0.00     0.030 A 
ENDBRANCH  15  18
ENDBRANCH  13  14
ENDBRANCH   1  13
BRANCH   4  25
ATOM     25  C   UNL d   1      28.978 -17.335  -0.176  0.00  0.00     0.141 C 
BRANCH  25  26
ATOM     26  C   UNL d   1      30.099 -17.278  -1.197  0.00  0.00    -0.004 C 
ATOM     27  C   UNL d   1      31.163 -16.265  -0.755  0.00  0.00     0.011 C 
ATOM     28  C   UNL d   1      30.758 -18.632  -1.398  0.00  0.00     0.011 C 
ENDBRANCH  25  26
ENDBRANCH   4  25
BRANCH  10  29
ATOM     29  C   UNL d   1      21.552 -17.470  -1.170  0.00  0.00     0.273 C 
ATOM     30  O   UNL d   1      20.657 -16.626  -1.270  0.00  0.00    -0.266 OA
ATOM     31  N   UNL d   1      21.218 -18.827  -1.130  0.00  0.00    -0.289 N 
ATOM     32  H   UNL d   1      21.929 -19.532  -1.105  0.00  0.00     0.183 HD
BRANCH  31  33
ATOM     33  N   UNL d   1      19.904 -19.301  -1.264  0.00  0.00    -0.247 NA
ATOM     34  H   UNL d   1      19.832 -19.760  -2.179  0.00  0.00     0.143 HD
ATOM     35  H   UNL d   1      19.286 -18.488  -1.304  0.00  0.00     0.143 HD
ENDBRANCH  31  33
ENDBRANCH  10  29
TORSDOF 7
ENDMDL
MODEL 4
REMARK VINA RESULT:   -28.072      2.073      2.869
REMARK INTER + INTRA:         -32.386
REMARK INTER:                 -30.160
REMARK INTRA:                  -2.226
REMARK CONF_INDEPENDENT:        2.088
REMARK UNBOUND:                -2.226
REMARK  7 active torsions:
REMARK  status: ('A' for Active; 'I' for Inactive)
REMARK    1  A    between atoms: C_5  and  N_6 
REMARK       I    between atoms: N_6  and  C_7 
REMARK    2  A    between atoms: C_7  and  C_9 
REMARK    3  A    between atoms: C_9  and  N_10 
REMARK    4  A    between atoms: N_13  and  C_14 
REMARK    5  A    between atoms: C_14  and  C_15 
REMARK    6  A    between atoms: C_23  and  C_24 
REMARK       I    between atoms: C_24  and  N_26 
REMARK    7  A    between atoms: N_26  and  N_27 
ROOT
ATOM      1  N   UNL d   1      26.164 -15.920  -2.947  0.00  0.00    -0.283 N 
ATOM      2  C   UNL d   1      27.541 -15.954  -2.687  0.00  0.00     0.333 C 
ATOM      3  O   UNL d   1      28.306 -15.629  -3.602  0.00  0.00    -0.246 OA
ATOM      4  N   UNL d   1      27.986 -16.330  -1.420  0.00  0.00    -0.265 N 
ATOM      5  C   UNL d   1      27.205 -16.968  -0.475  0.00  0.00     0.265 C 
ATOM      6  O   UNL d   1      27.680 -17.416   0.565  0.00  0.00    -0.267 OA
ATOM      7  C   UNL d   1      25.812 -17.090  -0.793  0.00  0.00     0.074 A 
ATOM      8  C   UNL d   1      24.794 -17.729   0.016  0.00  0.00    -0.021 A 
ATOM      9  C   UNL d   1      25.070 -18.349   1.312  0.00  0.00     0.051 C 
ATOM     10  C   UNL d   1      23.532 -17.709  -0.545  0.00  0.00     0.083 A 
ATOM     11  S   UNL d   1      23.674 -16.937  -2.003  0.00  0.00    -0.065 SA
ATOM     12  C   UNL d   1      25.339 -16.571  -1.967  0.00  0.00     0.098 A 
ENDROOT
BRANCH   1  13
ATOM     13  C   UNL d   1      25.891 -15.227  -4.290  0.00  0.00     0.237 C 
BRANCH  13  14
ATOM     14  C   UNL d   1      25.789 -13.749  -4.256  0.00  0.00     0.240 C 
ATOM     15  N   UNL d   1      26.680 -12.776  -4.020  0.00  0.00    -0.326 N 
ATOM     16  H   UNL d   1      27.633 -12.988  -3.760  0.00  0.00     0.169 HD
ATOM     17  O   UNL d   1      24.663 -13.339  -4.448  0.00  0.00    -0.271 OA
BRANCH  15  18
ATOM     18  C   UNL d   1      26.240 -11.389  -4.113  0.00  0.00     0.034 A 
ATOM     19  C   UNL d   1      25.941 -10.883  -5.358  0.00  0.00     0.030 A 
ATOM     20  C   UNL d   1      25.487  -9.560  -5.486  0.00  0.00     0.009 A 
ATOM     21  C   UNL d   1      25.322  -8.710  -4.380  0.00  0.00    -0.062 A 
ATOM     22  C   UNL d   1      24.819  -7.312  -4.494  0.00  0.00     0.048 C 
ATOM     23  C   UNL d   1      25.627  -9.185  -3.127  0.00  0.00     0.009 A 
ATOM     24  C   UNL d   1      26.073 -10.489  -3.012  0.00  0.00     0.030 A 
ENDBRANCH  15  18
ENDBRANCH  13  14
ENDBRANCH   1  13
BRANCH   4  25
ATOM     25  C   UNL d   1      29.388 -16.241  -0.989  0.00  0.00     0.141 C 
BRANCH  25  26
ATOM     26  C   UNL d   1      29.823 -14.921  -0.379  0.00  0.00    -0.004 C 
ATOM     27  C   UNL d   1      30.206 -13.930  -1.485  0.00  0.00     0.011 C 
ATOM     28  C   UNL d   1      28.733 -14.304   0.482  0.00  0.00     0.011 C 
ENDBRANCH  25  26
ENDBRANCH   4  25
BRANCH  10  29
ATOM     29  C   UNL d   1      22.209 -18.210  -0.127  0.00  0.00     0.273 C 
ATOM     30  O   UNL d   1      21.931 -18.626   1.002  0.00  0.00    -0.266 OA
ATOM     31  N   UNL d   1      21.228 -18.209  -1.122  0.00  0.00    -0.289 N 
ATOM     32  H   UNL d   1      21.415 -17.826  -2.029  0.00  0.00     0.183 HD
BRANCH  31  33
ATOM     33  N   UNL d   1      19.899 -18.599  -0.895  0.00  0.00    -0.247 NA
ATOM     34  H   UNL d   1      19.294 -17.827  -1.192  0.00  0.00     0.143 HD
ATOM     35  H   UNL d   1      19.773 -18.687   0.115  0.00  0.00     0.143 HD
ENDBRANCH  31  33
ENDBRANCH  10  29
TORSDOF 7
ENDMDL
MODEL 5
REMARK VINA RESULT:   -26.777      3.263      4.910
REMARK INTER + INTRA:         -30.476
REMARK INTER:                 -28.865
REMARK INTRA:                  -1.611
REMARK CONF_INDEPENDENT:        2.088
REMARK UNBOUND:                -1.611
REMARK  7 active torsions:
REMARK  status: ('A' for Active; 'I' for Inactive)
REMARK    1  A    between atoms: C_5  and  N_6 
REMARK       I    between atoms: N_6  and  C_7 
REMARK    2  A    between atoms: C_7  and  C_9 
REMARK    3  A    between atoms: C_9  and  N_10 
REMARK    4  A    between atoms: N_13  and  C_14 
REMARK    5  A    between atoms: C_14  and  C_15 
REMARK    6  A    between atoms: C_23  and  C_24 
REMARK       I    between atoms: C_24  and  N_26 
REMARK    7  A    between atoms: N_26  and  N_27 
ROOT
ATOM      1  N   UNL d   1      26.395 -15.229  -1.851  0.00  0.00    -0.283 N 
ATOM      2  C   UNL d   1      27.663 -15.801  -1.685  0.00  0.00     0.333 C 
ATOM      3  O   UNL d   1      28.628 -15.210  -2.183  0.00  0.00    -0.246 OA
ATOM      4  N   UNL d   1      27.788 -16.987  -0.960  0.00  0.00    -0.265 N 
ATOM      5  C   UNL d   1      26.734 -17.820  -0.640  0.00  0.00     0.265 C 
ATOM      6  O   UNL d   1      26.910 -18.926  -0.135  0.00  0.00    -0.267 OA
ATOM      7  C   UNL d   1      25.426 -17.323  -0.951  0.00  0.00     0.074 A 
ATOM      8  C   UNL d   1      24.167 -18.007  -0.733  0.00  0.00    -0.021 A 
ATOM      9  C   UNL d   1      24.070 -19.342  -0.142  0.00  0.00     0.051 C 
ATOM     10  C   UNL d   1      23.058 -17.292  -1.139  0.00  0.00     0.083 A 
ATOM     11  S   UNL d   1      23.617 -15.863  -1.760  0.00  0.00    -0.065 SA
ATOM     12  C   UNL d   1      25.289 -16.083  -1.512  0.00  0.00     0.098 A 
ENDROOT
BRANCH   1  13
ATOM     13  C   UNL d   1      26.518 -13.813  -2.432  0.00  0.00     0.237 C 
BRANCH  13  14
ATOM     14  C   UNL d   1      27.262 -12.831  -1.609  0.00  0.00     0.240 C 
ATOM     15  N   UNL d   1      28.254 -12.951  -0.715  0.00  0.00    -0.326 N 
ATOM     16  H   UNL d   1      28.609 -13.856  -0.442  0.00  0.00     0.169 HD
ATOM     17  O   UNL d   1      26.872 -11.691  -1.749  0.00  0.00    -0.271 OA
BRANCH  15  18
ATOM     18  C   UNL d   1      28.797 -11.741  -0.109  0.00  0.00     0.034 A 
ATOM     19  C   UNL d   1      27.963 -10.973   0.671  0.00  0.00     0.030 A 
ATOM     20  C   UNL d   1      28.457  -9.815   1.296  0.00  0.00     0.009 A 
ATOM     21  C   UNL d   1      29.790  -9.395   1.155  0.00  0.00    -0.062 A 
ATOM     22  C   UNL d   1      30.337  -8.182   1.829  0.00  0.00     0.048 C 
ATOM     23  C   UNL d   1      30.640 -10.135   0.370  0.00  0.00     0.009 A 
ATOM     24  C   UNL d   1      30.144 -11.273  -0.239  0.00  0.00     0.030 A 
ENDBRANCH  15  18
ENDBRANCH  13  14
ENDBRANCH   1  13
BRANCH   4  25
ATOM     25  C   UNL d   1      29.078 -17.580  -0.584  0.00  0.00     0.141 C 
BRANCH  25  26
ATOM     26  C   UNL d   1      30.314 -16.959  -1.208  0.00  0.00    -0.004 C 
ATOM     27  C   UNL d   1      31.442 -16.876  -0.172  0.00  0.00     0.011 C 
ATOM     28  C   UNL d   1      30.804 -17.749  -2.410  0.00  0.00     0.011 C 
ENDBRANCH  25  26
ENDBRANCH   4  25
BRANCH  10  29
ATOM     29  C   UNL d   1      21.605 -17.549  -1.130  0.00  0.00     0.273 C 
ATOM     30  O   UNL d   1      20.730 -16.689  -1.270  0.00  0.00    -0.266 OA
ATOM     31  N   UNL d   1      21.235 -18.882  -0.931  0.00  0.00    -0.289 N 
ATOM     32  H   UNL d   1      21.927 -19.605  -0.871  0.00  0.00     0.183 HD
BRANCH  31  33
ATOM     33  N   UNL d   1      19.903 -19.323  -0.946  0.00  0.00    -0.247 NA
ATOM     34  H   UNL d   1      19.905 -20.325  -0.730  0.00  0.00     0.143 HD
ATOM     35  H   UNL d   1      19.562 -19.240  -1.906  0.00  0.00     0.143 HD
ENDBRANCH  31  33
ENDBRANCH  10  29
TORSDOF 7
ENDMDL
MODEL 6
REMARK VINA RESULT:   -26.562      2.343      2.937
REMARK INTER + INTRA:         -29.424
REMARK INTER:                 -28.650
REMARK INTRA:                  -0.773
REMARK CONF_INDEPENDENT:        2.088
REMARK UNBOUND:                -0.773
REMARK  7 active torsions:
REMARK  status: ('A' for Active; 'I' for Inactive)
REMARK    1  A    between atoms: C_5  and  N_6 
REMARK       I    between atoms: N_6  and  C_7 
REMARK    2  A    between atoms: C_7  and  C_9 
REMARK    3  A    between atoms: C_9  and  N_10 
REMARK    4  A    between atoms: N_13  and  C_14 
REMARK    5  A    between atoms: C_14  and  C_15 
REMARK    6  A    between atoms: C_23  and  C_24 
REMARK       I    between atoms: C_24  and  N_26 
REMARK    7  A    between atoms: N_26  and  N_27 
ROOT
ATOM      1  N   UNL d   1      26.431 -15.607  -2.515  0.00  0.00    -0.283 N 
ATOM      2  C   UNL d   1      27.624 -15.339  -1.831  0.00  0.00     0.333 C 
ATOM      3  O   UNL d   1      28.555 -14.841  -2.473  0.00  0.00    -0.246 OA
ATOM      4  N   UNL d   1      27.706 -15.623  -0.467  0.00  0.00    -0.265 N 
ATOM      5  C   UNL d   1      26.817 -16.429   0.217  0.00  0.00     0.265 C 
ATOM      6  O   UNL d   1      27.015 -16.774   1.380  0.00  0.00    -0.267 OA
ATOM      7  C   UNL d   1      25.662 -16.853  -0.518  0.00  0.00     0.074 A 
ATOM      8  C   UNL d   1      24.598 -17.711  -0.037  0.00  0.00    -0.021 A 
ATOM      9  C   UNL d   1      24.567 -18.271   1.315  0.00  0.00     0.051 C 
ATOM     10  C   UNL d   1      23.611 -17.964  -0.969  0.00  0.00     0.083 A 
ATOM     11  S   UNL d   1      24.047 -17.162  -2.349  0.00  0.00    -0.065 SA
ATOM     12  C   UNL d   1      25.493 -16.437  -1.810  0.00  0.00     0.098 A 
ENDROOT
BRANCH   1  13
ATOM     13  C   UNL d   1      26.464 -14.975  -3.915  0.00  0.00     0.237 C 
BRANCH  13  14
ATOM     14  C   UNL d   1      27.648 -15.290  -4.747  0.00  0.00     0.240 C 
ATOM     15  N   UNL d   1      28.858 -15.795  -4.463  0.00  0.00    -0.326 N 
ATOM     16  H   UNL d   1      29.134 -15.994  -3.512  0.00  0.00     0.169 HD
ATOM     17  O   UNL d   1      27.506 -15.002  -5.917  0.00  0.00    -0.271 OA
BRANCH  15  18
ATOM     18  C   UNL d   1      29.793 -16.024  -5.558  0.00  0.00     0.034 A 
ATOM     19  C   UNL d   1      30.165 -17.320  -5.835  0.00  0.00     0.030 A 
ATOM     20  C   UNL d   1      31.042 -17.584  -6.900  0.00  0.00     0.009 A 
ATOM     21  C   UNL d   1      31.570 -16.566  -7.711  0.00  0.00    -0.062 A 
ATOM     22  C   UNL d   1      32.483 -16.830  -8.860  0.00  0.00     0.048 C 
ATOM     23  C   UNL d   1      31.226 -15.262  -7.447  0.00  0.00     0.009 A 
ATOM     24  C   UNL d   1      30.363 -15.013  -6.397  0.00  0.00     0.030 A 
ENDBRANCH  15  18
ENDBRANCH  13  14
ENDBRANCH   1  13
BRANCH   4  25
ATOM     25  C   UNL d   1      28.841 -15.231   0.380  0.00  0.00     0.141 C 
BRANCH  25  26
ATOM     26  C   UNL d   1      28.761 -13.858   1.021  0.00  0.00    -0.004 C 
ATOM     27  C   UNL d   1      28.253 -13.978   2.463  0.00  0.00     0.011 C 
ATOM     28  C   UNL d   1      30.107 -13.152   1.027  0.00  0.00     0.011 C 
ENDBRANCH  25  26
ENDBRANCH   4  25
BRANCH  10  29
ATOM     29  C   UNL d   1      22.363 -18.751  -0.962  0.00  0.00     0.273 C 
ATOM     30  O   UNL d   1      22.301 -19.984  -0.965  0.00  0.00    -0.266 OA
ATOM     31  N   UNL d   1      21.184 -18.001  -0.966  0.00  0.00    -0.289 N 
ATOM     32  H   UNL d   1      21.210 -17.001  -0.909  0.00  0.00     0.183 HD
BRANCH  31  33
ATOM     33  N   UNL d   1      19.905 -18.575  -0.907  0.00  0.00    -0.247 NA
ATOM     34  H   UNL d   1      19.317 -18.097  -1.598  0.00  0.00     0.143 HD
ATOM     35  H   UNL d   1      19.509 -18.351   0.008  0.00  0.00     0.143 HD
ENDBRANCH  31  33
ENDBRANCH  10  29
TORSDOF 7
ENDMDL
