MODEL 1
REMARK VINA RESULT:    -8.310      0.000      0.000
REMARK INTER + INTRA:         -11.391
REMARK INTER:                  -9.802
REMARK INTRA:                  -1.590
REMARK CONF_INDEPENDENT:        1.492
REMARK UNBOUND:                -1.590
REMARK  5 active torsions:
REMARK  status: ('A' for Active; 'I' for Inactive)
REMARK       I    between atoms: N_4  and  C_5 
REMARK    1  A    between atoms: C_5  and  C_7 
REMARK    2  A    between atoms: C_7  and  S_8 
REMARK    3  A    between atoms: S_8  and  C_9 
REMARK    4  A    between atoms: C_12  and  C_13 
REMARK    5  A    between atoms: N_22  and  C_23 
ROOT
ATOM      1  C   UNL d   1      26.056 -13.169  -5.017  0.00  0.00     0.268 C 
ATOM      2  N   UNL d   1      25.541 -14.542  -5.014  0.00  0.00    -0.279 N 
ATOM      3  N   UNL d   1      26.455 -15.511  -5.358  0.00  0.00    -0.158 NA
ATOM      4  C   UNL d   1      27.584 -14.895  -5.454  0.00  0.00     0.157 C 
ATOM      5  N   UNL d   1      27.465 -13.467  -5.377  0.00  0.00    -0.328 N 
ATOM      6  H   UNL d   1      24.604 -14.659  -5.393  0.00  0.00     0.185 HD
ENDROOT
BRANCH   1   7
ATOM      7  S   UNL d   1      25.930 -12.406  -3.382  0.00  0.00    -0.112 SA
BRANCH   7   8
ATOM      8  C   UNL d   1      26.444 -13.779  -2.225  0.00  0.00     0.181 C 
BRANCH   8   9
ATOM      9  C   UNL d   1      25.298 -14.800  -2.020  0.00  0.00     0.234 C 
ATOM     10  N   UNL d   1      25.445 -15.762  -1.007  0.00  0.00    -0.306 N 
ATOM     11  C   UNL d   1      26.644 -15.967  -0.180  0.00  0.00     0.235 C 
ATOM     12  C   UNL d   1      24.427 -16.750  -0.766  0.00  0.00     0.064 A 
ATOM     13  C   UNL d   1      27.145 -17.413  -0.196  0.00  0.00     0.240 C 
ATOM     14  O   UNL d   1      28.316 -17.700   0.012  0.00  0.00    -0.271 OA
ATOM     15  N   UNL d   1      26.172 -18.378  -0.274  0.00  0.00    -0.324 N 
ATOM     16  C   UNL d   1      24.814 -18.058  -0.406  0.00  0.00     0.061 A 
ATOM     17  H   UNL d   1      26.466 -19.341  -0.167  0.00  0.00     0.169 HD
ATOM     18  C   UNL d   1      23.862 -19.061  -0.207  0.00  0.00     0.032 A 
ATOM     19  C   UNL d   1      22.506 -18.753  -0.318  0.00  0.00     0.002 A 
ATOM     20  C   UNL d   1      22.111 -17.454  -0.635  0.00  0.00     0.002 A 
ATOM     21  C   UNL d   1      23.065 -16.460  -0.870  0.00  0.00     0.032 A 
ATOM     22  O   UNL d   1      24.329 -14.791  -2.785  0.00  0.00    -0.272 OA
ENDBRANCH   8   9
ENDBRANCH   7   8
ENDBRANCH   1   7
BRANCH   5  23
ATOM     23  C   UNL d   1      28.404 -12.515  -5.901  0.00  0.00     0.089 A 
ATOM     24  C   UNL d   1      28.739 -12.455  -7.371  0.00  0.00     0.027 A 
ATOM     25  C   UNL d   1      27.951 -11.350  -6.746  0.00  0.00     0.027 A 
ENDBRANCH   5  23
BRANCH   4  26
ATOM     26  C   UNL d   1      28.915 -15.502  -5.594  0.00  0.00     0.019 A 
ATOM     27  C   UNL d   1      29.537 -16.201  -4.635  0.00  0.00     0.002 A 
ATOM     28  C   UNL d   1      29.229 -16.541  -3.286  0.00  0.00     0.014 A 
ATOM     29  C   UNL d   1      30.776 -16.715  -5.269  0.00  0.00     0.039 A 
ATOM     30  C   UNL d   1      30.113 -17.265  -2.584  0.00  0.00     0.001 A 
ATOM     31  C   UNL d   1      31.363 -17.731  -3.163  0.00  0.00     0.002 A 
ATOM     32  C   UNL d   1      31.717 -17.500  -4.443  0.00  0.00     0.030 A 
ATOM     33  N   UNL d   1      30.857 -16.382  -6.501  0.00  0.00    -0.385 N 
ATOM     34  C   UNL d   1      29.654 -15.597  -6.892  0.00  0.00     0.163 A 
ATOM     35  H   UNL d   1      31.648 -16.637  -7.095  0.00  0.00     0.160 HD
ENDBRANCH   4  26
TORSDOF 5
ENDMDL
MODEL 2
REMARK VINA RESULT:    -8.242      6.704      9.779
REMARK INTER + INTRA:         -11.165
REMARK INTER:                  -9.733
REMARK INTRA:                  -1.431
REMARK CONF_INDEPENDENT:        1.492
REMARK UNBOUND:                -1.431
REMARK  5 active torsions:
REMARK  status: ('A' for Active; 'I' for Inactive)
REMARK       I    between atoms: N_4  and  C_5 
REMARK    1  A    between atoms: C_5  and  C_7 
REMARK    2  A    between atoms: C_7  and  S_8 
REMARK    3  A    between atoms: S_8  and  C_9 
REMARK    4  A    between atoms: C_12  and  C_13 
REMARK    5  A    between atoms: N_22  and  C_23 
ROOT
ATOM      1  C   UNL d   1      29.390 -13.848   3.683  0.00  0.00     0.268 C 
ATOM      2  N   UNL d   1      28.386 -14.766   4.229  0.00  0.00    -0.279 N 
ATOM      3  N   UNL d   1      28.098 -14.592   5.563  0.00  0.00    -0.158 NA
ATOM      4  C   UNL d   1      28.737 -13.528   5.913  0.00  0.00     0.157 C 
ATOM      5  N   UNL d   1      29.635 -13.043   4.904  0.00  0.00    -0.328 N 
ATOM      6  H   UNL d   1      28.456 -15.731   3.911  0.00  0.00     0.185 HD
ENDROOT
BRANCH   1   7
ATOM      7  S   UNL d   1      28.712 -12.841   2.342  0.00  0.00    -0.112 SA
BRANCH   7   8
ATOM      8  C   UNL d   1      28.883 -13.944   0.845  0.00  0.00     0.181 C 
BRANCH   8   9
ATOM      9  C   UNL d   1      27.826 -15.075   0.855  0.00  0.00     0.234 C 
ATOM     10  N   UNL d   1      27.179 -15.384  -0.352  0.00  0.00    -0.306 N 
ATOM     11  C   UNL d   1      27.330 -14.657  -1.622  0.00  0.00     0.235 C 
ATOM     12  C   UNL d   1      26.178 -16.416  -0.417  0.00  0.00     0.064 A 
ATOM     13  C   UNL d   1      25.994 -14.210  -2.220  0.00  0.00     0.240 C 
ATOM     14  O   UNL d   1      25.903 -13.244  -2.965  0.00  0.00    -0.271 OA
ATOM     15  N   UNL d   1      24.938 -15.064  -2.020  0.00  0.00    -0.324 N 
ATOM     16  C   UNL d   1      25.058 -16.233  -1.255  0.00  0.00     0.061 A 
ATOM     17  H   UNL d   1      24.074 -14.852  -2.504  0.00  0.00     0.169 HD
ATOM     18  C   UNL d   1      24.039 -17.186  -1.314  0.00  0.00     0.032 A 
ATOM     19  C   UNL d   1      24.154 -18.361  -0.572  0.00  0.00     0.002 A 
ATOM     20  C   UNL d   1      25.275 -18.571   0.230  0.00  0.00     0.002 A 
ATOM     21  C   UNL d   1      26.277 -17.600   0.317  0.00  0.00     0.032 A 
ATOM     22  O   UNL d   1      27.530 -15.623   1.921  0.00  0.00    -0.272 OA
ENDBRANCH   8   9
ENDBRANCH   7   8
ENDBRANCH   1   7
BRANCH   5  23
ATOM     23  C   UNL d   1      30.786 -12.213   5.132  0.00  0.00     0.089 A 
ATOM     24  C   UNL d   1      31.635 -11.703   3.995  0.00  0.00     0.027 A 
ATOM     25  C   UNL d   1      30.782 -10.750   4.765  0.00  0.00     0.027 A 
ENDBRANCH   5  23
BRANCH   4  26
ATOM     26  C   UNL d   1      28.603 -12.790   7.176  0.00  0.00     0.019 A 
ATOM     27  C   UNL d   1      28.707 -13.339   8.394  0.00  0.00     0.002 A 
ATOM     28  C   UNL d   1      28.905 -14.664   8.879  0.00  0.00     0.014 A 
ATOM     29  C   UNL d   1      28.630 -12.201   9.343  0.00  0.00     0.039 A 
ATOM     30  C   UNL d   1      28.944 -14.868  10.204  0.00  0.00     0.001 A 
ATOM     31  C   UNL d   1      28.811 -13.777  11.157  0.00  0.00     0.002 A 
ATOM     32  C   UNL d   1      28.669 -12.488  10.792  0.00  0.00     0.030 A 
ATOM     33  N   UNL d   1      28.530 -11.079   8.738  0.00  0.00    -0.385 N 
ATOM     34  C   UNL d   1      28.544 -11.296   7.265  0.00  0.00     0.163 A 
ATOM     35  H   UNL d   1      28.454 -10.187   9.230  0.00  0.00     0.160 HD
ENDBRANCH   4  26
TORSDOF 5
ENDMDL
MODEL 3
REMARK VINA RESULT:    -8.047      2.421      5.119
REMARK INTER + INTRA:         -11.576
REMARK INTER:                  -9.539
REMARK INTRA:                  -2.038
REMARK CONF_INDEPENDENT:        1.492
REMARK UNBOUND:                -2.038
REMARK  5 active torsions:
REMARK  status: ('A' for Active; 'I' for Inactive)
REMARK       I    between atoms: N_4  and  C_5 
REMARK    1  A    between atoms: C_5  and  C_7 
REMARK    2  A    between atoms: C_7  and  S_8 
REMARK    3  A    between atoms: S_8  and  C_9 
REMARK    4  A    between atoms: C_12  and  C_13 
REMARK    5  A    between atoms: N_22  and  C_23 
ROOT
ATOM      1  C   UNL d   1      26.049 -13.534  -5.020  0.00  0.00     0.268 C 
ATOM      2  N   UNL d   1      24.785 -13.330  -4.304  0.00  0.00    -0.279 N 
ATOM      3  N   UNL d   1      24.545 -14.211  -3.276  0.00  0.00    -0.158 NA
ATOM      4  C   UNL d   1      25.626 -14.904  -3.163  0.00  0.00     0.157 C 
ATOM      5  N   UNL d   1      26.570 -14.669  -4.219  0.00  0.00    -0.328 N 
ATOM      6  H   UNL d   1      23.984 -13.097  -4.888  0.00  0.00     0.185 HD
ENDROOT
BRANCH   1   7
ATOM      7  S   UNL d   1      27.122 -12.084  -4.903  0.00  0.00    -0.112 SA
BRANCH   7   8
ATOM      8  C   UNL d   1      28.370 -12.574  -3.603  0.00  0.00     0.181 C 
BRANCH   8   9
ATOM      9  C   UNL d   1      27.737 -12.583  -2.190  0.00  0.00     0.234 C 
ATOM     10  N   UNL d   1      28.508 -13.079  -1.125  0.00  0.00    -0.306 N 
ATOM     11  C   UNL d   1      29.835 -13.701  -1.238  0.00  0.00     0.235 C 
ATOM     12  C   UNL d   1      27.982 -13.128   0.214  0.00  0.00     0.064 A 
ATOM     13  C   UNL d   1      29.912 -15.078  -0.575  0.00  0.00     0.240 C 
ATOM     14  O   UNL d   1      30.714 -15.931  -0.933  0.00  0.00    -0.271 OA
ATOM     15  N   UNL d   1      29.158 -15.233   0.561  0.00  0.00    -0.324 N 
ATOM     16  C   UNL d   1      28.316 -14.221   1.041  0.00  0.00     0.061 A 
ATOM     17  H   UNL d   1      29.282 -16.091   1.084  0.00  0.00     0.169 HD
ATOM     18  C   UNL d   1      27.791 -14.333   2.331  0.00  0.00     0.032 A 
ATOM     19  C   UNL d   1      26.966 -13.325   2.827  0.00  0.00     0.002 A 
ATOM     20  C   UNL d   1      26.661 -12.221   2.033  0.00  0.00     0.002 A 
ATOM     21  C   UNL d   1      27.156 -12.127   0.729  0.00  0.00     0.032 A 
ATOM     22  O   UNL d   1      26.565 -12.225  -2.044  0.00  0.00    -0.272 OA
ENDBRANCH   8   9
ENDBRANCH   7   8
ENDBRANCH   1   7
BRANCH   5  23
ATOM     23  C   UNL d   1      27.604 -15.572  -4.639  0.00  0.00     0.089 A 
ATOM     24  C   UNL d   1      28.599 -15.199  -5.710  0.00  0.00     0.027 A 
ATOM     25  C   UNL d   1      29.051 -15.325  -4.293  0.00  0.00     0.027 A 
ENDBRANCH   5  23
BRANCH   4  26
ATOM     26  C   UNL d   1      25.971 -15.839  -2.082  0.00  0.00     0.019 A 
ATOM     27  C   UNL d   1      25.078 -16.513  -1.345  0.00  0.00     0.002 A 
ATOM     28  C   UNL d   1      23.655 -16.549  -1.286  0.00  0.00     0.014 A 
ATOM     29  C   UNL d   1      25.884 -17.412  -0.483  0.00  0.00     0.039 A 
ATOM     30  C   UNL d   1      23.066 -17.353  -0.388  0.00  0.00     0.001 A 
ATOM     31  C   UNL d   1      23.834 -18.201   0.511  0.00  0.00     0.002 A 
ATOM     32  C   UNL d   1      25.180 -18.269   0.494  0.00  0.00     0.030 A 
ATOM     33  N   UNL d   1      27.136 -17.307  -0.719  0.00  0.00    -0.385 N 
ATOM     34  C   UNL d   1      27.363 -16.317  -1.808  0.00  0.00     0.163 A 
ATOM     35  H   UNL d   1      27.844 -17.841  -0.212  0.00  0.00     0.160 HD
ENDBRANCH   4  26
TORSDOF 5
ENDMDL
MODEL 4
REMARK VINA RESULT:    -7.892      1.894      2.674
REMARK INTER + INTRA:         -11.350
REMARK INTER:                  -9.383
REMARK INTRA:                  -1.967
REMARK CONF_INDEPENDENT:        1.492
REMARK UNBOUND:                -1.967
REMARK  5 active torsions:
REMARK  status: ('A' for Active; 'I' for Inactive)
REMARK       I    between atoms: N_4  and  C_5 
REMARK    1  A    between atoms: C_5  and  C_7 
REMARK    2  A    between atoms: C_7  and  S_8 
REMARK    3  A    between atoms: S_8  and  C_9 
REMARK    4  A    between atoms: C_12  and  C_13 
REMARK    5  A    between atoms: N_22  and  C_23 
ROOT
ATOM      1  C   UNL d   1      28.073 -15.597  -2.887  0.00  0.00     0.268 C 
ATOM      2  N   UNL d   1      29.071 -16.532  -2.357  0.00  0.00    -0.279 N 
ATOM      3  N   UNL d   1      29.918 -17.076  -3.294  0.00  0.00    -0.158 NA
ATOM      4  C   UNL d   1      29.648 -16.462  -4.395  0.00  0.00     0.157 C 
ATOM      5  N   UNL d   1      28.487 -15.623  -4.312  0.00  0.00    -0.328 N 
ATOM      6  H   UNL d   1      28.735 -17.168  -1.637  0.00  0.00     0.185 HD
ENDROOT
BRANCH   1   7
ATOM      7  S   UNL d   1      28.255 -13.949  -2.167  0.00  0.00    -0.112 SA
BRANCH   7   8
ATOM      8  C   UNL d   1      26.507 -13.294  -2.139  0.00  0.00     0.181 C 
BRANCH   8   9
ATOM      9  C   UNL d   1      25.477 -14.443  -2.021  0.00  0.00     0.234 C 
ATOM     10  N   UNL d   1      25.607 -15.338  -0.947  0.00  0.00    -0.306 N 
ATOM     11  C   UNL d   1      26.705 -15.357   0.032  0.00  0.00     0.235 C 
ATOM     12  C   UNL d   1      24.693 -16.437  -0.778  0.00  0.00     0.064 A 
ATOM     13  C   UNL d   1      27.375 -16.727   0.157  0.00  0.00     0.240 C 
ATOM     14  O   UNL d   1      28.535 -16.854   0.523  0.00  0.00    -0.271 OA
ATOM     15  N   UNL d   1      26.544 -17.809   0.013  0.00  0.00    -0.324 N 
ATOM     16  C   UNL d   1      25.185 -17.670  -0.302  0.00  0.00     0.061 A 
ATOM     17  H   UNL d   1      26.936 -18.722   0.209  0.00  0.00     0.169 HD
ATOM     18  C   UNL d   1      24.343 -18.777  -0.167  0.00  0.00     0.032 A 
ATOM     19  C   UNL d   1      22.987 -18.648  -0.460  0.00  0.00     0.002 A 
ATOM     20  C   UNL d   1      22.481 -17.423  -0.894  0.00  0.00     0.002 A 
ATOM     21  C   UNL d   1      23.331 -16.326  -1.065  0.00  0.00     0.032 A 
ATOM     22  O   UNL d   1      24.620 -14.587  -2.898  0.00  0.00    -0.272 OA
ENDBRANCH   8   9
ENDBRANCH   7   8
ENDBRANCH   1   7
BRANCH   5  23
ATOM     23  C   UNL d   1      27.673 -15.200  -5.418  0.00  0.00     0.089 A 
ATOM     24  C   UNL d   1      26.167 -15.200  -5.342  0.00  0.00     0.027 A 
ATOM     25  C   UNL d   1      26.905 -13.903  -5.376  0.00  0.00     0.027 A 
ENDBRANCH   5  23
BRANCH   4  26
ATOM     26  C   UNL d   1      30.409 -16.519  -5.651  0.00  0.00     0.019 A 
ATOM     27  C   UNL d   1      30.672 -17.642  -6.331  0.00  0.00     0.002 A 
ATOM     28  C   UNL d   1      30.407 -19.026  -6.118  0.00  0.00     0.014 A 
ATOM     29  C   UNL d   1      31.343 -17.195  -7.577  0.00  0.00     0.039 A 
ATOM     30  C   UNL d   1      30.841 -19.914  -7.023  0.00  0.00     0.001 A 
ATOM     31  C   UNL d   1      31.554 -19.507  -8.224  0.00  0.00     0.002 A 
ATOM     32  C   UNL d   1      31.808 -18.221  -8.534  0.00  0.00     0.030 A 
ATOM     33  N   UNL d   1      31.432 -15.921  -7.643  0.00  0.00    -0.385 N 
ATOM     34  C   UNL d   1      30.806 -15.309  -6.439  0.00  0.00     0.163 A 
ATOM     35  H   UNL d   1      31.875 -15.434  -8.424  0.00  0.00     0.160 HD
ENDBRANCH   4  26
TORSDOF 5
ENDMDL
MODEL 5
REMARK VINA RESULT:    -7.696      3.226      5.864
REMARK INTER + INTRA:         -10.603
REMARK INTER:                  -9.188
REMARK INTRA:                  -1.415
REMARK CONF_INDEPENDENT:        1.492
REMARK UNBOUND:                -1.415
REMARK  5 active torsions:
REMARK  status: ('A' for Active; 'I' for Inactive)
REMARK       I    between atoms: N_4  and  C_5 
REMARK    1  A    between atoms: C_5  and  C_7 
REMARK    2  A    between atoms: C_7  and  S_8 
REMARK    3  A    between atoms: S_8  and  C_9 
REMARK    4  A    between atoms: C_12  and  C_13 
REMARK    5  A    between atoms: N_22  and  C_23 
ROOT
ATOM      1  C   UNL d   1      25.946 -13.401  -4.964  0.00  0.00     0.268 C 
ATOM      2  N   UNL d   1      24.616 -13.399  -4.346  0.00  0.00    -0.279 N 
ATOM      3  N   UNL d   1      24.432 -14.330  -3.352  0.00  0.00    -0.158 NA
ATOM      4  C   UNL d   1      25.591 -14.862  -3.164  0.00  0.00     0.157 C 
ATOM      5  N   UNL d   1      26.566 -14.468  -4.140  0.00  0.00    -0.328 N 
ATOM      6  H   UNL d   1      23.836 -13.270  -4.987  0.00  0.00     0.185 HD
ENDROOT
BRANCH   1   7
ATOM      7  S   UNL d   1      26.785 -11.814  -4.746  0.00  0.00    -0.112 SA
BRANCH   7   8
ATOM      8  C   UNL d   1      27.760 -12.054  -3.171  0.00  0.00     0.181 C 
BRANCH   8   9
ATOM      9  C   UNL d   1      27.298 -11.071  -2.068  0.00  0.00     0.234 C 
ATOM     10  N   UNL d   1      27.579 -11.400  -0.731  0.00  0.00    -0.306 N 
ATOM     11  C   UNL d   1      28.182 -12.656  -0.261  0.00  0.00     0.235 C 
ATOM     12  C   UNL d   1      27.172 -10.540   0.348  0.00  0.00     0.064 A 
ATOM     13  C   UNL d   1      27.357 -13.349   0.826  0.00  0.00     0.240 C 
ATOM     14  O   UNL d   1      27.407 -14.557   1.012  0.00  0.00    -0.271 OA
ATOM     15  N   UNL d   1      26.703 -12.514   1.697  0.00  0.00    -0.324 N 
ATOM     16  C   UNL d   1      26.729 -11.120   1.556  0.00  0.00     0.061 A 
ATOM     17  H   UNL d   1      26.249 -12.942   2.494  0.00  0.00     0.169 HD
ATOM     18  C   UNL d   1      26.280 -10.325   2.613  0.00  0.00     0.032 A 
ATOM     19  C   UNL d   1      26.316  -8.936   2.492  0.00  0.00     0.002 A 
ATOM     20  C   UNL d   1      26.788  -8.352   1.318  0.00  0.00     0.002 A 
ATOM     21  C   UNL d   1      27.202  -9.148   0.246  0.00  0.00     0.032 A 
ATOM     22  O   UNL d   1      26.642 -10.072  -2.377  0.00  0.00    -0.272 OA
ENDBRANCH   8   9
ENDBRANCH   7   8
ENDBRANCH   1   7
BRANCH   5  23
ATOM     23  C   UNL d   1      27.750 -15.202  -4.492  0.00  0.00     0.089 A 
ATOM     24  C   UNL d   1      28.351 -15.127  -5.873  0.00  0.00     0.027 A 
ATOM     25  C   UNL d   1      29.067 -14.504  -4.720  0.00  0.00     0.027 A 
ENDBRANCH   5  23
BRANCH   4  26
ATOM     26  C   UNL d   1      25.987 -15.763  -2.072  0.00  0.00     0.019 A 
ATOM     27  C   UNL d   1      25.160 -16.613  -1.449  0.00  0.00     0.002 A 
ATOM     28  C   UNL d   1      23.768 -16.904  -1.545  0.00  0.00     0.014 A 
ATOM     29  C   UNL d   1      26.023 -17.389  -0.524  0.00  0.00     0.039 A 
ATOM     30  C   UNL d   1      23.246 -17.835  -0.732  0.00  0.00     0.001 A 
ATOM     31  C   UNL d   1      24.058 -18.568   0.226  0.00  0.00     0.002 A 
ATOM     32  C   UNL d   1      25.389 -18.395   0.353  0.00  0.00     0.030 A 
ATOM     33  N   UNL d   1      27.253 -17.053  -0.622  0.00  0.00    -0.385 N 
ATOM     34  C   UNL d   1      27.407 -15.996  -1.659  0.00  0.00     0.163 A 
ATOM     35  H   UNL d   1      27.990 -17.473  -0.053  0.00  0.00     0.160 HD
ENDBRANCH   4  26
TORSDOF 5
ENDMDL
MODEL 6
REMARK VINA RESULT:    -7.556      2.076      6.893
REMARK INTER + INTRA:         -10.775
REMARK INTER:                  -9.048
REMARK INTRA:                  -1.728
REMARK CONF_INDEPENDENT:        1.492
REMARK UNBOUND:                -1.728
REMARK  5 active torsions:
REMARK  status: ('A' for Active; 'I' for Inactive)
REMARK       I    between atoms: N_4  and  C_5 
REMARK    1  A    between atoms: C_5  and  C_7 
REMARK    2  A    between atoms: C_7  and  S_8 
REMARK    3  A    between atoms: S_8  and  C_9 
REMARK    4  A    between atoms: C_12  and  C_13 
REMARK    5  A    between atoms: N_22  and  C_23 
ROOT
ATOM      1  C   UNL d   1      26.762 -13.122  -2.095  0.00  0.00     0.268 C 
ATOM      2  N   UNL d   1      27.023 -12.990  -0.658  0.00  0.00    -0.279 N 
ATOM      3  N   UNL d   1      26.600 -14.048   0.112  0.00  0.00    -0.158 NA
ATOM      4  C   UNL d   1      26.202 -14.942  -0.726  0.00  0.00     0.157 C 
ATOM      5  N   UNL d   1      26.148 -14.472  -2.081  0.00  0.00    -0.328 N 
ATOM      6  H   UNL d   1      26.865 -12.063  -0.268  0.00  0.00     0.185 HD
ENDROOT
BRANCH   1   7
ATOM      7  S   UNL d   1      28.295 -13.094  -3.055  0.00  0.00    -0.112 SA
BRANCH   7   8
ATOM      8  C   UNL d   1      29.424 -14.233  -2.099  0.00  0.00     0.181 C 
BRANCH   8   9
ATOM      9  C   UNL d   1      29.568 -15.605  -2.802  0.00  0.00     0.234 C 
ATOM     10  N   UNL d   1      30.231 -15.645  -4.040  0.00  0.00    -0.306 N 
ATOM     11  C   UNL d   1      30.714 -14.480  -4.797  0.00  0.00     0.235 C 
ATOM     12  C   UNL d   1      30.394 -16.881  -4.757  0.00  0.00     0.064 A 
ATOM     13  C   UNL d   1      30.207 -14.449  -6.241  0.00  0.00     0.240 C 
ATOM     14  O   UNL d   1      30.091 -13.406  -6.869  0.00  0.00    -0.271 OA
ATOM     15  N   UNL d   1      30.065 -15.672  -6.847  0.00  0.00    -0.324 N 
ATOM     16  C   UNL d   1      30.300 -16.875  -6.165  0.00  0.00     0.061 A 
ATOM     17  H   UNL d   1      29.846 -15.676  -7.835  0.00  0.00     0.169 HD
ATOM     18  C   UNL d   1      30.405 -18.058  -6.899  0.00  0.00     0.032 A 
ATOM     19  C   UNL d   1      30.655 -19.259  -6.235  0.00  0.00     0.002 A 
ATOM     20  C   UNL d   1      30.789 -19.272  -4.847  0.00  0.00     0.002 A 
ATOM     21  C   UNL d   1      30.647 -18.093  -4.110  0.00  0.00     0.032 A 
ATOM     22  O   UNL d   1      29.045 -16.604  -2.302  0.00  0.00    -0.272 OA
ENDBRANCH   8   9
ENDBRANCH   7   8
ENDBRANCH   1   7
BRANCH   5  23
ATOM     23  C   UNL d   1      25.337 -15.023  -3.131  0.00  0.00     0.089 A 
ATOM     24  C   UNL d   1      25.155 -14.315  -4.451  0.00  0.00     0.027 A 
ATOM     25  C   UNL d   1      25.955 -15.575  -4.392  0.00  0.00     0.027 A 
ENDBRANCH   5  23
BRANCH   4  26
ATOM     26  C   UNL d   1      25.851 -16.339  -0.432  0.00  0.00     0.019 A 
ATOM     27  C   UNL d   1      24.619 -16.854  -0.547  0.00  0.00     0.002 A 
ATOM     28  C   UNL d   1      23.343 -16.325  -0.894  0.00  0.00     0.014 A 
ATOM     29  C   UNL d   1      24.776 -18.304  -0.272  0.00  0.00     0.039 A 
ATOM     30  C   UNL d   1      22.281 -17.145  -0.893  0.00  0.00     0.001 A 
ATOM     31  C   UNL d   1      22.398 -18.559  -0.569  0.00  0.00     0.002 A 
ATOM     32  C   UNL d   1      23.570 -19.156  -0.276  0.00  0.00     0.030 A 
ATOM     33  N   UNL d   1      25.996 -18.620  -0.055  0.00  0.00    -0.385 N 
ATOM     34  C   UNL d   1      26.860 -17.413  -0.172  0.00  0.00     0.163 A 
ATOM     35  H   UNL d   1      26.293 -19.573   0.164  0.00  0.00     0.160 HD
ENDBRANCH   4  26
TORSDOF 5
ENDMDL
MODEL 7
REMARK VINA RESULT:    -7.353      2.576      5.470
REMARK INTER + INTRA:         -11.061
REMARK INTER:                  -8.844
REMARK INTRA:                  -2.216
REMARK CONF_INDEPENDENT:        1.492
REMARK UNBOUND:                -2.216
REMARK  5 active torsions:
REMARK  status: ('A' for Active; 'I' for Inactive)
REMARK       I    between atoms: N_4  and  C_5 
REMARK    1  A    between atoms: C_5  and  C_7 
REMARK    2  A    between atoms: C_7  and  S_8 
REMARK    3  A    between atoms: S_8  and  C_9 
REMARK    4  A    between atoms: C_12  and  C_13 
REMARK    5  A    between atoms: N_22  and  C_23 
ROOT
ATOM      1  C   UNL d   1      25.903 -13.373  -5.020  0.00  0.00     0.268 C 
ATOM      2  N   UNL d   1      24.589 -13.373  -4.368  0.00  0.00    -0.279 N 
ATOM      3  N   UNL d   1      24.417 -14.334  -3.399  0.00  0.00    -0.158 NA
ATOM      4  C   UNL d   1      25.573 -14.886  -3.258  0.00  0.00     0.157 C 
ATOM      5  N   UNL d   1      26.529 -14.473  -4.246  0.00  0.00    -0.328 N 
ATOM      6  H   UNL d   1      23.794 -13.215  -4.985  0.00  0.00     0.185 HD
ENDROOT
BRANCH   1   7
ATOM      7  S   UNL d   1      26.769 -11.804  -4.773  0.00  0.00    -0.112 SA
BRANCH   7   8
ATOM      8  C   UNL d   1      26.847 -11.643  -2.915  0.00  0.00     0.181 C 
BRANCH   8   9
ATOM      9  C   UNL d   1      28.086 -12.370  -2.338  0.00  0.00     0.234 C 
ATOM     10  N   UNL d   1      27.904 -13.194  -1.215  0.00  0.00    -0.306 N 
ATOM     11  C   UNL d   1      26.655 -13.353  -0.455  0.00  0.00     0.235 C 
ATOM     12  C   UNL d   1      29.011 -13.894  -0.618  0.00  0.00     0.064 A 
ATOM     13  C   UNL d   1      26.829 -13.105   1.045  0.00  0.00     0.240 C 
ATOM     14  O   UNL d   1      25.905 -12.732   1.756  0.00  0.00    -0.271 OA
ATOM     15  N   UNL d   1      28.030 -13.501   1.577  0.00  0.00    -0.324 N 
ATOM     16  C   UNL d   1      29.058 -14.031   0.785  0.00  0.00     0.061 A 
ATOM     17  H   UNL d   1      28.126 -13.459   2.584  0.00  0.00     0.169 HD
ATOM     18  C   UNL d   1      30.137 -14.660   1.411  0.00  0.00     0.032 A 
ATOM     19  C   UNL d   1      31.158 -15.206   0.634  0.00  0.00     0.002 A 
ATOM     20  C   UNL d   1      31.103 -15.112  -0.755  0.00  0.00     0.002 A 
ATOM     21  C   UNL d   1      30.042 -14.448  -1.379  0.00  0.00     0.032 A 
ATOM     22  O   UNL d   1      29.200 -12.158  -2.826  0.00  0.00    -0.272 OA
ENDBRANCH   8   9
ENDBRANCH   7   8
ENDBRANCH   1   7
BRANCH   5  23
ATOM     23  C   UNL d   1      27.693 -15.211  -4.650  0.00  0.00     0.089 A 
ATOM     24  C   UNL d   1      28.406 -14.923  -5.948  0.00  0.00     0.027 A 
ATOM     25  C   UNL d   1      29.062 -14.577  -4.652  0.00  0.00     0.027 A 
ENDBRANCH   5  23
BRANCH   4  26
ATOM     26  C   UNL d   1      25.984 -15.826  -2.205  0.00  0.00     0.019 A 
ATOM     27  C   UNL d   1      25.138 -16.503  -1.417  0.00  0.00     0.002 A 
ATOM     28  C   UNL d   1      23.721 -16.540  -1.270  0.00  0.00     0.014 A 
ATOM     29  C   UNL d   1      25.996 -17.407  -0.611  0.00  0.00     0.039 A 
ATOM     30  C   UNL d   1      23.189 -17.347  -0.341  0.00  0.00     0.001 A 
ATOM     31  C   UNL d   1      24.011 -18.200   0.504  0.00  0.00     0.002 A 
ATOM     32  C   UNL d   1      25.353 -18.268   0.403  0.00  0.00     0.030 A 
ATOM     33  N   UNL d   1      27.231 -17.300  -0.924  0.00  0.00    -0.385 N 
ATOM     34  C   UNL d   1      27.390 -16.305  -2.020  0.00  0.00     0.163 A 
ATOM     35  H   UNL d   1      27.969 -17.837  -0.465  0.00  0.00     0.160 HD
ENDBRANCH   4  26
TORSDOF 5
ENDMDL
MODEL 8
REMARK VINA RESULT:    -6.863      2.011      3.017
REMARK INTER + INTRA:         -10.665
REMARK INTER:                  -8.354
REMARK INTRA:                  -2.310
REMARK CONF_INDEPENDENT:        1.492
REMARK UNBOUND:                -2.310
REMARK  5 active torsions:
REMARK  status: ('A' for Active; 'I' for Inactive)
REMARK       I    between atoms: N_4  and  C_5 
REMARK    1  A    between atoms: C_5  and  C_7 
REMARK    2  A    between atoms: C_7  and  S_8 
REMARK    3  A    between atoms: S_8  and  C_9 
REMARK    4  A    between atoms: C_12  and  C_13 
REMARK    5  A    between atoms: N_22  and  C_23 
ROOT
ATOM      1  C   UNL d   1      28.305 -12.922  -5.345  0.00  0.00     0.268 C 
ATOM      2  N   UNL d   1      27.381 -13.873  -5.972  0.00  0.00    -0.279 N 
ATOM      3  N   UNL d   1      27.711 -15.199  -5.815  0.00  0.00    -0.158 NA
ATOM      4  C   UNL d   1      28.715 -15.207  -5.006  0.00  0.00     0.157 C 
ATOM      5  N   UNL d   1      29.237 -13.898  -4.730  0.00  0.00    -0.328 N 
ATOM      6  H   UNL d   1      27.035 -13.606  -6.892  0.00  0.00     0.185 HD
ENDROOT
BRANCH   1   7
ATOM      7  S   UNL d   1      27.474 -11.912  -4.096  0.00  0.00    -0.112 SA
BRANCH   7   8
ATOM      8  C   UNL d   1      25.696 -12.475  -4.198  0.00  0.00     0.181 C 
BRANCH   8   9
ATOM      9  C   UNL d   1      25.518 -13.889  -3.591  0.00  0.00     0.234 C 
ATOM     10  N   UNL d   1      25.932 -14.094  -2.264  0.00  0.00    -0.306 N 
ATOM     11  C   UNL d   1      26.628 -13.114  -1.417  0.00  0.00     0.235 C 
ATOM     12  C   UNL d   1      25.807 -15.383  -1.637  0.00  0.00     0.064 A 
ATOM     13  C   UNL d   1      27.926 -13.656  -0.814  0.00  0.00     0.240 C 
ATOM     14  O   UNL d   1      28.852 -12.923  -0.493  0.00  0.00    -0.271 OA
ATOM     15  N   UNL d   1      27.918 -14.988  -0.486  0.00  0.00    -0.324 N 
ATOM     16  C   UNL d   1      26.818 -15.815  -0.753  0.00  0.00     0.061 A 
ATOM     17  H   UNL d   1      28.718 -15.344   0.022  0.00  0.00     0.169 HD
ATOM     18  C   UNL d   1      26.761 -17.078  -0.157  0.00  0.00     0.032 A 
ATOM     19  C   UNL d   1      25.665 -17.904  -0.401  0.00  0.00     0.002 A 
ATOM     20  C   UNL d   1      24.640 -17.471  -1.242  0.00  0.00     0.002 A 
ATOM     21  C   UNL d   1      24.715 -16.223  -1.867  0.00  0.00     0.032 A 
ATOM     22  O   UNL d   1      25.088 -14.805  -4.296  0.00  0.00    -0.272 OA
ENDBRANCH   8   9
ENDBRANCH   7   8
ENDBRANCH   1   7
BRANCH   5  23
ATOM     23  C   UNL d   1      30.570 -13.601  -4.284  0.00  0.00     0.089 A 
ATOM     24  C   UNL d   1      30.886 -12.353  -3.499  0.00  0.00     0.027 A 
ATOM     25  C   UNL d   1      30.945 -13.684  -2.825  0.00  0.00     0.027 A 
ENDBRANCH   5  23
BRANCH   4  26
ATOM     26  C   UNL d   1      29.315 -16.376  -4.349  0.00  0.00     0.019 A 
ATOM     27  C   UNL d   1      30.037 -17.314  -4.976  0.00  0.00     0.002 A 
ATOM     28  C   UNL d   1      30.413 -17.547  -6.331  0.00  0.00     0.014 A 
ATOM     29  C   UNL d   1      30.532 -18.209  -3.901  0.00  0.00     0.039 A 
ATOM     30  C   UNL d   1      31.153 -18.627  -6.619  0.00  0.00     0.001 A 
ATOM     31  C   UNL d   1      31.601 -19.554  -5.591  0.00  0.00     0.002 A 
ATOM     32  C   UNL d   1      31.336 -19.389  -4.281  0.00  0.00     0.030 A 
ATOM     33  N   UNL d   1      30.166 -17.812  -2.741  0.00  0.00    -0.385 N 
ATOM     34  C   UNL d   1      29.373 -16.558  -2.864  0.00  0.00     0.163 A 
ATOM     35  H   UNL d   1      30.403 -18.311  -1.883  0.00  0.00     0.160 HD
ENDBRANCH   4  26
TORSDOF 5
ENDMDL
MODEL 9
REMARK VINA RESULT:    -6.854      2.247      6.968
REMARK INTER + INTRA:         -10.668
REMARK INTER:                  -8.346
REMARK INTRA:                  -2.323
REMARK CONF_INDEPENDENT:        1.492
REMARK UNBOUND:                -2.323
REMARK  5 active torsions:
REMARK  status: ('A' for Active; 'I' for Inactive)
REMARK       I    between atoms: N_4  and  C_5 
REMARK    1  A    between atoms: C_5  and  C_7 
REMARK    2  A    between atoms: C_7  and  S_8 
REMARK    3  A    between atoms: S_8  and  C_9 
REMARK    4  A    between atoms: C_12  and  C_13 
REMARK    5  A    between atoms: N_22  and  C_23 
ROOT
ATOM      1  C   UNL d   1      27.929 -12.693  -1.262  0.00  0.00     0.268 C 
ATOM      2  N   UNL d   1      28.589 -13.561  -2.242  0.00  0.00    -0.279 N 
ATOM      3  N   UNL d   1      28.471 -14.910  -2.002  0.00  0.00    -0.158 NA
ATOM      4  C   UNL d   1      27.659 -15.009  -1.005  0.00  0.00     0.157 C 
ATOM      5  N   UNL d   1      27.341 -13.747  -0.400  0.00  0.00    -0.328 N 
ATOM      6  H   UNL d   1      29.501 -13.244  -2.565  0.00  0.00     0.185 HD
ENDROOT
BRANCH   1   7
ATOM      7  S   UNL d   1      26.653 -11.669  -2.032  0.00  0.00    -0.112 SA
BRANCH   7   8
ATOM      8  C   UNL d   1      27.597 -10.694  -3.314  0.00  0.00     0.181 C 
BRANCH   8   9
ATOM      9  C   UNL d   1      28.577 -11.599  -4.100  0.00  0.00     0.234 C 
ATOM     10  N   UNL d   1      28.036 -12.606  -4.915  0.00  0.00    -0.306 N 
ATOM     11  C   UNL d   1      26.613 -12.963  -5.015  0.00  0.00     0.235 C 
ATOM     12  C   UNL d   1      28.885 -13.491  -5.667  0.00  0.00     0.064 A 
ATOM     13  C   UNL d   1      26.348 -14.451  -4.777  0.00  0.00     0.240 C 
ATOM     14  O   UNL d   1      25.274 -14.864  -4.361  0.00  0.00    -0.271 OA
ATOM     15  N   UNL d   1      27.320 -15.307  -5.230  0.00  0.00    -0.324 N 
ATOM     16  C   UNL d   1      28.511 -14.845  -5.808  0.00  0.00     0.061 A 
ATOM     17  H   UNL d   1      27.117 -16.298  -5.193  0.00  0.00     0.169 HD
ATOM     18  C   UNL d   1      29.328 -15.750  -6.488  0.00  0.00     0.032 A 
ATOM     19  C   UNL d   1      30.507 -15.301  -7.082  0.00  0.00     0.002 A 
ATOM     20  C   UNL d   1      30.867 -13.957  -6.983  0.00  0.00     0.002 A 
ATOM     21  C   UNL d   1      30.068 -13.059  -6.270  0.00  0.00     0.032 A 
ATOM     22  O   UNL d   1      29.794 -11.462  -3.941  0.00  0.00    -0.272 OA
ENDBRANCH   8   9
ENDBRANCH   7   8
ENDBRANCH   1   7
BRANCH   5  23
ATOM     23  C   UNL d   1      26.880 -13.553   0.947  0.00  0.00     0.089 A 
ATOM     24  C   UNL d   1      27.597 -14.159   2.128  0.00  0.00     0.027 A 
ATOM     25  C   UNL d   1      27.638 -12.681   1.917  0.00  0.00     0.027 A 
ENDBRANCH   5  23
BRANCH   4  26
ATOM     26  C   UNL d   1      27.036 -16.235  -0.488  0.00  0.00     0.019 A 
ATOM     27  C   UNL d   1      25.751 -16.570  -0.666  0.00  0.00     0.002 A 
ATOM     28  C   UNL d   1      24.632 -15.943  -1.287  0.00  0.00     0.014 A 
ATOM     29  C   UNL d   1      25.618 -17.929  -0.085  0.00  0.00     0.039 A 
ATOM     30  C   UNL d   1      23.447 -16.572  -1.268  0.00  0.00     0.001 A 
ATOM     31  C   UNL d   1      23.276 -17.879  -0.653  0.00  0.00     0.002 A 
ATOM     32  C   UNL d   1      24.285 -18.568  -0.085  0.00  0.00     0.030 A 
ATOM     33  N   UNL d   1      26.733 -18.371   0.358  0.00  0.00    -0.385 N 
ATOM     34  C   UNL d   1      27.805 -17.366   0.122  0.00  0.00     0.163 A 
ATOM     35  H   UNL d   1      26.830 -19.285   0.803  0.00  0.00     0.160 HD
ENDBRANCH   4  26
TORSDOF 5
ENDMDL
