MODEL 1
REMARK VINA RESULT:    -5.677      0.000      0.000
REMARK INTER + INTRA:         -10.500
REMARK INTER:                  -7.765
REMARK INTRA:                  -2.735
REMARK CONF_INDEPENDENT:        2.088
REMARK UNBOUND:                -2.735
REMARK  7 active torsions:
REMARK  status: ('A' for Active; 'I' for Inactive)
REMARK    1  A    between atoms: O_2  and  C_3 
REMARK    2  A    between atoms: C_7  and  C_8 
REMARK    3  A    between atoms: C_8  and  C_9 
REMARK    4  A    between atoms: C_8  and  C_16 
REMARK    5  A    between atoms: C_10  and  O_11 
REMARK    6  A    between atoms: C_21  and  O_22 
REMARK    7  A    between atoms: C_23  and  O_24 
ROOT
ATOM      1  C   UNL d   1      27.464 -14.440  -2.627  0.00  0.00     0.100 C 
ENDROOT
BRANCH   1   2
ATOM      2  C   UNL d   1      26.565 -15.507  -1.961  0.00  0.00    -0.009 A 
ATOM      3  C   UNL d   1      25.557 -16.083  -2.772  0.00  0.00     0.011 A 
ATOM      4  C   UNL d   1      24.769 -17.119  -2.290  0.00  0.00     0.003 A 
ATOM      5  C   UNL d   1      24.986 -17.607  -0.998  0.00  0.00     0.039 A 
ATOM      6  C   UNL d   1      25.966 -17.058  -0.151  0.00  0.00     0.102 A 
ATOM      7  C   UNL d   1      26.708 -15.966  -0.616  0.00  0.00     0.108 A 
BRANCH   6   8
ATOM      8  O   UNL d   1      26.213 -17.788   0.985  0.00  0.00    -0.353 OA
ATOM      9  C   UNL d   1      27.030 -18.947   0.904  0.00  0.00     0.210 C 
ENDBRANCH   6   8
BRANCH   7  10
ATOM     10  O   UNL d   1      27.533 -15.173   0.112  0.00  0.00    -0.353 OA
ATOM     11  C   UNL d   1      28.785 -15.571   0.605  0.00  0.00     0.210 C 
ENDBRANCH   7  10
ENDBRANCH   1   2
BRANCH   1  12
ATOM     12  C   UNL d   1      28.149 -15.164  -3.719  0.00  0.00     0.033 A 
ATOM     13  C   UNL d   1      27.858 -15.218  -5.092  0.00  0.00     0.190 A 
ATOM     14  N   UNL d   1      28.732 -15.936  -5.786  0.00  0.00    -0.149 NA
ATOM     15  N   UNL d   1      29.604 -16.346  -4.841  0.00  0.00    -0.280 N 
ATOM     16  C   UNL d   1      29.292 -15.919  -3.580  0.00  0.00     0.035 A 
ATOM     17  H   UNL d   1      30.381 -16.923  -5.136  0.00  0.00     0.189 HD
ATOM     18  C   UNL d   1      30.048 -16.202  -2.340  0.00  0.00     0.070 C 
BRANCH  13  19
ATOM     19  O   UNL d   1      26.881 -14.600  -5.768  0.00  0.00    -0.343 OA
ATOM     20  H   UNL d   1      26.067 -15.130  -5.672  0.00  0.00     0.219 HD
ENDBRANCH  13  19
ENDBRANCH   1  12
BRANCH   1  21
ATOM     21  C   UNL d   1      26.739 -13.214  -3.088  0.00  0.00     0.033 C 
ATOM     22  C   UNL d   1      27.088 -11.864  -2.779  0.00  0.00     0.062 C 
ATOM     23  C   UNL d   1      28.225 -11.445  -1.892  0.00  0.00     0.073 C 
ATOM     24  N   UNL d   1      26.118 -11.006  -3.151  0.00  0.00    -0.177 NA
ATOM     25  N   UNL d   1      25.161 -11.809  -3.659  0.00  0.00    -0.256 N 
ATOM     26  C   UNL d   1      25.526 -13.117  -3.779  0.00  0.00     0.166 C 
ATOM     27  H   UNL d   1      24.254 -11.404  -3.894  0.00  0.00     0.191 HD
BRANCH  26  28
ATOM     28  O   UNL d   1      24.798 -14.049  -4.354  0.00  0.00    -0.345 OA
ATOM     29  H   UNL d   1      24.829 -14.036  -5.333  0.00  0.00     0.219 HD
ENDBRANCH  26  28
ENDBRANCH   1  21
TORSDOF 7
ENDMDL
MODEL 2
REMARK VINA RESULT:    -5.648      2.420      5.224
REMARK INTER + INTRA:         -10.556
REMARK INTER:                  -7.736
REMARK INTRA:                  -2.819
REMARK CONF_INDEPENDENT:        2.088
REMARK UNBOUND:                -2.819
REMARK  7 active torsions:
REMARK  status: ('A' for Active; 'I' for Inactive)
REMARK    1  A    between atoms: O_2  and  C_3 
REMARK    2  A    between atoms: C_7  and  C_8 
REMARK    3  A    between atoms: C_8  and  C_9 
REMARK    4  A    between atoms: C_8  and  C_16 
REMARK    5  A    between atoms: C_10  and  O_11 
REMARK    6  A    between atoms: C_21  and  O_22 
REMARK    7  A    between atoms: C_23  and  O_24 
ROOT
ATOM      1  C   UNL d   1      27.671 -15.097  -1.223  0.00  0.00     0.100 C 
ENDROOT
BRANCH   1   2
ATOM      2  C   UNL d   1      26.638 -16.206  -0.917  0.00  0.00    -0.009 A 
ATOM      3  C   UNL d   1      27.097 -17.309  -0.158  0.00  0.00     0.011 A 
ATOM      4  C   UNL d   1      26.217 -18.302   0.250  0.00  0.00     0.003 A 
ATOM      5  C   UNL d   1      24.862 -18.200  -0.079  0.00  0.00     0.039 A 
ATOM      6  C   UNL d   1      24.362 -17.130  -0.843  0.00  0.00     0.102 A 
ATOM      7  C   UNL d   1      25.266 -16.170  -1.313  0.00  0.00     0.108 A 
BRANCH   6   8
ATOM      8  O   UNL d   1      22.992 -17.049  -0.885  0.00  0.00    -0.353 OA
ATOM      9  C   UNL d   1      22.222 -18.242  -0.829  0.00  0.00     0.210 C 
ENDBRANCH   6   8
BRANCH   7  10
ATOM     10  O   UNL d   1      25.021 -15.199  -2.227  0.00  0.00    -0.353 OA
ATOM     11  C   UNL d   1      25.530 -15.195  -3.535  0.00  0.00     0.210 C 
ENDBRANCH   7  10
ENDBRANCH   1   2
BRANCH   1  12
ATOM     12  C   UNL d   1      27.543 -14.152  -0.094  0.00  0.00     0.033 A 
ATOM     13  C   UNL d   1      27.587 -14.382   1.291  0.00  0.00     0.190 A 
ATOM     14  N   UNL d   1      27.486 -13.273   2.012  0.00  0.00    -0.149 NA
ATOM     15  N   UNL d   1      27.382 -12.310   1.071  0.00  0.00    -0.280 N 
ATOM     16  C   UNL d   1      27.399 -12.787  -0.211  0.00  0.00     0.035 A 
ATOM     17  H   UNL d   1      27.293 -11.353   1.386  0.00  0.00     0.189 HD
ATOM     18  C   UNL d   1      27.301 -11.987  -1.451  0.00  0.00     0.070 C 
BRANCH  13  19
ATOM     19  O   UNL d   1      27.779 -15.536   1.943  0.00  0.00    -0.343 OA
ATOM     20  H   UNL d   1      28.715 -15.575   2.217  0.00  0.00     0.219 HD
ENDBRANCH  13  19
ENDBRANCH   1  12
BRANCH   1  21
ATOM     21  C   UNL d   1      29.069 -15.589  -1.432  0.00  0.00     0.033 C 
ATOM     22  C   UNL d   1      29.644 -15.986  -2.678  0.00  0.00     0.062 C 
ATOM     23  C   UNL d   1      28.922 -16.020  -3.992  0.00  0.00     0.073 C 
ATOM     24  N   UNL d   1      30.836 -16.589  -2.501  0.00  0.00    -0.177 NA
ATOM     25  N   UNL d   1      30.994 -16.598  -1.162  0.00  0.00    -0.256 N 
ATOM     26  C   UNL d   1      30.046 -15.895  -0.478  0.00  0.00     0.166 C 
ATOM     27  H   UNL d   1      31.770 -17.125  -0.762  0.00  0.00     0.191 HD
BRANCH  26  28
ATOM     28  O   UNL d   1      30.068 -15.673   0.819  0.00  0.00    -0.345 OA
ATOM     29  H   UNL d   1      29.667 -16.387   1.355  0.00  0.00     0.219 HD
ENDBRANCH  26  28
ENDBRANCH   1  21
TORSDOF 7
ENDMDL
MODEL 3
REMARK VINA RESULT:    -5.569      2.728      5.413
REMARK INTER + INTRA:         -10.450
REMARK INTER:                  -7.657
REMARK INTRA:                  -2.793
REMARK CONF_INDEPENDENT:        2.088
REMARK UNBOUND:                -2.793
REMARK  7 active torsions:
REMARK  status: ('A' for Active; 'I' for Inactive)
REMARK    1  A    between atoms: O_2  and  C_3 
REMARK    2  A    between atoms: C_7  and  C_8 
REMARK    3  A    between atoms: C_8  and  C_9 
REMARK    4  A    between atoms: C_8  and  C_16 
REMARK    5  A    between atoms: C_10  and  O_11 
REMARK    6  A    between atoms: C_21  and  O_22 
REMARK    7  A    between atoms: C_23  and  O_24 
ROOT
ATOM      1  C   UNL d   1      26.713 -14.864  -0.822  0.00  0.00     0.100 C 
ENDROOT
BRANCH   1   2
ATOM      2  C   UNL d   1      27.587 -14.800  -2.096  0.00  0.00    -0.009 A 
ATOM      3  C   UNL d   1      28.988 -14.742  -1.903  0.00  0.00     0.011 A 
ATOM      4  C   UNL d   1      29.854 -14.782  -2.986  0.00  0.00     0.003 A 
ATOM      5  C   UNL d   1      29.335 -14.900  -4.279  0.00  0.00     0.039 A 
ATOM      6  C   UNL d   1      27.950 -14.948  -4.522  0.00  0.00     0.102 A 
ATOM      7  C   UNL d   1      27.081 -14.833  -3.431  0.00  0.00     0.108 A 
BRANCH   6   8
ATOM      8  O   UNL d   1      27.607 -15.294  -5.806  0.00  0.00    -0.353 OA
ATOM      9  C   UNL d   1      28.399 -14.825  -6.888  0.00  0.00     0.210 C 
ENDBRANCH   6   8
BRANCH   7  10
ATOM     10  O   UNL d   1      25.739 -14.642  -3.476  0.00  0.00    -0.353 OA
ATOM     11  C   UNL d   1      25.101 -13.677  -4.270  0.00  0.00     0.210 C 
ENDBRANCH   7  10
ENDBRANCH   1   2
BRANCH   1  12
ATOM     12  C   UNL d   1      26.680 -16.299  -0.470  0.00  0.00     0.033 A 
ATOM     13  C   UNL d   1      27.715 -17.156  -0.059  0.00  0.00     0.190 A 
ATOM     14  N   UNL d   1      27.299 -18.383   0.226  0.00  0.00    -0.149 NA
ATOM     15  N   UNL d   1      25.971 -18.312  -0.000  0.00  0.00    -0.280 N 
ATOM     16  C   UNL d   1      25.549 -17.084  -0.431  0.00  0.00     0.035 A 
ATOM     17  H   UNL d   1      25.422 -19.147   0.154  0.00  0.00     0.189 HD
ATOM     18  C   UNL d   1      24.162 -16.694  -0.763  0.00  0.00     0.070 C 
BRANCH  13  19
ATOM     19  O   UNL d   1      29.010 -16.874   0.136  0.00  0.00    -0.343 OA
ATOM     20  H   UNL d   1      29.169 -16.843   1.098  0.00  0.00     0.219 HD
ENDBRANCH  13  19
ENDBRANCH   1  12
BRANCH   1  21
ATOM     21  C   UNL d   1      27.179 -13.986   0.297  0.00  0.00     0.033 C 
ATOM     22  C   UNL d   1      27.304 -12.564   0.255  0.00  0.00     0.062 C 
ATOM     23  C   UNL d   1      27.031 -11.707  -0.946  0.00  0.00     0.073 C 
ATOM     24  N   UNL d   1      27.958 -12.094   1.335  0.00  0.00    -0.177 NA
ATOM     25  N   UNL d   1      28.266 -13.208   2.031  0.00  0.00    -0.256 N 
ATOM     26  C   UNL d   1      27.710 -14.351   1.539  0.00  0.00     0.166 C 
ATOM     27  H   UNL d   1      28.886 -13.127   2.837  0.00  0.00     0.191 HD
BRANCH  26  28
ATOM     28  O   UNL d   1      27.780 -15.529   2.122  0.00  0.00    -0.345 OA
ATOM     29  H   UNL d   1      28.663 -15.949   2.072  0.00  0.00     0.219 HD
ENDBRANCH  26  28
ENDBRANCH   1  21
TORSDOF 7
ENDMDL
MODEL 4
REMARK VINA RESULT:    -5.545      2.951      5.267
REMARK INTER + INTRA:         -10.651
REMARK INTER:                  -7.633
REMARK INTRA:                  -3.019
REMARK CONF_INDEPENDENT:        2.088
REMARK UNBOUND:                -3.019
REMARK  7 active torsions:
REMARK  status: ('A' for Active; 'I' for Inactive)
REMARK    1  A    between atoms: O_2  and  C_3 
REMARK    2  A    between atoms: C_7  and  C_8 
REMARK    3  A    between atoms: C_8  and  C_9 
REMARK    4  A    between atoms: C_8  and  C_16 
REMARK    5  A    between atoms: C_10  and  O_11 
REMARK    6  A    between atoms: C_21  and  O_22 
REMARK    7  A    between atoms: C_23  and  O_24 
ROOT
ATOM      1  C   UNL d   1      25.815 -15.206  -0.744  0.00  0.00     0.100 C 
ENDROOT
BRANCH   1   2
ATOM      2  C   UNL d   1      25.869 -15.052  -2.282  0.00  0.00    -0.009 A 
ATOM      3  C   UNL d   1      24.802 -14.345  -2.887  0.00  0.00     0.011 A 
ATOM      4  C   UNL d   1      24.817 -14.071  -4.247  0.00  0.00     0.003 A 
ATOM      5  C   UNL d   1      25.906 -14.482  -5.021  0.00  0.00     0.039 A 
ATOM      6  C   UNL d   1      26.982 -15.199  -4.467  0.00  0.00     0.102 A 
ATOM      7  C   UNL d   1      26.927 -15.535  -3.110  0.00  0.00     0.108 A 
BRANCH   6   8
ATOM      8  O   UNL d   1      28.070 -15.327  -5.296  0.00  0.00    -0.353 OA
ATOM      9  C   UNL d   1      28.202 -14.455  -6.410  0.00  0.00     0.210 C 
ENDBRANCH   6   8
BRANCH   7  10
ATOM     10  O   UNL d   1      27.746 -16.392  -2.449  0.00  0.00    -0.353 OA
ATOM     11  C   UNL d   1      29.120 -16.529  -2.701  0.00  0.00     0.210 C 
ENDBRANCH   7  10
ENDBRANCH   1   2
BRANCH   1  12
ATOM     12  C   UNL d   1      25.454 -16.623  -0.528  0.00  0.00     0.033 A 
ATOM     13  C   UNL d   1      26.273 -17.754  -0.377  0.00  0.00     0.190 A 
ATOM     14  N   UNL d   1      25.592 -18.868  -0.144  0.00  0.00    -0.149 NA
ATOM     15  N   UNL d   1      24.311 -18.444  -0.139  0.00  0.00    -0.280 N 
ATOM     16  C   UNL d   1      24.173 -17.104  -0.376  0.00  0.00     0.035 A 
ATOM     17  H   UNL d   1      23.588 -19.132   0.024  0.00  0.00     0.189 HD
ATOM     18  C   UNL d   1      22.905 -16.345  -0.436  0.00  0.00     0.070 C 
BRANCH  13  19
ATOM     19  O   UNL d   1      27.611 -17.826  -0.373  0.00  0.00    -0.343 OA
ATOM     20  H   UNL d   1      27.961 -16.917  -0.414  0.00  0.00     0.219 HD
ENDBRANCH  13  19
ENDBRANCH   1  12
BRANCH   1  21
ATOM     21  C   UNL d   1      27.066 -14.794  -0.032  0.00  0.00     0.033 C 
ATOM     22  C   UNL d   1      27.900 -13.684  -0.370  0.00  0.00     0.062 C 
ATOM     23  C   UNL d   1      27.685 -12.764  -1.536  0.00  0.00     0.073 C 
ATOM     24  N   UNL d   1      29.061 -13.714   0.313  0.00  0.00    -0.177 NA
ATOM     25  N   UNL d   1      28.970 -14.842   1.047  0.00  0.00    -0.256 N 
ATOM     26  C   UNL d   1      27.753 -15.454   0.993  0.00  0.00     0.166 C 
ATOM     27  H   UNL d   1      29.792 -15.161   1.560  0.00  0.00     0.191 HD
BRANCH  26  28
ATOM     28  O   UNL d   1      27.405 -16.496   1.717  0.00  0.00    -0.345 OA
ATOM     29  H   UNL d   1      28.033 -17.245   1.669  0.00  0.00     0.219 HD
ENDBRANCH  26  28
ENDBRANCH   1  21
TORSDOF 7
ENDMDL
MODEL 5
REMARK VINA RESULT:    -5.506      2.601      5.483
REMARK INTER + INTRA:         -10.151
REMARK INTER:                  -7.594
REMARK INTRA:                  -2.557
REMARK CONF_INDEPENDENT:        2.088
REMARK UNBOUND:                -2.557
REMARK  7 active torsions:
REMARK  status: ('A' for Active; 'I' for Inactive)
REMARK    1  A    between atoms: O_2  and  C_3 
REMARK    2  A    between atoms: C_7  and  C_8 
REMARK    3  A    between atoms: C_8  and  C_9 
REMARK    4  A    between atoms: C_8  and  C_16 
REMARK    5  A    between atoms: C_10  and  O_11 
REMARK    6  A    between atoms: C_21  and  O_22 
REMARK    7  A    between atoms: C_23  and  O_24 
ROOT
ATOM      1  C   UNL d   1      27.141 -16.298  -2.186  0.00  0.00     0.100 C 
ENDROOT
BRANCH   1   2
ATOM      2  C   UNL d   1      26.760 -14.802  -2.282  0.00  0.00    -0.009 A 
ATOM      3  C   UNL d   1      27.199 -13.967  -1.227  0.00  0.00     0.011 A 
ATOM      4  C   UNL d   1      26.991 -12.596  -1.278  0.00  0.00     0.003 A 
ATOM      5  C   UNL d   1      26.358 -12.035  -2.392  0.00  0.00     0.039 A 
ATOM      6  C   UNL d   1      25.893 -12.827  -3.458  0.00  0.00     0.102 A 
ATOM      7  C   UNL d   1      26.041 -14.216  -3.367  0.00  0.00     0.108 A 
BRANCH   6   8
ATOM      8  O   UNL d   1      25.508 -12.118  -4.569  0.00  0.00    -0.353 OA
ATOM      9  C   UNL d   1      25.916 -10.764  -4.708  0.00  0.00     0.210 C 
ENDBRANCH   6   8
BRANCH   7  10
ATOM     10  O   UNL d   1      25.476 -15.149  -4.173  0.00  0.00    -0.353 OA
ATOM     11  C   UNL d   1      26.020 -15.575  -5.395  0.00  0.00     0.210 C 
ENDBRANCH   7  10
ENDBRANCH   1   2
BRANCH   1  12
ATOM     12  C   UNL d   1      28.598 -16.293  -1.938  0.00  0.00     0.033 A 
ATOM     13  C   UNL d   1      29.313 -16.164  -0.735  0.00  0.00     0.190 A 
ATOM     14  N   UNL d   1      30.627 -16.258  -0.892  0.00  0.00    -0.149 NA
ATOM     15  N   UNL d   1      30.759 -16.457  -2.221  0.00  0.00    -0.280 N 
ATOM     16  C   UNL d   1      29.570 -16.475  -2.897  0.00  0.00     0.035 A 
ATOM     17  H   UNL d   1      31.694 -16.563  -2.590  0.00  0.00     0.189 HD
ATOM     18  C   UNL d   1      29.384 -16.670  -4.351  0.00  0.00     0.070 C 
BRANCH  13  19
ATOM     19  O   UNL d   1      28.840 -16.030   0.511  0.00  0.00    -0.343 OA
ATOM     20  H   UNL d   1      29.053 -16.846   1.003  0.00  0.00     0.219 HD
ENDBRANCH  13  19
ENDBRANCH   1  12
BRANCH   1  21
ATOM     21  C   UNL d   1      26.366 -17.073  -1.166  0.00  0.00     0.033 C 
ATOM     22  C   UNL d   1      24.972 -16.937  -0.887  0.00  0.00     0.062 C 
ATOM     23  C   UNL d   1      24.051 -15.950  -1.542  0.00  0.00     0.073 C 
ATOM     24  N   UNL d   1      24.625 -17.607   0.230  0.00  0.00    -0.177 NA
ATOM     25  N   UNL d   1      25.789 -18.131   0.662  0.00  0.00    -0.256 N 
ATOM     26  C   UNL d   1      26.835 -17.968  -0.198  0.00  0.00     0.166 C 
ATOM     27  H   UNL d   1      25.815 -18.582   1.577  0.00  0.00     0.191 HD
BRANCH  26  28
ATOM     28  O   UNL d   1      28.029 -18.498  -0.036  0.00  0.00    -0.345 OA
ATOM     29  H   UNL d   1      28.521 -18.148   0.734  0.00  0.00     0.219 HD
ENDBRANCH  26  28
ENDBRANCH   1  21
TORSDOF 7
ENDMDL
MODEL 6
REMARK VINA RESULT:    -5.379      1.709      2.487
REMARK INTER + INTRA:         -11.376
REMARK INTER:                  -7.467
REMARK INTRA:                  -3.909
REMARK CONF_INDEPENDENT:        2.088
REMARK UNBOUND:                -3.909
REMARK  7 active torsions:
REMARK  status: ('A' for Active; 'I' for Inactive)
REMARK    1  A    between atoms: O_2  and  C_3 
REMARK    2  A    between atoms: C_7  and  C_8 
REMARK    3  A    between atoms: C_8  and  C_9 
REMARK    4  A    between atoms: C_8  and  C_16 
REMARK    5  A    between atoms: C_10  and  O_11 
REMARK    6  A    between atoms: C_21  and  O_22 
REMARK    7  A    between atoms: C_23  and  O_24 
ROOT
ATOM      1  C   UNL d   1      27.936 -13.882  -3.145  0.00  0.00     0.100 C 
ENDROOT
BRANCH   1   2
ATOM      2  C   UNL d   1      27.190 -15.051  -2.459  0.00  0.00    -0.009 A 
ATOM      3  C   UNL d   1      27.966 -15.908  -1.643  0.00  0.00     0.011 A 
ATOM      4  C   UNL d   1      27.365 -16.921  -0.910  0.00  0.00     0.003 A 
ATOM      5  C   UNL d   1      25.977 -17.083  -0.966  0.00  0.00     0.039 A 
ATOM      6  C   UNL d   1      25.166 -16.264  -1.773  0.00  0.00     0.102 A 
ATOM      7  C   UNL d   1      25.786 -15.291  -2.566  0.00  0.00     0.108 A 
BRANCH   6   8
ATOM      8  O   UNL d   1      23.818 -16.394  -1.545  0.00  0.00    -0.353 OA
ATOM      9  C   UNL d   1      23.343 -17.500  -0.792  0.00  0.00     0.210 C 
ENDBRANCH   6   8
BRANCH   7  10
ATOM     10  O   UNL d   1      25.214 -14.561  -3.555  0.00  0.00    -0.353 OA
ATOM     11  C   UNL d   1      23.897 -14.075  -3.522  0.00  0.00     0.210 C 
ENDBRANCH   7  10
ENDBRANCH   1   2
BRANCH   1  12
ATOM     12  C   UNL d   1      28.420 -14.451  -4.420  0.00  0.00     0.033 A 
ATOM     13  C   UNL d   1      27.739 -15.200  -5.395  0.00  0.00     0.190 A 
ATOM     14  N   UNL d   1      28.490 -15.499  -6.446  0.00  0.00    -0.149 NA
ATOM     15  N   UNL d   1      29.674 -14.927  -6.145  0.00  0.00    -0.280 N 
ATOM     16  C   UNL d   1      29.688 -14.293  -4.932  0.00  0.00     0.035 A 
ATOM     17  H   UNL d   1      30.427 -15.020  -6.814  0.00  0.00     0.189 HD
ATOM     18  C   UNL d   1      30.831 -13.578  -4.323  0.00  0.00     0.070 C 
BRANCH  13  19
ATOM     19  O   UNL d   1      26.453 -15.575  -5.417  0.00  0.00    -0.343 OA
ATOM     20  H   UNL d   1      25.930 -14.882  -4.973  0.00  0.00     0.219 HD
ENDBRANCH  13  19
ENDBRANCH   1  12
BRANCH   1  21
ATOM     21  C   UNL d   1      27.121 -12.639  -3.318  0.00  0.00     0.033 C 
ATOM     22  C   UNL d   1      26.949 -11.604  -2.348  0.00  0.00     0.062 C 
ATOM     23  C   UNL d   1      27.524 -11.613  -0.962  0.00  0.00     0.073 C 
ATOM     24  N   UNL d   1      25.984 -10.738  -2.717  0.00  0.00    -0.177 NA
ATOM     25  N   UNL d   1      25.537 -11.239  -3.886  0.00  0.00    -0.256 N 
ATOM     26  C   UNL d   1      26.266 -12.286  -4.367  0.00  0.00     0.166 C 
ATOM     27  H   UNL d   1      24.704 -10.829  -4.309  0.00  0.00     0.191 HD
BRANCH  26  28
ATOM     28  O   UNL d   1      26.082 -12.851  -5.541  0.00  0.00    -0.345 OA
ATOM     29  H   UNL d   1      25.491 -13.632  -5.522  0.00  0.00     0.219 HD
ENDBRANCH  26  28
ENDBRANCH   1  21
TORSDOF 7
ENDMDL
MODEL 7
REMARK VINA RESULT:    -4.724      2.377      5.284
REMARK INTER + INTRA:         -10.509
REMARK INTER:                  -6.812
REMARK INTRA:                  -3.697
REMARK CONF_INDEPENDENT:        2.088
REMARK UNBOUND:                -3.697
REMARK  7 active torsions:
REMARK  status: ('A' for Active; 'I' for Inactive)
REMARK    1  A    between atoms: O_2  and  C_3 
REMARK    2  A    between atoms: C_7  and  C_8 
REMARK    3  A    between atoms: C_8  and  C_9 
REMARK    4  A    between atoms: C_8  and  C_16 
REMARK    5  A    between atoms: C_10  and  O_11 
REMARK    6  A    between atoms: C_21  and  O_22 
REMARK    7  A    between atoms: C_23  and  O_24 
ROOT
ATOM      1  C   UNL d   1      27.118 -15.154  -2.293  0.00  0.00     0.100 C 
ENDROOT
BRANCH   1   2
ATOM      2  C   UNL d   1      27.123 -13.679  -1.828  0.00  0.00    -0.009 A 
ATOM      3  C   UNL d   1      27.506 -13.438  -0.486  0.00  0.00     0.011 A 
ATOM      4  C   UNL d   1      27.637 -12.141  -0.010  0.00  0.00     0.003 A 
ATOM      5  C   UNL d   1      27.405 -11.064  -0.871  0.00  0.00     0.039 A 
ATOM      6  C   UNL d   1      27.010 -11.254  -2.208  0.00  0.00     0.102 A 
ATOM      7  C   UNL d   1      26.809 -12.563  -2.661  0.00  0.00     0.108 A 
BRANCH   6   8
ATOM      8  O   UNL d   1      27.047 -10.119  -2.981  0.00  0.00    -0.353 OA
ATOM      9  C   UNL d   1      25.894  -9.293  -3.060  0.00  0.00     0.210 C 
ENDBRANCH   6   8
BRANCH   7  10
ATOM     10  O   UNL d   1      26.231 -12.940  -3.829  0.00  0.00    -0.353 OA
ATOM     11  C   UNL d   1      26.192 -12.149  -4.987  0.00  0.00     0.210 C 
ENDBRANCH   7  10
ENDBRANCH   1   2
BRANCH   1  12
ATOM     12  C   UNL d   1      25.800 -15.670  -1.869  0.00  0.00     0.033 A 
ATOM     13  C   UNL d   1      24.507 -15.203  -2.159  0.00  0.00     0.190 A 
ATOM     14  N   UNL d   1      23.547 -15.958  -1.642  0.00  0.00    -0.149 NA
ATOM     15  N   UNL d   1      24.236 -16.933  -1.011  0.00  0.00    -0.280 N 
ATOM     16  C   UNL d   1      25.594 -16.799  -1.107  0.00  0.00     0.035 A 
ATOM     17  H   UNL d   1      23.707 -17.647  -0.530  0.00  0.00     0.189 HD
ATOM     18  C   UNL d   1      26.613 -17.699  -0.525  0.00  0.00     0.070 C 
BRANCH  13  19
ATOM     19  O   UNL d   1      24.142 -14.166  -2.924  0.00  0.00    -0.343 OA
ATOM     20  H   UNL d   1      24.947 -13.795  -3.332  0.00  0.00     0.219 HD
ENDBRANCH  13  19
ENDBRANCH   1  12
BRANCH   1  21
ATOM     21  C   UNL d   1      27.392 -15.347  -3.752  0.00  0.00     0.033 C 
ATOM     22  C   UNL d   1      28.678 -15.509  -4.352  0.00  0.00     0.062 C 
ATOM     23  C   UNL d   1      29.987 -15.464  -3.619  0.00  0.00     0.073 C 
ATOM     24  N   UNL d   1      28.608 -15.434  -5.696  0.00  0.00    -0.177 NA
ATOM     25  N   UNL d   1      27.302 -15.199  -5.934  0.00  0.00    -0.256 N 
ATOM     26  C   UNL d   1      26.504 -15.276  -4.831  0.00  0.00     0.166 C 
ATOM     27  H   UNL d   1      27.009 -14.970  -6.885  0.00  0.00     0.191 HD
BRANCH  26  28
ATOM     28  O   UNL d   1      25.191 -15.198  -4.848  0.00  0.00    -0.345 OA
ATOM     29  H   UNL d   1      24.843 -14.283  -4.856  0.00  0.00     0.219 HD
ENDBRANCH  26  28
ENDBRANCH   1  21
TORSDOF 7
ENDMDL
MODEL 8
REMARK VINA RESULT:    -4.549     10.169     12.914
REMARK INTER + INTRA:         -10.452
REMARK INTER:                  -6.637
REMARK INTRA:                  -3.815
REMARK CONF_INDEPENDENT:        2.088
REMARK UNBOUND:                -3.815
REMARK  7 active torsions:
REMARK  status: ('A' for Active; 'I' for Inactive)
REMARK    1  A    between atoms: O_2  and  C_3 
REMARK    2  A    between atoms: C_7  and  C_8 
REMARK    3  A    between atoms: C_8  and  C_9 
REMARK    4  A    between atoms: C_8  and  C_16 
REMARK    5  A    between atoms: C_10  and  O_11 
REMARK    6  A    between atoms: C_21  and  O_22 
REMARK    7  A    between atoms: C_23  and  O_24 
ROOT
ATOM      1  C   UNL d   1      30.564 -13.221   9.166  0.00  0.00     0.100 C 
ENDROOT
BRANCH   1   2
ATOM      2  C   UNL d   1      29.910 -13.045   7.775  0.00  0.00    -0.009 A 
ATOM      3  C   UNL d   1      30.090 -14.101   6.851  0.00  0.00     0.011 A 
ATOM      4  C   UNL d   1      29.458 -14.076   5.616  0.00  0.00     0.003 A 
ATOM      5  C   UNL d   1      28.621 -13.004   5.292  0.00  0.00     0.039 A 
ATOM      6  C   UNL d   1      28.422 -11.925   6.172  0.00  0.00     0.102 A 
ATOM      7  C   UNL d   1      29.120 -11.921   7.386  0.00  0.00     0.108 A 
BRANCH   6   8
ATOM      8  O   UNL d   1      27.405 -11.075   5.814  0.00  0.00    -0.353 OA
ATOM      9  C   UNL d   1      27.524 -10.313   4.620  0.00  0.00     0.210 C 
ENDBRANCH   6   8
BRANCH   7  10
ATOM     10  O   UNL d   1      29.229 -10.889   8.259  0.00  0.00    -0.353 OA
ATOM     11  C   UNL d   1      29.280  -9.536   7.886  0.00  0.00     0.210 C 
ENDBRANCH   7  10
ENDBRANCH   1   2
BRANCH   1  12
ATOM     12  C   UNL d   1      31.349 -11.985   9.365  0.00  0.00     0.033 A 
ATOM     13  C   UNL d   1      31.083 -10.861  10.165  0.00  0.00     0.190 A 
ATOM     14  N   UNL d   1      32.051  -9.954  10.134  0.00  0.00    -0.149 NA
ATOM     15  N   UNL d   1      32.958 -10.508   9.302  0.00  0.00    -0.280 N 
ATOM     16  C   UNL d   1      32.579 -11.724   8.803  0.00  0.00     0.035 A 
ATOM     17  H   UNL d   1      33.806  -9.989   9.118  0.00  0.00     0.189 HD
ATOM     18  C   UNL d   1      33.350 -12.575   7.871  0.00  0.00     0.070 C 
BRANCH  13  19
ATOM     19  O   UNL d   1      30.042 -10.637  10.976  0.00  0.00    -0.343 OA
ATOM     20  H   UNL d   1      29.280 -10.380  10.424  0.00  0.00     0.219 HD
ENDBRANCH  13  19
ENDBRANCH   1  12
BRANCH   1  21
ATOM     21  C   UNL d   1      29.599 -13.499  10.277  0.00  0.00     0.033 C 
ATOM     22  C   UNL d   1      29.708 -14.544  11.244  0.00  0.00     0.062 C 
ATOM     23  C   UNL d   1      30.794 -15.579  11.281  0.00  0.00     0.073 C 
ATOM     24  N   UNL d   1      28.576 -14.670  11.964  0.00  0.00    -0.177 NA
ATOM     25  N   UNL d   1      27.757 -13.737  11.436  0.00  0.00    -0.256 N 
ATOM     26  C   UNL d   1      28.352 -12.914  10.526  0.00  0.00     0.166 C 
ATOM     27  H   UNL d   1      26.779 -13.720  11.728  0.00  0.00     0.191 HD
BRANCH  26  28
ATOM     28  O   UNL d   1      27.778 -11.866   9.975  0.00  0.00    -0.345 OA
ATOM     29  H   UNL d   1      28.405 -11.169   9.691  0.00  0.00     0.219 HD
ENDBRANCH  26  28
ENDBRANCH   1  21
TORSDOF 7
ENDMDL
MODEL 9
REMARK VINA RESULT:    -4.293      2.559      5.305
REMARK INTER + INTRA:         -10.186
REMARK INTER:                  -6.381
REMARK INTRA:                  -3.805
REMARK CONF_INDEPENDENT:        2.088
REMARK UNBOUND:                -3.805
REMARK  7 active torsions:
REMARK  status: ('A' for Active; 'I' for Inactive)
REMARK    1  A    between atoms: O_2  and  C_3 
REMARK    2  A    between atoms: C_7  and  C_8 
REMARK    3  A    between atoms: C_8  and  C_9 
REMARK    4  A    between atoms: C_8  and  C_16 
REMARK    5  A    between atoms: C_10  and  O_11 
REMARK    6  A    between atoms: C_21  and  O_22 
REMARK    7  A    between atoms: C_23  and  O_24 
ROOT
ATOM      1  C   UNL d   1      27.790 -15.892  -1.505  0.00  0.00     0.100 C 
ENDROOT
BRANCH   1   2
ATOM      2  C   UNL d   1      28.473 -16.019  -2.887  0.00  0.00    -0.009 A 
ATOM      3  C   UNL d   1      29.510 -16.977  -2.997  0.00  0.00     0.011 A 
ATOM      4  C   UNL d   1      30.111 -17.230  -4.222  0.00  0.00     0.003 A 
ATOM      5  C   UNL d   1      29.674 -16.544  -5.359  0.00  0.00     0.039 A 
ATOM      6  C   UNL d   1      28.658 -15.574  -5.296  0.00  0.00     0.102 A 
ATOM      7  C   UNL d   1      28.106 -15.270  -4.046  0.00  0.00     0.108 A 
BRANCH   6   8
ATOM      8  O   UNL d   1      28.186 -15.161  -6.518  0.00  0.00    -0.353 OA
ATOM      9  C   UNL d   1      28.905 -14.175  -7.245  0.00  0.00     0.210 C 
ENDBRANCH   6   8
BRANCH   7  10
ATOM     10  O   UNL d   1      27.284 -14.233  -3.749  0.00  0.00    -0.353 OA
ATOM     11  C   UNL d   1      27.072 -13.124  -4.583  0.00  0.00     0.210 C 
ENDBRANCH   7  10
ENDBRANCH   1   2
BRANCH   1  12
ATOM     12  C   UNL d   1      27.875 -14.453  -1.181  0.00  0.00     0.033 A 
ATOM     13  C   UNL d   1      26.899 -13.446  -1.263  0.00  0.00     0.190 A 
ATOM     14  N   UNL d   1      27.325 -12.265  -0.834  0.00  0.00    -0.149 NA
ATOM     15  N   UNL d   1      28.598 -12.520  -0.464  0.00  0.00    -0.280 N 
ATOM     16  C   UNL d   1      28.982 -13.817  -0.663  0.00  0.00     0.035 A 
ATOM     17  H   UNL d   1      29.142 -11.752  -0.093  0.00  0.00     0.189 HD
ATOM     18  C   UNL d   1      30.306 -14.402  -0.361  0.00  0.00     0.070 C 
BRANCH  13  19
ATOM     19  O   UNL d   1      25.619 -13.548  -1.645  0.00  0.00    -0.343 OA
ATOM     20  H   UNL d   1      25.601 -13.636  -2.616  0.00  0.00     0.219 HD
ENDBRANCH  13  19
ENDBRANCH   1  12
BRANCH   1  21
ATOM     21  C   UNL d   1      26.396 -16.435  -1.448  0.00  0.00     0.033 C 
ATOM     22  C   UNL d   1      25.873 -17.308  -0.446  0.00  0.00     0.062 C 
ATOM     23  C   UNL d   1      26.655 -17.872   0.704  0.00  0.00     0.073 C 
ATOM     24  N   UNL d   1      24.666 -17.793  -0.796  0.00  0.00    -0.177 NA
ATOM     25  N   UNL d   1      24.447 -17.256  -2.013  0.00  0.00    -0.256 N 
ATOM     26  C   UNL d   1      25.372 -16.330  -2.395  0.00  0.00     0.166 C 
ATOM     27  H   UNL d   1      23.645 -17.578  -2.555  0.00  0.00     0.191 HD
BRANCH  26  28
ATOM     28  O   UNL d   1      25.293 -15.598  -3.486  0.00  0.00    -0.345 OA
ATOM     29  H   UNL d   1      25.766 -14.743  -3.430  0.00  0.00     0.219 HD
ENDBRANCH  26  28
ENDBRANCH   1  21
TORSDOF 7
ENDMDL
