MODEL 1
REMARK VINA RESULT:    -7.687      0.000      0.000
REMARK INTER + INTRA:         -15.064
REMARK INTER:                 -11.565
REMARK INTRA:                  -3.498
REMARK CONF_INDEPENDENT:        3.878
REMARK UNBOUND:                -3.498
REMARK  13 active torsions:
REMARK  status: ('A' for Active; 'I' for Inactive)
REMARK    1  A    between atoms: C_2  and  O_3 
REMARK    2  A    between atoms: O_3  and  C_4 
REMARK    3  A    between atoms: C_4  and  C_6 
REMARK    4  A    between atoms: C_10  and  N_11 
REMARK    5  A    between atoms: C_15  and  C_16 
REMARK    6  A    between atoms: N_17  and  N_18 
REMARK       I    between atoms: N_18  and  C_19 
REMARK    7  A    between atoms: C_19  and  C_21 
REMARK    8  A    between atoms: C_21  and  C_22 
REMARK    9  A    between atoms: C_22  and  C_23 
REMARK   10  A    between atoms: C_23  and  O_24 
REMARK   11  A    between atoms: C_23  and  C_25 
REMARK   12  A    between atoms: C_28  and  O_29 
REMARK   13  A    between atoms: O_29  and  C_30 
ROOT
ATOM      1  C   UNL d   1      27.555 -13.624  -6.073  0.00  0.00     0.152 C 
ATOM      2  N   UNL d   1      27.405 -14.920  -6.041  0.00  0.00    -0.184 NA
ENDROOT
BRANCH   1   3
ATOM      3  C   UNL d   1      27.367 -12.660  -4.987  0.00  0.00     0.008 A 
ATOM      4  C   UNL d   1      26.445 -11.592  -4.851  0.00  0.00     0.040 A 
ATOM      5  C   UNL d   1      26.601 -10.980  -3.642  0.00  0.00     0.014 A 
ATOM      6  N   UNL d   1      27.598 -11.644  -2.980  0.00  0.00    -0.319 N 
ATOM      7  C   UNL d   1      25.838  -9.786  -3.197  0.00  0.00     0.068 C 
ATOM      8  C   UNL d   1      28.114 -12.642  -3.802  0.00  0.00     0.025 A 
ATOM      9  C   UNL d   1      29.216 -13.539  -3.327  0.00  0.00     0.070 C 
BRANCH   6  10
ATOM     10  C   UNL d   1      27.965 -11.408  -1.648  0.00  0.00     0.040 A 
ATOM     11  C   UNL d   1      28.652 -10.235  -1.333  0.00  0.00     0.030 A 
ATOM     12  C   UNL d   1      28.951  -9.981  -0.001  0.00  0.00     0.003 A 
ATOM     13  C   UNL d   1      28.608 -10.918   0.982  0.00  0.00     0.018 A 
ATOM     14  C   UNL d   1      27.905 -12.091   0.653  0.00  0.00     0.041 A 
ATOM     15  C   UNL d   1      27.576 -12.338  -0.675  0.00  0.00     0.047 A 
BRANCH  14  16
ATOM     16  C   UNL d   1      27.388 -12.963   1.733  0.00  0.00     0.293 C 
ATOM     17  O   UNL d   1      26.282 -12.787   2.230  0.00  0.00    -0.259 OA
BRANCH  16  18
ATOM     18  O   UNL d   1      28.272 -13.936   2.077  0.00  0.00    -0.318 OA
BRANCH  18  19
ATOM     19  C   UNL d   1      27.948 -14.601   3.313  0.00  0.00     0.174 C 
ATOM     20  C   UNL d   1      28.687 -13.944   4.468  0.00  0.00     0.034 C 
ENDBRANCH  18  19
ENDBRANCH  16  18
ENDBRANCH  14  16
ENDBRANCH   6  10
ENDBRANCH   1   3
BRANCH   2  21
ATOM     21  N   UNL d   1      27.024 -15.536  -4.900  0.00  0.00    -0.247 N 
ATOM     22  C   UNL d   1      25.853 -15.269  -4.241  0.00  0.00     0.237 C 
ATOM     23  O   UNL d   1      25.014 -14.452  -4.606  0.00  0.00    -0.272 OA
ATOM     24  H   UNL d   1      27.610 -16.216  -4.482  0.00  0.00     0.192 HD
BRANCH  22  25
ATOM     25  C   UNL d   1      25.710 -16.123  -2.979  0.00  0.00     0.107 C 
BRANCH  25  26
ATOM     26  C   UNL d   1      26.162 -15.289  -1.793  0.00  0.00     0.046 C 
BRANCH  26  27
ATOM     27  C   UNL d   1      25.896 -15.922  -0.427  0.00  0.00     0.151 C 
BRANCH  27  28
ATOM     28  O   UNL d   1      25.734 -14.856   0.514  0.00  0.00    -0.391 OA
ATOM     29  H   UNL d   1      26.631 -14.605   0.802  0.00  0.00     0.210 HD
ENDBRANCH  27  28
BRANCH  27  30
ATOM     30  C   UNL d   1      24.654 -16.795  -0.489  0.00  0.00    -0.029 A 
ATOM     31  C   UNL d   1      24.746 -18.191  -0.351  0.00  0.00     0.012 A 
ATOM     32  C   UNL d   1      23.636 -19.010  -0.570  0.00  0.00     0.037 A 
ATOM     33  C   UNL d   1      22.385 -18.447  -0.810  0.00  0.00     0.068 A 
ATOM     34  C   UNL d   1      22.272 -17.059  -0.895  0.00  0.00     0.037 A 
ATOM     35  C   UNL d   1      23.391 -16.242  -0.729  0.00  0.00     0.012 A 
BRANCH  33  36
ATOM     36  O   UNL d   1      21.347 -19.333  -0.919  0.00  0.00    -0.352 OA
BRANCH  36  37
ATOM     37  C   UNL d   1      20.414 -19.327   0.163  0.00  0.00     0.171 C 
ATOM     38  C   UNL d   1      19.887 -20.734   0.371  0.00  0.00     0.034 C 
ENDBRANCH  36  37
ENDBRANCH  33  36
ENDBRANCH  27  30
ENDBRANCH  26  27
ENDBRANCH  25  26
ENDBRANCH  22  25
ENDBRANCH   2  21
TORSDOF 13
ENDMDL
MODEL 2
REMARK VINA RESULT:    -7.584      3.376      6.093
REMARK INTER + INTRA:         -15.444
REMARK INTER:                 -11.462
REMARK INTRA:                  -3.982
REMARK CONF_INDEPENDENT:        3.878
REMARK UNBOUND:                -3.982
REMARK  13 active torsions:
REMARK  status: ('A' for Active; 'I' for Inactive)
REMARK    1  A    between atoms: C_2  and  O_3 
REMARK    2  A    between atoms: O_3  and  C_4 
REMARK    3  A    between atoms: C_4  and  C_6 
REMARK    4  A    between atoms: C_10  and  N_11 
REMARK    5  A    between atoms: C_15  and  C_16 
REMARK    6  A    between atoms: N_17  and  N_18 
REMARK       I    between atoms: N_18  and  C_19 
REMARK    7  A    between atoms: C_19  and  C_21 
REMARK    8  A    between atoms: C_21  and  C_22 
REMARK    9  A    between atoms: C_22  and  C_23 
REMARK   10  A    between atoms: C_23  and  O_24 
REMARK   11  A    between atoms: C_23  and  C_25 
REMARK   12  A    between atoms: C_28  and  O_29 
REMARK   13  A    between atoms: O_29  and  C_30 
ROOT
ATOM      1  C   UNL d   1      32.626 -17.241  -0.750  0.00  0.00     0.152 C 
ATOM      2  N   UNL d   1      32.142 -16.938   0.423  0.00  0.00    -0.184 NA
ENDROOT
BRANCH   1   3
ATOM      3  C   UNL d   1      31.911 -17.378  -2.020  0.00  0.00     0.008 A 
ATOM      4  C   UNL d   1      31.582 -18.533  -2.773  0.00  0.00     0.040 A 
ATOM      5  C   UNL d   1      30.864 -18.191  -3.881  0.00  0.00     0.014 A 
ATOM      6  N   UNL d   1      30.703 -16.832  -3.852  0.00  0.00    -0.319 N 
ATOM      7  C   UNL d   1      30.408 -19.149  -4.920  0.00  0.00     0.068 C 
ATOM      8  C   UNL d   1      31.377 -16.310  -2.751  0.00  0.00     0.025 A 
ATOM      9  C   UNL d   1      31.361 -14.840  -2.464  0.00  0.00     0.070 C 
BRANCH   6  10
ATOM     10  C   UNL d   1      29.902 -16.105  -4.744  0.00  0.00     0.040 A 
ATOM     11  C   UNL d   1      30.411 -15.782  -6.002  0.00  0.00     0.030 A 
ATOM     12  C   UNL d   1      29.586 -15.120  -6.900  0.00  0.00     0.003 A 
ATOM     13  C   UNL d   1      28.291 -14.748  -6.514  0.00  0.00     0.018 A 
ATOM     14  C   UNL d   1      27.786 -15.090  -5.247  0.00  0.00     0.041 A 
ATOM     15  C   UNL d   1      28.597 -15.779  -4.353  0.00  0.00     0.047 A 
BRANCH  14  16
ATOM     16  C   UNL d   1      26.355 -14.856  -4.942  0.00  0.00     0.293 C 
ATOM     17  O   UNL d   1      25.530 -15.762  -4.982  0.00  0.00    -0.259 OA
BRANCH  16  18
ATOM     18  O   UNL d   1      26.101 -13.559  -4.628  0.00  0.00    -0.318 OA
BRANCH  18  19
ATOM     19  C   UNL d   1      25.389 -13.393  -3.386  0.00  0.00     0.174 C 
ATOM     20  C   UNL d   1      26.279 -12.706  -2.362  0.00  0.00     0.034 C 
ENDBRANCH  18  19
ENDBRANCH  16  18
ENDBRANCH  14  16
ENDBRANCH   6  10
ENDBRANCH   1   3
BRANCH   2  21
ATOM     21  N   UNL d   1      30.819 -16.709   0.578  0.00  0.00    -0.247 N 
ATOM     22  C   UNL d   1      30.257 -15.460   0.607  0.00  0.00     0.237 C 
ATOM     23  O   UNL d   1      30.878 -14.409   0.490  0.00  0.00    -0.272 OA
ATOM     24  H   UNL d   1      30.193 -17.469   0.694  0.00  0.00     0.192 HD
BRANCH  22  25
ATOM     25  C   UNL d   1      28.740 -15.530   0.802  0.00  0.00     0.107 C 
BRANCH  25  26
ATOM     26  C   UNL d   1      28.084 -15.433  -0.564  0.00  0.00     0.046 C 
BRANCH  26  27
ATOM     27  C   UNL d   1      27.749 -16.777  -1.210  0.00  0.00     0.151 C 
BRANCH  27  28
ATOM     28  O   UNL d   1      28.562 -17.770  -0.578  0.00  0.00    -0.391 OA
ATOM     29  H   UNL d   1      28.280 -17.804   0.355  0.00  0.00     0.210 HD
ENDBRANCH  27  28
BRANCH  27  30
ATOM     30  C   UNL d   1      26.270 -17.085  -1.037  0.00  0.00    -0.029 A 
ATOM     31  C   UNL d   1      25.290 -16.234  -1.575  0.00  0.00     0.012 A 
ATOM     32  C   UNL d   1      23.936 -16.420  -1.281  0.00  0.00     0.037 A 
ATOM     33  C   UNL d   1      23.525 -17.528  -0.546  0.00  0.00     0.068 A 
ATOM     34  C   UNL d   1      24.486 -18.410  -0.053  0.00  0.00     0.037 A 
ATOM     35  C   UNL d   1      25.843 -18.195  -0.302  0.00  0.00     0.012 A 
BRANCH  33  36
ATOM     36  O   UNL d   1      22.170 -17.668  -0.392  0.00  0.00    -0.352 OA
BRANCH  36  37
ATOM     37  C   UNL d   1      21.734 -18.927   0.119  0.00  0.00     0.171 C 
ATOM     38  C   UNL d   1      20.447 -19.325  -0.575  0.00  0.00     0.034 C 
ENDBRANCH  36  37
ENDBRANCH  33  36
ENDBRANCH  27  30
ENDBRANCH  26  27
ENDBRANCH  25  26
ENDBRANCH  22  25
ENDBRANCH   2  21
TORSDOF 13
ENDMDL
MODEL 3
REMARK VINA RESULT:    -7.566      2.777      5.081
REMARK INTER + INTRA:         -15.438
REMARK INTER:                 -11.444
REMARK INTRA:                  -3.994
REMARK CONF_INDEPENDENT:        3.878
REMARK UNBOUND:                -3.994
REMARK  13 active torsions:
REMARK  status: ('A' for Active; 'I' for Inactive)
REMARK    1  A    between atoms: C_2  and  O_3 
REMARK    2  A    between atoms: O_3  and  C_4 
REMARK    3  A    between atoms: C_4  and  C_6 
REMARK    4  A    between atoms: C_10  and  N_11 
REMARK    5  A    between atoms: C_15  and  C_16 
REMARK    6  A    between atoms: N_17  and  N_18 
REMARK       I    between atoms: N_18  and  C_19 
REMARK    7  A    between atoms: C_19  and  C_21 
REMARK    8  A    between atoms: C_21  and  C_22 
REMARK    9  A    between atoms: C_22  and  C_23 
REMARK   10  A    between atoms: C_23  and  O_24 
REMARK   11  A    between atoms: C_23  and  C_25 
REMARK   12  A    between atoms: C_28  and  O_29 
REMARK   13  A    between atoms: O_29  and  C_30 
ROOT
ATOM      1  C   UNL d   1      31.109 -14.313   1.283  0.00  0.00     0.152 C 
ATOM      2  N   UNL d   1      31.661 -15.480   1.100  0.00  0.00    -0.184 NA
ENDROOT
BRANCH   1   3
ATOM      3  C   UNL d   1      29.750 -13.885   0.942  0.00  0.00     0.008 A 
ATOM      4  C   UNL d   1      28.643 -13.583   1.773  0.00  0.00     0.040 A 
ATOM      5  C   UNL d   1      27.580 -13.179   1.020  0.00  0.00     0.014 A 
ATOM      6  N   UNL d   1      27.983 -13.195  -0.288  0.00  0.00    -0.319 N 
ATOM      7  C   UNL d   1      26.240 -12.843   1.565  0.00  0.00     0.068 C 
ATOM      8  C   UNL d   1      29.290 -13.670  -0.363  0.00  0.00     0.025 A 
ATOM      9  C   UNL d   1      29.994 -13.784  -1.680  0.00  0.00     0.070 C 
BRANCH   6  10
ATOM     10  C   UNL d   1      27.223 -12.714  -1.363  0.00  0.00     0.040 A 
ATOM     11  C   UNL d   1      27.361 -11.379  -1.746  0.00  0.00     0.030 A 
ATOM     12  C   UNL d   1      26.653 -10.931  -2.852  0.00  0.00     0.003 A 
ATOM     13  C   UNL d   1      25.786 -11.802  -3.525  0.00  0.00     0.018 A 
ATOM     14  C   UNL d   1      25.665 -13.148  -3.137  0.00  0.00     0.041 A 
ATOM     15  C   UNL d   1      26.393 -13.612  -2.047  0.00  0.00     0.047 A 
BRANCH  14  16
ATOM     16  C   UNL d   1      24.892 -14.088  -3.983  0.00  0.00     0.293 C 
ATOM     17  O   UNL d   1      23.718 -13.884  -4.266  0.00  0.00    -0.259 OA
BRANCH  16  18
ATOM     18  O   UNL d   1      25.636 -15.153  -4.380  0.00  0.00    -0.318 OA
BRANCH  18  19
ATOM     19  C   UNL d   1      26.617 -14.832  -5.386  0.00  0.00     0.174 C 
ATOM     20  C   UNL d   1      28.010 -14.837  -4.777  0.00  0.00     0.034 C 
ENDBRANCH  18  19
ENDBRANCH  16  18
ENDBRANCH  14  16
ENDBRANCH   6  10
ENDBRANCH   1   3
BRANCH   2  21
ATOM     21  N   UNL d   1      30.962 -16.484   0.525  0.00  0.00    -0.247 N 
ATOM     22  C   UNL d   1      30.960 -16.741  -0.820  0.00  0.00     0.237 C 
ATOM     23  O   UNL d   1      31.591 -16.103  -1.657  0.00  0.00    -0.272 OA
ATOM     24  H   UNL d   1      30.396 -17.079   1.080  0.00  0.00     0.192 HD
BRANCH  22  25
ATOM     25  C   UNL d   1      30.068 -17.937  -1.164  0.00  0.00     0.107 C 
BRANCH  25  26
ATOM     26  C   UNL d   1      28.742 -17.756  -0.447  0.00  0.00     0.046 C 
BRANCH  26  27
ATOM     27  C   UNL d   1      27.831 -16.685  -1.045  0.00  0.00     0.151 C 
BRANCH  27  28
ATOM     28  O   UNL d   1      28.075 -16.656  -2.455  0.00  0.00    -0.391 OA
ATOM     29  H   UNL d   1      27.398 -16.069  -2.839  0.00  0.00     0.210 HD
ENDBRANCH  27  28
BRANCH  27  30
ATOM     30  C   UNL d   1      26.376 -17.010  -0.746  0.00  0.00    -0.029 A 
ATOM     31  C   UNL d   1      26.025 -17.761   0.390  0.00  0.00     0.012 A 
ATOM     32  C   UNL d   1      24.714 -18.202   0.583  0.00  0.00     0.037 A 
ATOM     33  C   UNL d   1      23.704 -17.800  -0.287  0.00  0.00     0.068 A 
ATOM     34  C   UNL d   1      24.032 -17.009  -1.388  0.00  0.00     0.037 A 
ATOM     35  C   UNL d   1      25.352 -16.613  -1.611  0.00  0.00     0.012 A 
BRANCH  33  36
ATOM     36  O   UNL d   1      22.439 -18.210   0.043  0.00  0.00    -0.352 OA
BRANCH  36  37
ATOM     37  C   UNL d   1      21.695 -18.824  -1.010  0.00  0.00     0.171 C 
ATOM     38  C   UNL d   1      20.348 -19.266  -0.473  0.00  0.00     0.034 C 
ENDBRANCH  36  37
ENDBRANCH  33  36
ENDBRANCH  27  30
ENDBRANCH  26  27
ENDBRANCH  25  26
ENDBRANCH  22  25
ENDBRANCH   2  21
TORSDOF 13
ENDMDL
MODEL 4
REMARK VINA RESULT:    -7.406      2.048      6.734
REMARK INTER + INTRA:         -14.765
REMARK INTER:                 -11.284
REMARK INTRA:                  -3.481
REMARK CONF_INDEPENDENT:        3.878
REMARK UNBOUND:                -3.481
REMARK  13 active torsions:
REMARK  status: ('A' for Active; 'I' for Inactive)
REMARK    1  A    between atoms: C_2  and  O_3 
REMARK    2  A    between atoms: O_3  and  C_4 
REMARK    3  A    between atoms: C_4  and  C_6 
REMARK    4  A    between atoms: C_10  and  N_11 
REMARK    5  A    between atoms: C_15  and  C_16 
REMARK    6  A    between atoms: N_17  and  N_18 
REMARK       I    between atoms: N_18  and  C_19 
REMARK    7  A    between atoms: C_19  and  C_21 
REMARK    8  A    between atoms: C_21  and  C_22 
REMARK    9  A    between atoms: C_22  and  C_23 
REMARK   10  A    between atoms: C_23  and  O_24 
REMARK   11  A    between atoms: C_23  and  C_25 
REMARK   12  A    between atoms: C_28  and  O_29 
REMARK   13  A    between atoms: O_29  and  C_30 
ROOT
ATOM      1  C   UNL d   1      26.152 -12.519  -4.376  0.00  0.00     0.152 C 
ATOM      2  N   UNL d   1      27.043 -12.511  -5.329  0.00  0.00    -0.184 NA
ENDROOT
BRANCH   1   3
ATOM      3  C   UNL d   1      26.182 -13.254  -3.109  0.00  0.00     0.008 A 
ATOM      4  C   UNL d   1      26.425 -12.802  -1.788  0.00  0.00     0.040 A 
ATOM      5  C   UNL d   1      26.307 -13.835  -0.903  0.00  0.00     0.014 A 
ATOM      6  N   UNL d   1      25.973 -14.948  -1.626  0.00  0.00    -0.319 N 
ATOM      7  C   UNL d   1      26.555 -13.727   0.556  0.00  0.00     0.068 C 
ATOM      8  C   UNL d   1      25.939 -14.627  -2.981  0.00  0.00     0.025 A 
ATOM      9  C   UNL d   1      25.588 -15.658  -4.009  0.00  0.00     0.070 C 
BRANCH   6  10
ATOM     10  C   UNL d   1      25.626 -16.186  -1.069  0.00  0.00     0.040 A 
ATOM     11  C   UNL d   1      26.479 -16.769  -0.132  0.00  0.00     0.030 A 
ATOM     12  C   UNL d   1      26.094 -17.963   0.463  0.00  0.00     0.003 A 
ATOM     13  C   UNL d   1      24.895 -18.578   0.079  0.00  0.00     0.018 A 
ATOM     14  C   UNL d   1      24.038 -17.974  -0.858  0.00  0.00     0.041 A 
ATOM     15  C   UNL d   1      24.404 -16.763  -1.436  0.00  0.00     0.047 A 
BRANCH  14  16
ATOM     16  C   UNL d   1      22.693 -18.548  -1.097  0.00  0.00     0.293 C 
ATOM     17  O   UNL d   1      22.478 -19.324  -2.022  0.00  0.00    -0.259 OA
BRANCH  16  18
ATOM     18  O   UNL d   1      21.779 -18.114  -0.191  0.00  0.00    -0.318 OA
BRANCH  18  19
ATOM     19  C   UNL d   1      20.982 -19.171   0.379  0.00  0.00     0.174 C 
ATOM     20  C   UNL d   1      19.754 -19.420  -0.481  0.00  0.00     0.034 C 
ENDBRANCH  18  19
ENDBRANCH  16  18
ENDBRANCH  14  16
ENDBRANCH   6  10
ENDBRANCH   1   3
BRANCH   2  21
ATOM     21  N   UNL d   1      28.170 -13.249  -5.217  0.00  0.00    -0.247 N 
ATOM     22  C   UNL d   1      28.273 -14.552  -5.626  0.00  0.00     0.237 C 
ATOM     23  O   UNL d   1      27.368 -15.199  -6.143  0.00  0.00    -0.272 OA
ATOM     24  H   UNL d   1      28.983 -12.858  -4.808  0.00  0.00     0.192 HD
BRANCH  22  25
ATOM     25  C   UNL d   1      29.672 -15.116  -5.361  0.00  0.00     0.107 C 
BRANCH  25  26
ATOM     26  C   UNL d   1      30.039 -14.805  -3.920  0.00  0.00     0.046 C 
BRANCH  26  27
ATOM     27  C   UNL d   1      29.062 -15.348  -2.878  0.00  0.00     0.151 C 
BRANCH  27  28
ATOM     28  O   UNL d   1      29.145 -16.776  -2.919  0.00  0.00    -0.391 OA
ATOM     29  H   UNL d   1      28.372 -17.110  -2.427  0.00  0.00     0.210 HD
ENDBRANCH  27  28
BRANCH  27  30
ATOM     30  C   UNL d   1      29.419 -14.815  -1.500  0.00  0.00    -0.029 A 
ATOM     31  C   UNL d   1      29.530 -15.682  -0.399  0.00  0.00     0.012 A 
ATOM     32  C   UNL d   1      29.695 -15.183   0.895  0.00  0.00     0.037 A 
ATOM     33  C   UNL d   1      29.873 -13.817   1.103  0.00  0.00     0.068 A 
ATOM     34  C   UNL d   1      29.818 -12.953   0.010  0.00  0.00     0.037 A 
ATOM     35  C   UNL d   1      29.601 -13.446  -1.277  0.00  0.00     0.012 A 
BRANCH  33  36
ATOM     36  O   UNL d   1      30.118 -13.442   2.397  0.00  0.00    -0.352 OA
BRANCH  36  37
ATOM     37  C   UNL d   1      29.886 -14.446   3.385  0.00  0.00     0.171 C 
ATOM     38  C   UNL d   1      28.483 -14.284   3.937  0.00  0.00     0.034 C 
ENDBRANCH  36  37
ENDBRANCH  33  36
ENDBRANCH  27  30
ENDBRANCH  26  27
ENDBRANCH  25  26
ENDBRANCH  22  25
ENDBRANCH   2  21
TORSDOF 13
ENDMDL
MODEL 5
REMARK VINA RESULT:    -7.284      2.495      5.322
REMARK INTER + INTRA:         -15.042
REMARK INTER:                 -11.161
REMARK INTRA:                  -3.881
REMARK CONF_INDEPENDENT:        3.878
REMARK UNBOUND:                -3.881
REMARK  13 active torsions:
REMARK  status: ('A' for Active; 'I' for Inactive)
REMARK    1  A    between atoms: C_2  and  O_3 
REMARK    2  A    between atoms: O_3  and  C_4 
REMARK    3  A    between atoms: C_4  and  C_6 
REMARK    4  A    between atoms: C_10  and  N_11 
REMARK    5  A    between atoms: C_15  and  C_16 
REMARK    6  A    between atoms: N_17  and  N_18 
REMARK       I    between atoms: N_18  and  C_19 
REMARK    7  A    between atoms: C_19  and  C_21 
REMARK    8  A    between atoms: C_21  and  C_22 
REMARK    9  A    between atoms: C_22  and  C_23 
REMARK   10  A    between atoms: C_23  and  O_24 
REMARK   11  A    between atoms: C_23  and  C_25 
REMARK   12  A    between atoms: C_28  and  O_29 
REMARK   13  A    between atoms: O_29  and  C_30 
ROOT
ATOM      1  C   UNL d   1      30.277 -12.579   1.649  0.00  0.00     0.152 C 
ATOM      2  N   UNL d   1      30.331 -13.748   2.224  0.00  0.00    -0.184 NA
ENDROOT
BRANCH   1   3
ATOM      3  C   UNL d   1      29.820 -12.251   0.296  0.00  0.00     0.008 A 
ATOM      4  C   UNL d   1      30.495 -11.619  -0.777  0.00  0.00     0.040 A 
ATOM      5  C   UNL d   1      29.690 -11.560  -1.877  0.00  0.00     0.014 A 
ATOM      6  N   UNL d   1      28.506 -12.161  -1.543  0.00  0.00    -0.319 N 
ATOM      7  C   UNL d   1      30.060 -10.909  -3.159  0.00  0.00     0.068 C 
ATOM      8  C   UNL d   1      28.546 -12.546  -0.205  0.00  0.00     0.025 A 
ATOM      9  C   UNL d   1      27.382 -13.243   0.431  0.00  0.00     0.070 C 
BRANCH   6  10
ATOM     10  C   UNL d   1      27.465 -12.427  -2.442  0.00  0.00     0.040 A 
ATOM     11  C   UNL d   1      26.516 -11.436  -2.691  0.00  0.00     0.030 A 
ATOM     12  C   UNL d   1      25.528 -11.687  -3.633  0.00  0.00     0.003 A 
ATOM     13  C   UNL d   1      25.472 -12.933  -4.271  0.00  0.00     0.018 A 
ATOM     14  C   UNL d   1      26.442 -13.920  -4.019  0.00  0.00     0.041 A 
ATOM     15  C   UNL d   1      27.452 -13.665  -3.099  0.00  0.00     0.047 A 
BRANCH  14  16
ATOM     16  C   UNL d   1      26.469 -15.148  -4.849  0.00  0.00     0.293 C 
ATOM     17  O   UNL d   1      25.441 -15.670  -5.262  0.00  0.00    -0.259 OA
BRANCH  16  18
ATOM     18  O   UNL d   1      27.735 -15.589  -5.074  0.00  0.00    -0.318 OA
BRANCH  18  19
ATOM     19  C   UNL d   1      28.445 -14.825  -6.068  0.00  0.00     0.174 C 
ATOM     20  C   UNL d   1      29.792 -15.468  -6.356  0.00  0.00     0.034 C 
ENDBRANCH  18  19
ENDBRANCH  16  18
ENDBRANCH  14  16
ENDBRANCH   6  10
ENDBRANCH   1   3
BRANCH   2  21
ATOM     21  N   UNL d   1      29.937 -14.856   1.558  0.00  0.00    -0.247 N 
ATOM     22  C   UNL d   1      30.449 -15.245   0.349  0.00  0.00     0.237 C 
ATOM     23  O   UNL d   1      31.323 -14.644  -0.268  0.00  0.00    -0.272 OA
ATOM     24  H   UNL d   1      29.227 -15.437   1.935  0.00  0.00     0.192 HD
BRANCH  22  25
ATOM     25  C   UNL d   1      29.797 -16.536  -0.151  0.00  0.00     0.107 C 
BRANCH  25  26
ATOM     26  C   UNL d   1      28.299 -16.424   0.073  0.00  0.00     0.046 C 
BRANCH  26  27
ATOM     27  C   UNL d   1      27.482 -16.146  -1.189  0.00  0.00     0.151 C 
BRANCH  27  28
ATOM     28  O   UNL d   1      28.136 -16.809  -2.275  0.00  0.00    -0.391 OA
ATOM     29  H   UNL d   1      28.109 -16.192  -3.030  0.00  0.00     0.210 HD
ENDBRANCH  27  28
BRANCH  27  30
ATOM     30  C   UNL d   1      26.059 -16.651  -1.011  0.00  0.00    -0.029 A 
ATOM     31  C   UNL d   1      24.972 -15.949  -1.561  0.00  0.00     0.012 A 
ATOM     32  C   UNL d   1      23.657 -16.315  -1.264  0.00  0.00     0.037 A 
ATOM     33  C   UNL d   1      23.399 -17.460  -0.515  0.00  0.00     0.068 A 
ATOM     34  C   UNL d   1      24.472 -18.195  -0.009  0.00  0.00     0.037 A 
ATOM     35  C   UNL d   1      25.786 -17.800  -0.261  0.00  0.00     0.012 A 
BRANCH  33  36
ATOM     36  O   UNL d   1      22.077 -17.782  -0.359  0.00  0.00    -0.352 OA
BRANCH  36  37
ATOM     37  C   UNL d   1      21.763 -19.171  -0.467  0.00  0.00     0.171 C 
ATOM     38  C   UNL d   1      20.270 -19.326  -0.685  0.00  0.00     0.034 C 
ENDBRANCH  36  37
ENDBRANCH  33  36
ENDBRANCH  27  30
ENDBRANCH  26  27
ENDBRANCH  25  26
ENDBRANCH  22  25
ENDBRANCH   2  21
TORSDOF 13
ENDMDL
MODEL 6
REMARK VINA RESULT:    -7.081      2.902      5.798
REMARK INTER + INTRA:         -15.274
REMARK INTER:                 -10.959
REMARK INTRA:                  -4.316
REMARK CONF_INDEPENDENT:        3.878
REMARK UNBOUND:                -4.316
REMARK  13 active torsions:
REMARK  status: ('A' for Active; 'I' for Inactive)
REMARK    1  A    between atoms: C_2  and  O_3 
REMARK    2  A    between atoms: O_3  and  C_4 
REMARK    3  A    between atoms: C_4  and  C_6 
REMARK    4  A    between atoms: C_10  and  N_11 
REMARK    5  A    between atoms: C_15  and  C_16 
REMARK    6  A    between atoms: N_17  and  N_18 
REMARK       I    between atoms: N_18  and  C_19 
REMARK    7  A    between atoms: C_19  and  C_21 
REMARK    8  A    between atoms: C_21  and  C_22 
REMARK    9  A    between atoms: C_22  and  C_23 
REMARK   10  A    between atoms: C_23  and  O_24 
REMARK   11  A    between atoms: C_23  and  C_25 
REMARK   12  A    between atoms: C_28  and  O_29 
REMARK   13  A    between atoms: O_29  and  C_30 
ROOT
ATOM      1  C   UNL d   1      31.477 -14.819   1.517  0.00  0.00     0.152 C 
ATOM      2  N   UNL d   1      30.662 -14.329   2.410  0.00  0.00    -0.184 NA
ENDROOT
BRANCH   1   3
ATOM      3  C   UNL d   1      31.149 -15.533   0.281  0.00  0.00     0.008 A 
ATOM      4  C   UNL d   1      31.231 -16.911  -0.037  0.00  0.00     0.040 A 
ATOM      5  C   UNL d   1      30.774 -17.135  -1.304  0.00  0.00     0.014 A 
ATOM      6  N   UNL d   1      30.379 -15.925  -1.809  0.00  0.00    -0.319 N 
ATOM      7  C   UNL d   1      30.775 -18.457  -1.979  0.00  0.00     0.068 C 
ATOM      8  C   UNL d   1      30.645 -14.926  -0.876  0.00  0.00     0.025 A 
ATOM      9  C   UNL d   1      30.302 -13.496  -1.161  0.00  0.00     0.070 C 
BRANCH   6  10
ATOM     10  C   UNL d   1      29.722 -15.749  -3.034  0.00  0.00     0.040 A 
ATOM     11  C   UNL d   1      30.442 -15.914  -4.218  0.00  0.00     0.030 A 
ATOM     12  C   UNL d   1      29.766 -15.803  -5.425  0.00  0.00     0.003 A 
ATOM     13  C   UNL d   1      28.402 -15.481  -5.434  0.00  0.00     0.018 A 
ATOM     14  C   UNL d   1      27.686 -15.329  -4.233  0.00  0.00     0.041 A 
ATOM     15  C   UNL d   1      28.350 -15.468  -3.020  0.00  0.00     0.047 A 
BRANCH  14  16
ATOM     16  C   UNL d   1      26.212 -15.182  -4.274  0.00  0.00     0.293 C 
ATOM     17  O   UNL d   1      25.512 -15.895  -4.985  0.00  0.00    -0.259 OA
BRANCH  16  18
ATOM     18  O   UNL d   1      25.769 -14.195  -3.452  0.00  0.00    -0.318 OA
BRANCH  18  19
ATOM     19  C   UNL d   1      26.430 -12.932  -3.657  0.00  0.00     0.174 C 
ATOM     20  C   UNL d   1      26.326 -12.079  -2.403  0.00  0.00     0.034 C 
ENDBRANCH  18  19
ENDBRANCH  16  18
ENDBRANCH  14  16
ENDBRANCH   6  10
ENDBRANCH   1   3
BRANCH   2  21
ATOM     21  N   UNL d   1      29.325 -14.453   2.256  0.00  0.00    -0.247 N 
ATOM     22  C   UNL d   1      28.519 -13.470   1.746  0.00  0.00     0.237 C 
ATOM     23  O   UNL d   1      28.909 -12.371   1.366  0.00  0.00    -0.272 OA
ATOM     24  H   UNL d   1      28.868 -15.289   2.531  0.00  0.00     0.192 HD
BRANCH  22  25
ATOM     25  C   UNL d   1      27.053 -13.909   1.705  0.00  0.00     0.107 C 
BRANCH  25  26
ATOM     26  C   UNL d   1      26.758 -14.431   0.309  0.00  0.00     0.046 C 
BRANCH  26  27
ATOM     27  C   UNL d   1      27.066 -15.914   0.102  0.00  0.00     0.151 C 
BRANCH  27  28
ATOM     28  O   UNL d   1      27.640 -16.405   1.317  0.00  0.00    -0.391 OA
ATOM     29  H   UNL d   1      28.604 -16.279   1.237  0.00  0.00     0.210 HD
ENDBRANCH  27  28
BRANCH  27  30
ATOM     30  C   UNL d   1      25.794 -16.668  -0.250  0.00  0.00    -0.029 A 
ATOM     31  C   UNL d   1      25.533 -17.935   0.299  0.00  0.00     0.012 A 
ATOM     32  C   UNL d   1      24.452 -18.702  -0.144  0.00  0.00     0.037 A 
ATOM     33  C   UNL d   1      23.541 -18.170  -1.053  0.00  0.00     0.068 A 
ATOM     34  C   UNL d   1      23.761 -16.891  -1.563  0.00  0.00     0.037 A 
ATOM     35  C   UNL d   1      24.870 -16.145  -1.161  0.00  0.00     0.012 A 
BRANCH  33  36
ATOM     36  O   UNL d   1      22.468 -18.967  -1.352  0.00  0.00    -0.352 OA
BRANCH  36  37
ATOM     37  C   UNL d   1      21.200 -18.489  -0.900  0.00  0.00     0.171 C 
ATOM     38  C   UNL d   1      20.292 -19.672  -0.629  0.00  0.00     0.034 C 
ENDBRANCH  36  37
ENDBRANCH  33  36
ENDBRANCH  27  30
ENDBRANCH  26  27
ENDBRANCH  25  26
ENDBRANCH  22  25
ENDBRANCH   2  21
TORSDOF 13
ENDMDL
MODEL 7
REMARK VINA RESULT:    -7.048      2.550      7.391
REMARK INTER + INTRA:         -15.214
REMARK INTER:                 -10.926
REMARK INTRA:                  -4.288
REMARK CONF_INDEPENDENT:        3.878
REMARK UNBOUND:                -4.288
REMARK  13 active torsions:
REMARK  status: ('A' for Active; 'I' for Inactive)
REMARK    1  A    between atoms: C_2  and  O_3 
REMARK    2  A    between atoms: O_3  and  C_4 
REMARK    3  A    between atoms: C_4  and  C_6 
REMARK    4  A    between atoms: C_10  and  N_11 
REMARK    5  A    between atoms: C_15  and  C_16 
REMARK    6  A    between atoms: N_17  and  N_18 
REMARK       I    between atoms: N_18  and  C_19 
REMARK    7  A    between atoms: C_19  and  C_21 
REMARK    8  A    between atoms: C_21  and  C_22 
REMARK    9  A    between atoms: C_22  and  C_23 
REMARK   10  A    between atoms: C_23  and  O_24 
REMARK   11  A    between atoms: C_23  and  C_25 
REMARK   12  A    between atoms: C_28  and  O_29 
REMARK   13  A    between atoms: O_29  and  C_30 
ROOT
ATOM      1  C   UNL d   1      28.116 -12.025  -1.101  0.00  0.00     0.152 C 
ATOM      2  N   UNL d   1      29.114 -12.007  -0.260  0.00  0.00    -0.184 NA
ENDROOT
BRANCH   1   3
ATOM      3  C   UNL d   1      27.352 -13.178  -1.581  0.00  0.00     0.008 A 
ATOM      4  C   UNL d   1      27.091 -13.627  -2.899  0.00  0.00     0.040 A 
ATOM      5  C   UNL d   1      26.365 -14.782  -2.874  0.00  0.00     0.014 A 
ATOM      6  N   UNL d   1      26.165 -15.103  -1.558  0.00  0.00    -0.319 N 
ATOM      7  C   UNL d   1      25.867 -15.492  -4.079  0.00  0.00     0.068 C 
ATOM      8  C   UNL d   1      26.717 -14.111  -0.751  0.00  0.00     0.025 A 
ATOM      9  C   UNL d   1      26.654 -14.209   0.742  0.00  0.00     0.070 C 
BRANCH   6  10
ATOM     10  C   UNL d   1      25.581 -16.295  -1.108  0.00  0.00     0.040 A 
ATOM     11  C   UNL d   1      26.374 -17.226  -0.438  0.00  0.00     0.030 A 
ATOM     12  C   UNL d   1      25.771 -18.373   0.061  0.00  0.00     0.003 A 
ATOM     13  C   UNL d   1      24.405 -18.595  -0.159  0.00  0.00     0.018 A 
ATOM     14  C   UNL d   1      23.614 -17.642  -0.826  0.00  0.00     0.041 A 
ATOM     15  C   UNL d   1      24.206 -16.478  -1.303  0.00  0.00     0.047 A 
BRANCH  14  16
ATOM     16  C   UNL d   1      22.143 -17.814  -0.872  0.00  0.00     0.293 C 
ATOM     17  O   UNL d   1      21.382 -16.854  -0.894  0.00  0.00    -0.259 OA
BRANCH  16  18
ATOM     18  O   UNL d   1      21.778 -19.123  -0.885  0.00  0.00    -0.318 OA
BRANCH  18  19
ATOM     19  C   UNL d   1      20.352 -19.326  -0.919  0.00  0.00     0.174 C 
ATOM     20  C   UNL d   1      19.937 -20.294   0.177  0.00  0.00     0.034 C 
ENDBRANCH  18  19
ENDBRANCH  16  18
ENDBRANCH  14  16
ENDBRANCH   6  10
ENDBRANCH   1   3
BRANCH   2  21
ATOM     21  N   UNL d   1      29.569 -13.158   0.284  0.00  0.00    -0.247 N 
ATOM     22  C   UNL d   1      30.770 -13.274   0.932  0.00  0.00     0.237 C 
ATOM     23  O   UNL d   1      31.568 -12.358   1.099  0.00  0.00    -0.272 OA
ATOM     24  H   UNL d   1      29.031 -13.987   0.217  0.00  0.00     0.192 HD
BRANCH  22  25
ATOM     25  C   UNL d   1      31.004 -14.703   1.430  0.00  0.00     0.107 C 
BRANCH  25  26
ATOM     26  C   UNL d   1      31.376 -15.564   0.236  0.00  0.00     0.046 C 
BRANCH  26  27
ATOM     27  C   UNL d   1      30.249 -16.455  -0.286  0.00  0.00     0.151 C 
BRANCH  27  28
ATOM     28  O   UNL d   1      29.049 -16.068   0.390  0.00  0.00    -0.391 OA
ATOM     29  H   UNL d   1      29.188 -16.270   1.334  0.00  0.00     0.210 HD
ENDBRANCH  27  28
BRANCH  27  30
ATOM     30  C   UNL d   1      30.110 -16.292  -1.791  0.00  0.00    -0.029 A 
ATOM     31  C   UNL d   1      30.133 -15.018  -2.383  0.00  0.00     0.012 A 
ATOM     32  C   UNL d   1      29.842 -14.849  -3.739  0.00  0.00     0.037 A 
ATOM     33  C   UNL d   1      29.642 -15.958  -4.556  0.00  0.00     0.068 A 
ATOM     34  C   UNL d   1      29.670 -17.232  -3.989  0.00  0.00     0.037 A 
ATOM     35  C   UNL d   1      29.908 -17.398  -2.624  0.00  0.00     0.012 A 
BRANCH  33  36
ATOM     36  O   UNL d   1      29.455 -15.689  -5.886  0.00  0.00    -0.352 OA
BRANCH  36  37
ATOM     37  C   UNL d   1      29.538 -14.312  -6.254  0.00  0.00     0.171 C 
ATOM     38  C   UNL d   1      28.146 -13.797  -6.566  0.00  0.00     0.034 C 
ENDBRANCH  36  37
ENDBRANCH  33  36
ENDBRANCH  27  30
ENDBRANCH  26  27
ENDBRANCH  25  26
ENDBRANCH  22  25
ENDBRANCH   2  21
TORSDOF 13
ENDMDL
MODEL 8
REMARK VINA RESULT:    -6.990      2.139      3.325
REMARK INTER + INTRA:         -14.904
REMARK INTER:                 -10.868
REMARK INTRA:                  -4.036
REMARK CONF_INDEPENDENT:        3.878
REMARK UNBOUND:                -4.036
REMARK  13 active torsions:
REMARK  status: ('A' for Active; 'I' for Inactive)
REMARK    1  A    between atoms: C_2  and  O_3 
REMARK    2  A    between atoms: O_3  and  C_4 
REMARK    3  A    between atoms: C_4  and  C_6 
REMARK    4  A    between atoms: C_10  and  N_11 
REMARK    5  A    between atoms: C_15  and  C_16 
REMARK    6  A    between atoms: N_17  and  N_18 
REMARK       I    between atoms: N_18  and  C_19 
REMARK    7  A    between atoms: C_19  and  C_21 
REMARK    8  A    between atoms: C_21  and  C_22 
REMARK    9  A    between atoms: C_22  and  C_23 
REMARK   10  A    between atoms: C_23  and  O_24 
REMARK   11  A    between atoms: C_23  and  C_25 
REMARK   12  A    between atoms: C_28  and  O_29 
REMARK   13  A    between atoms: O_29  and  C_30 
ROOT
ATOM      1  C   UNL d   1      29.722 -15.540  -5.433  0.00  0.00     0.152 C 
ATOM      2  N   UNL d   1      29.021 -14.715  -6.160  0.00  0.00    -0.184 NA
ENDROOT
BRANCH   1   3
ATOM      3  C   UNL d   1      29.622 -15.795  -3.994  0.00  0.00     0.008 A 
ATOM      4  C   UNL d   1      29.629 -17.014  -3.272  0.00  0.00     0.040 A 
ATOM      5  C   UNL d   1      29.558 -16.773  -1.931  0.00  0.00     0.014 A 
ATOM      6  N   UNL d   1      29.524 -15.414  -1.767  0.00  0.00    -0.319 N 
ATOM      7  C   UNL d   1      29.483 -17.827  -0.887  0.00  0.00     0.068 C 
ATOM      8  C   UNL d   1      29.513 -14.799  -3.016  0.00  0.00     0.025 A 
ATOM      9  C   UNL d   1      29.488 -13.306  -3.140  0.00  0.00     0.070 C 
BRANCH   6  10
ATOM     10  C   UNL d   1      29.589 -14.758  -0.531  0.00  0.00     0.040 A 
ATOM     11  C   UNL d   1      30.823 -14.296  -0.074  0.00  0.00     0.030 A 
ATOM     12  C   UNL d   1      30.866 -13.589   1.120  0.00  0.00     0.003 A 
ATOM     13  C   UNL d   1      29.691 -13.401   1.861  0.00  0.00     0.018 A 
ATOM     14  C   UNL d   1      28.451 -13.862   1.384  0.00  0.00     0.041 A 
ATOM     15  C   UNL d   1      28.397 -14.545   0.174  0.00  0.00     0.047 A 
BRANCH  14  16
ATOM     16  C   UNL d   1      27.207 -13.479   2.090  0.00  0.00     0.293 C 
ATOM     17  O   UNL d   1      26.151 -13.311   1.492  0.00  0.00    -0.259 OA
BRANCH  16  18
ATOM     18  O   UNL d   1      27.394 -13.347   3.430  0.00  0.00    -0.318 OA
BRANCH  18  19
ATOM     19  C   UNL d   1      27.854 -14.553   4.070  0.00  0.00     0.174 C 
ATOM     20  C   UNL d   1      28.150 -14.284   5.537  0.00  0.00     0.034 C 
ENDBRANCH  18  19
ENDBRANCH  16  18
ENDBRANCH  14  16
ENDBRANCH   6  10
ENDBRANCH   1   3
BRANCH   2  21
ATOM     21  N   UNL d   1      28.057 -13.955  -5.594  0.00  0.00    -0.247 N 
ATOM     22  C   UNL d   1      26.814 -14.422  -5.258  0.00  0.00     0.237 C 
ATOM     23  O   UNL d   1      26.430 -15.575  -5.422  0.00  0.00    -0.272 OA
ATOM     24  H   UNL d   1      28.224 -12.996  -5.410  0.00  0.00     0.192 HD
BRANCH  22  25
ATOM     25  C   UNL d   1      25.947 -13.321  -4.642  0.00  0.00     0.107 C 
BRANCH  25  26
ATOM     26  C   UNL d   1      25.205 -13.913  -3.457  0.00  0.00     0.046 C 
BRANCH  26  27
ATOM     27  C   UNL d   1      26.102 -14.502  -2.369  0.00  0.00     0.151 C 
BRANCH  27  28
ATOM     28  O   UNL d   1      26.333 -13.473  -1.402  0.00  0.00    -0.391 OA
ATOM     29  H   UNL d   1      25.820 -13.720  -0.610  0.00  0.00     0.210 HD
ENDBRANCH  27  28
BRANCH  27  30
ATOM     30  C   UNL d   1      25.431 -15.711  -1.737  0.00  0.00    -0.029 A 
ATOM     31  C   UNL d   1      24.031 -15.794  -1.648  0.00  0.00     0.012 A 
ATOM     32  C   UNL d   1      23.415 -16.818  -0.926  0.00  0.00     0.037 A 
ATOM     33  C   UNL d   1      24.178 -17.848  -0.380  0.00  0.00     0.068 A 
ATOM     34  C   UNL d   1      25.566 -17.804  -0.508  0.00  0.00     0.037 A 
ATOM     35  C   UNL d   1      26.185 -16.752  -1.185  0.00  0.00     0.012 A 
BRANCH  33  36
ATOM     36  O   UNL d   1      23.471 -18.851   0.229  0.00  0.00    -0.352 OA
BRANCH  36  37
ATOM     37  C   UNL d   1      22.090 -18.575   0.469  0.00  0.00     0.171 C 
ATOM     38  C   UNL d   1      21.252 -19.309  -0.560  0.00  0.00     0.034 C 
ENDBRANCH  36  37
ENDBRANCH  33  36
ENDBRANCH  27  30
ENDBRANCH  26  27
ENDBRANCH  25  26
ENDBRANCH  22  25
ENDBRANCH   2  21
TORSDOF 13
ENDMDL
MODEL 9
REMARK VINA RESULT:    -6.802      2.043      6.835
REMARK INTER + INTRA:         -14.835
REMARK INTER:                 -10.680
REMARK INTRA:                  -4.156
REMARK CONF_INDEPENDENT:        3.878
REMARK UNBOUND:                -4.156
REMARK  13 active torsions:
REMARK  status: ('A' for Active; 'I' for Inactive)
REMARK    1  A    between atoms: C_2  and  O_3 
REMARK    2  A    between atoms: O_3  and  C_4 
REMARK    3  A    between atoms: C_4  and  C_6 
REMARK    4  A    between atoms: C_10  and  N_11 
REMARK    5  A    between atoms: C_15  and  C_16 
REMARK    6  A    between atoms: N_17  and  N_18 
REMARK       I    between atoms: N_18  and  C_19 
REMARK    7  A    between atoms: C_19  and  C_21 
REMARK    8  A    between atoms: C_21  and  C_22 
REMARK    9  A    between atoms: C_22  and  C_23 
REMARK   10  A    between atoms: C_23  and  O_24 
REMARK   11  A    between atoms: C_23  and  C_25 
REMARK   12  A    between atoms: C_28  and  O_29 
REMARK   13  A    between atoms: O_29  and  C_30 
ROOT
ATOM      1  C   UNL d   1      28.740 -14.654  -5.969  0.00  0.00     0.152 C 
ATOM      2  N   UNL d   1      29.007 -13.699  -6.816  0.00  0.00    -0.184 NA
ENDROOT
BRANCH   1   3
ATOM      3  C   UNL d   1      27.634 -14.738  -5.012  0.00  0.00     0.008 A 
ATOM      4  C   UNL d   1      26.343 -14.155  -5.042  0.00  0.00     0.040 A 
ATOM      5  C   UNL d   1      25.620 -14.543  -3.952  0.00  0.00     0.014 A 
ATOM      6  N   UNL d   1      26.415 -15.386  -3.221  0.00  0.00    -0.319 N 
ATOM      7  C   UNL d   1      24.248 -14.071  -3.638  0.00  0.00     0.068 C 
ATOM      8  C   UNL d   1      27.666 -15.480  -3.825  0.00  0.00     0.025 A 
ATOM      9  C   UNL d   1      28.739 -16.348  -3.243  0.00  0.00     0.070 C 
BRANCH   6  10
ATOM     10  C   UNL d   1      25.989 -16.109  -2.099  0.00  0.00     0.040 A 
ATOM     11  C   UNL d   1      26.664 -15.941  -0.890  0.00  0.00     0.030 A 
ATOM     12  C   UNL d   1      26.193 -16.611   0.231  0.00  0.00     0.003 A 
ATOM     13  C   UNL d   1      25.094 -17.473   0.117  0.00  0.00     0.018 A 
ATOM     14  C   UNL d   1      24.415 -17.625  -1.105  0.00  0.00     0.041 A 
ATOM     15  C   UNL d   1      24.864 -16.933  -2.225  0.00  0.00     0.047 A 
BRANCH  14  16
ATOM     16  C   UNL d   1      23.146 -18.388  -1.147  0.00  0.00     0.293 C 
ATOM     17  O   UNL d   1      22.935 -19.242  -2.000  0.00  0.00    -0.259 OA
BRANCH  16  18
ATOM     18  O   UNL d   1      22.292 -18.023  -0.155  0.00  0.00    -0.318 OA
BRANCH  18  19
ATOM     19  C   UNL d   1      21.342 -19.047   0.197  0.00  0.00     0.174 C 
ATOM     20  C   UNL d   1      20.206 -19.073  -0.814  0.00  0.00     0.034 C 
ENDBRANCH  18  19
ENDBRANCH  16  18
ENDBRANCH  14  16
ENDBRANCH   6  10
ENDBRANCH   1   3
BRANCH   2  21
ATOM     21  N   UNL d   1      28.217 -12.605  -6.884  0.00  0.00    -0.247 N 
ATOM     22  C   UNL d   1      28.368 -11.609  -7.812  0.00  0.00     0.237 C 
ATOM     23  O   UNL d   1      29.226 -11.591  -8.688  0.00  0.00    -0.272 OA
ATOM     24  H   UNL d   1      27.483 -12.479  -6.230  0.00  0.00     0.192 HD
BRANCH  22  25
ATOM     25  C   UNL d   1      27.325 -10.503  -7.627  0.00  0.00     0.107 C 
BRANCH  25  26
ATOM     26  C   UNL d   1      27.418 -10.003  -6.196  0.00  0.00     0.046 C 
BRANCH  26  27
ATOM     27  C   UNL d   1      26.309 -10.501  -5.270  0.00  0.00     0.151 C 
BRANCH  27  28
ATOM     28  O   UNL d   1      25.531 -11.449  -6.007  0.00  0.00    -0.391 OA
ATOM     29  H   UNL d   1      24.828 -11.755  -5.404  0.00  0.00     0.210 HD
ENDBRANCH  27  28
BRANCH  27  30
ATOM     30  C   UNL d   1      26.913 -11.133  -4.026  0.00  0.00    -0.029 A 
ATOM     31  C   UNL d   1      28.298 -11.348  -3.927  0.00  0.00     0.012 A 
ATOM     32  C   UNL d   1      28.839 -12.073  -2.863  0.00  0.00     0.037 A 
ATOM     33  C   UNL d   1      28.024 -12.493  -1.814  0.00  0.00     0.068 A 
ATOM     34  C   UNL d   1      26.654 -12.238  -1.876  0.00  0.00     0.037 A 
ATOM     35  C   UNL d   1      26.106 -11.558  -2.965  0.00  0.00     0.012 A 
BRANCH  33  36
ATOM     36  O   UNL d   1      28.667 -13.115  -0.777  0.00  0.00    -0.352 OA
BRANCH  36  37
ATOM     37  C   UNL d   1      28.493 -12.513   0.506  0.00  0.00     0.171 C 
ATOM     38  C   UNL d   1      27.414 -13.262   1.263  0.00  0.00     0.034 C 
ENDBRANCH  36  37
ENDBRANCH  33  36
ENDBRANCH  27  30
ENDBRANCH  26  27
ENDBRANCH  25  26
ENDBRANCH  22  25
ENDBRANCH   2  21
TORSDOF 13
ENDMDL
