MODEL 1
REMARK VINA RESULT:    -8.683      0.000      0.000
REMARK INTER + INTRA:         -13.221
REMARK INTER:                 -11.069
REMARK INTRA:                  -2.152
REMARK CONF_INDEPENDENT:        2.386
REMARK UNBOUND:                -2.152
REMARK  8 active torsions:
REMARK  status: ('A' for Active; 'I' for Inactive)
REMARK    1  A    between atoms: O_2  and  C_3 
REMARK    2  A    between atoms: C_5  and  N_6 
REMARK    3  A    between atoms: N_6  and  C_7 
REMARK    4  A    between atoms: C_10  and  O_11 
REMARK    5  A    between atoms: C_12  and  O_13 
REMARK    6  A    between atoms: C_15  and  C_16 
REMARK       I    between atoms: C_16  and  N_18 
REMARK    7  A    between atoms: N_18  and  C_19 
REMARK    8  A    between atoms: C_28  and  O_29 
ROOT
ATOM      1  C   UNL d   1      25.794 -15.014  -3.127  0.00  0.00     0.163 C 
ATOM      2  N   UNL d   1      25.533 -14.825  -4.379  0.00  0.00    -0.258 NA
ATOM      3  C   UNL d   1      26.744 -14.897  -5.250  0.00  0.00     0.157 C 
ATOM      4  C   UNL d   1      27.030 -13.513  -5.912  0.00  0.00     0.172 C 
ATOM      5  C   UNL d   1      28.474 -13.303  -6.390  0.00  0.00     0.149 C 
ATOM      6  C   UNL d   1      29.440 -13.660  -5.259  0.00  0.00     0.049 C 
ATOM      7  C   UNL d   1      29.324 -15.118  -4.795  0.00  0.00     0.097 C 
ATOM      8  C   UNL d   1      27.895 -15.598  -4.510  0.00  0.00     0.096 C 
ATOM      9  S   UNL d   1      27.441 -15.504  -2.766  0.00  0.00    -0.084 SA
ENDROOT
BRANCH   1  10
ATOM     10  N   UNL d   1      24.856 -14.942  -2.120  0.00  0.00    -0.335 N 
ATOM     11  H   UNL d   1      24.855 -14.058  -1.626  0.00  0.00     0.168 HD
BRANCH  10  12
ATOM     12  C   UNL d   1      24.408 -16.023  -1.308  0.00  0.00     0.039 C 
ATOM     13  C   UNL d   1      23.037 -16.336  -1.207  0.00  0.00     0.066 C 
ATOM     14  C   UNL d   1      22.604 -17.552  -0.641  0.00  0.00     0.073 C 
ATOM     15  C   UNL d   1      23.543 -18.456  -0.155  0.00  0.00     0.073 C 
ATOM     16  C   UNL d   1      24.895 -18.135  -0.180  0.00  0.00     0.073 C 
ATOM     17  C   UNL d   1      25.305 -16.914  -0.711  0.00  0.00     0.066 C 
BRANCH  14  18
ATOM     18  O   UNL d   1      21.262 -17.825  -0.724  0.00  0.00    -0.356 OA
ATOM     19  C   UNL d   1      20.889 -19.194  -0.895  0.00  0.00     0.210 C 
ENDBRANCH  14  18
BRANCH  16  20
ATOM     20  O   UNL d   1      25.919 -18.947   0.230  0.00  0.00    -0.356 OA
ATOM     21  C   UNL d   1      27.213 -18.358   0.241  0.00  0.00     0.210 C 
ENDBRANCH  16  20
ENDBRANCH  10  12
ENDBRANCH   1  10
BRANCH   4  22
ATOM     22  O   UNL d   1      26.711 -12.426  -5.038  0.00  0.00    -0.391 OA
ATOM     23  H   UNL d   1      26.265 -12.784  -4.255  0.00  0.00     0.210 HD
ENDBRANCH   4  22
BRANCH   7  24
ATOM     24  C   UNL d   1      30.013 -16.052  -5.799  0.00  0.00     0.227 C 
ATOM     25  O   UNL d   1      30.385 -15.626  -6.881  0.00  0.00    -0.273 OA
ATOM     26  N   UNL d   1      29.988 -17.404  -5.456  0.00  0.00    -0.327 N 
ATOM     27  H   UNL d   1      29.610 -17.738  -4.576  0.00  0.00     0.169 HD
BRANCH  26  28
ATOM     28  C   UNL d   1      30.551 -18.420  -6.238  0.00  0.00     0.034 A 
ATOM     29  C   UNL d   1      30.797 -18.200  -7.599  0.00  0.00     0.029 A 
ATOM     30  C   UNL d   1      31.227 -19.262  -8.397  0.00  0.00     0.002 A 
ATOM     31  C   UNL d   1      31.410 -20.523  -7.830  0.00  0.00     0.000 A 
ATOM     32  C   UNL d   1      31.155 -20.730  -6.474  0.00  0.00     0.002 A 
ATOM     33  C   UNL d   1      30.736 -19.676  -5.677  0.00  0.00     0.029 A 
ENDBRANCH  26  28
ENDBRANCH   7  24
BRANCH   5  34
ATOM     34  O   UNL d   1      28.681 -13.999  -7.611  0.00  0.00    -0.393 OA
ATOM     35  H   UNL d   1      29.626 -14.070  -7.823  0.00  0.00     0.210 HD
ENDBRANCH   5  34
TORSDOF 8
ENDMDL
MODEL 2
REMARK VINA RESULT:    -7.957      1.008      2.580
REMARK INTER + INTRA:         -12.336
REMARK INTER:                 -10.344
REMARK INTRA:                  -1.992
REMARK CONF_INDEPENDENT:        2.386
REMARK UNBOUND:                -1.992
REMARK  8 active torsions:
REMARK  status: ('A' for Active; 'I' for Inactive)
REMARK    1  A    between atoms: O_2  and  C_3 
REMARK    2  A    between atoms: C_5  and  N_6 
REMARK    3  A    between atoms: N_6  and  C_7 
REMARK    4  A    between atoms: C_10  and  O_11 
REMARK    5  A    between atoms: C_12  and  O_13 
REMARK    6  A    between atoms: C_15  and  C_16 
REMARK       I    between atoms: C_16  and  N_18 
REMARK    7  A    between atoms: N_18  and  C_19 
REMARK    8  A    between atoms: C_28  and  O_29 
ROOT
ATOM      1  C   UNL d   1      25.321 -15.037  -3.183  0.00  0.00     0.163 C 
ATOM      2  N   UNL d   1      25.061 -14.480  -4.320  0.00  0.00    -0.258 NA
ATOM      3  C   UNL d   1      26.272 -14.295  -5.175  0.00  0.00     0.157 C 
ATOM      4  C   UNL d   1      26.566 -12.778  -5.392  0.00  0.00     0.172 C 
ATOM      5  C   UNL d   1      28.011 -12.443  -5.789  0.00  0.00     0.149 C 
ATOM      6  C   UNL d   1      28.976 -13.128  -4.818  0.00  0.00     0.049 C 
ATOM      7  C   UNL d   1      28.850 -14.657  -4.811  0.00  0.00     0.097 C 
ATOM      8  C   UNL d   1      27.418 -15.192  -4.680  0.00  0.00     0.096 C 
ATOM      9  S   UNL d   1      26.965 -15.622  -2.987  0.00  0.00    -0.084 SA
ENDROOT
BRANCH   1  10
ATOM     10  N   UNL d   1      24.384 -15.264  -2.199  0.00  0.00    -0.335 N 
ATOM     11  H   UNL d   1      24.172 -14.447  -1.639  0.00  0.00     0.168 HD
BRANCH  10  12
ATOM     12  C   UNL d   1      24.193 -16.480  -1.482  0.00  0.00     0.039 C 
ATOM     13  C   UNL d   1      25.267 -17.108  -0.818  0.00  0.00     0.066 C 
ATOM     14  C   UNL d   1      25.047 -18.145   0.112  0.00  0.00     0.073 C 
ATOM     15  C   UNL d   1      23.749 -18.570   0.371  0.00  0.00     0.073 C 
ATOM     16  C   UNL d   1      22.683 -18.013  -0.326  0.00  0.00     0.073 C 
ATOM     17  C   UNL d   1      22.920 -17.014  -1.267  0.00  0.00     0.066 C 
BRANCH  14  18
ATOM     18  O   UNL d   1      26.143 -18.586   0.810  0.00  0.00    -0.356 OA
ATOM     19  C   UNL d   1      27.426 -18.208   0.307  0.00  0.00     0.210 C 
ENDBRANCH  14  18
BRANCH  16  20
ATOM     20  O   UNL d   1      21.359 -18.314  -0.140  0.00  0.00    -0.356 OA
ATOM     21  C   UNL d   1      20.765 -19.141  -1.131  0.00  0.00     0.210 C 
ENDBRANCH  16  20
ENDBRANCH  10  12
ENDBRANCH   1  10
BRANCH   4  22
ATOM     22  O   UNL d   1      26.254 -12.001  -4.233  0.00  0.00    -0.391 OA
ATOM     23  H   UNL d   1      25.404 -12.307  -3.879  0.00  0.00     0.210 HD
ENDBRANCH   4  22
BRANCH   7  24
ATOM     24  C   UNL d   1      29.534 -15.251  -6.050  0.00  0.00     0.227 C 
ATOM     25  O   UNL d   1      29.187 -14.909  -7.169  0.00  0.00    -0.273 OA
ATOM     26  N   UNL d   1      30.399 -16.314  -5.789  0.00  0.00    -0.327 N 
ATOM     27  H   UNL d   1      30.619 -16.623  -4.848  0.00  0.00     0.169 HD
BRANCH  26  28
ATOM     28  C   UNL d   1      31.115 -17.001  -6.778  0.00  0.00     0.034 A 
ATOM     29  C   UNL d   1      32.072 -16.326  -7.546  0.00  0.00     0.029 A 
ATOM     30  C   UNL d   1      32.677 -16.983  -8.618  0.00  0.00     0.002 A 
ATOM     31  C   UNL d   1      32.325 -18.302  -8.908  0.00  0.00     0.000 A 
ATOM     32  C   UNL d   1      31.366 -18.961  -8.140  0.00  0.00     0.002 A 
ATOM     33  C   UNL d   1      30.769 -18.314  -7.068  0.00  0.00     0.029 A 
ENDBRANCH  26  28
ENDBRANCH   7  24
BRANCH   5  34
ATOM     34  O   UNL d   1      28.215 -12.743  -7.162  0.00  0.00    -0.393 OA
ATOM     35  H   UNL d   1      29.110 -13.083  -7.323  0.00  0.00     0.210 HD
ENDBRANCH   5  34
TORSDOF 8
ENDMDL
MODEL 3
REMARK VINA RESULT:    -7.386      6.478     10.144
REMARK INTER + INTRA:         -12.082
REMARK INTER:                  -9.772
REMARK INTRA:                  -2.310
REMARK CONF_INDEPENDENT:        2.386
REMARK UNBOUND:                -2.310
REMARK  8 active torsions:
REMARK  status: ('A' for Active; 'I' for Inactive)
REMARK    1  A    between atoms: O_2  and  C_3 
REMARK    2  A    between atoms: C_5  and  N_6 
REMARK    3  A    between atoms: N_6  and  C_7 
REMARK    4  A    between atoms: C_10  and  O_11 
REMARK    5  A    between atoms: C_12  and  O_13 
REMARK    6  A    between atoms: C_15  and  C_16 
REMARK       I    between atoms: C_16  and  N_18 
REMARK    7  A    between atoms: N_18  and  C_19 
REMARK    8  A    between atoms: C_28  and  O_29 
ROOT
ATOM      1  C   UNL d   1      28.843 -15.005   0.283  0.00  0.00     0.163 C 
ATOM      2  N   UNL d   1      29.980 -15.033   0.897  0.00  0.00    -0.258 NA
ATOM      3  C   UNL d   1      29.921 -14.447   2.270  0.00  0.00     0.157 C 
ATOM      4  C   UNL d   1      30.798 -13.159   2.357  0.00  0.00     0.172 C 
ATOM      5  C   UNL d   1      30.435 -12.198   3.499  0.00  0.00     0.149 C 
ATOM      6  C   UNL d   1      28.931 -11.922   3.471  0.00  0.00     0.049 C 
ATOM      7  C   UNL d   1      28.076 -13.183   3.652  0.00  0.00     0.097 C 
ATOM      8  C   UNL d   1      28.465 -14.367   2.756  0.00  0.00     0.096 C 
ATOM      9  S   UNL d   1      27.474 -14.486   1.253  0.00  0.00    -0.084 SA
ENDROOT
BRANCH   1  10
ATOM     10  N   UNL d   1      28.650 -15.435  -1.012  0.00  0.00    -0.335 N 
ATOM     11  H   UNL d   1      29.217 -14.945  -1.693  0.00  0.00     0.168 HD
BRANCH  10  12
ATOM     12  C   UNL d   1      27.431 -15.923  -1.565  0.00  0.00     0.039 C 
ATOM     13  C   UNL d   1      26.674 -16.908  -0.898  0.00  0.00     0.066 C 
ATOM     14  C   UNL d   1      25.350 -17.198  -1.284  0.00  0.00     0.073 C 
ATOM     15  C   UNL d   1      24.780 -16.513  -2.352  0.00  0.00     0.073 C 
ATOM     16  C   UNL d   1      25.534 -15.589  -3.066  0.00  0.00     0.073 C 
ATOM     17  C   UNL d   1      26.853 -15.339  -2.695  0.00  0.00     0.066 C 
BRANCH  14  18
ATOM     18  O   UNL d   1      24.652 -18.064  -0.480  0.00  0.00    -0.356 OA
ATOM     19  C   UNL d   1      23.226 -17.980  -0.522  0.00  0.00     0.210 C 
ENDBRANCH  14  18
BRANCH  16  20
ATOM     20  O   UNL d   1      25.083 -14.823  -4.109  0.00  0.00    -0.356 OA
ATOM     21  C   UNL d   1      25.265 -13.421  -3.974  0.00  0.00     0.210 C 
ENDBRANCH  16  20
ENDBRANCH  10  12
ENDBRANCH   1  10
BRANCH   4  22
ATOM     22  O   UNL d   1      30.765 -12.406   1.142  0.00  0.00    -0.391 OA
ATOM     23  H   UNL d   1      30.516 -13.003   0.419  0.00  0.00     0.210 HD
ENDBRANCH   4  22
BRANCH   7  24
ATOM     24  C   UNL d   1      28.061 -13.608   5.126  0.00  0.00     0.227 C 
ATOM     25  O   UNL d   1      27.401 -14.571   5.483  0.00  0.00    -0.273 OA
ATOM     26  N   UNL d   1      28.677 -12.712   6.000  0.00  0.00    -0.327 N 
ATOM     27  H   UNL d   1      29.162 -11.881   5.680  0.00  0.00     0.169 HD
BRANCH  26  28
ATOM     28  C   UNL d   1      28.764 -12.905   7.385  0.00  0.00     0.034 A 
ATOM     29  C   UNL d   1      29.287 -14.102   7.892  0.00  0.00     0.029 A 
ATOM     30  C   UNL d   1      29.240 -14.340   9.267  0.00  0.00     0.002 A 
ATOM     31  C   UNL d   1      28.680 -13.384  10.116  0.00  0.00     0.000 A 
ATOM     32  C   UNL d   1      28.159 -12.200   9.597  0.00  0.00     0.002 A 
ATOM     33  C   UNL d   1      28.211 -11.956   8.233  0.00  0.00     0.029 A 
ENDBRANCH  26  28
ENDBRANCH   7  24
BRANCH   5  34
ATOM     34  O   UNL d   1      30.939 -12.699   4.728  0.00  0.00    -0.393 OA
ATOM     35  H   UNL d   1      31.625 -13.371   4.584  0.00  0.00     0.210 HD
ENDBRANCH   5  34
TORSDOF 8
ENDMDL
MODEL 4
REMARK VINA RESULT:    -7.355      6.752     10.399
REMARK INTER + INTRA:         -11.973
REMARK INTER:                  -9.742
REMARK INTRA:                  -2.232
REMARK CONF_INDEPENDENT:        2.386
REMARK UNBOUND:                -2.232
REMARK  8 active torsions:
REMARK  status: ('A' for Active; 'I' for Inactive)
REMARK    1  A    between atoms: O_2  and  C_3 
REMARK    2  A    between atoms: C_5  and  N_6 
REMARK    3  A    between atoms: N_6  and  C_7 
REMARK    4  A    between atoms: C_10  and  O_11 
REMARK    5  A    between atoms: C_12  and  O_13 
REMARK    6  A    between atoms: C_15  and  C_16 
REMARK       I    between atoms: C_16  and  N_18 
REMARK    7  A    between atoms: N_18  and  C_19 
REMARK    8  A    between atoms: C_28  and  O_29 
ROOT
ATOM      1  C   UNL d   1      28.726 -14.467   0.789  0.00  0.00     0.163 C 
ATOM      2  N   UNL d   1      29.936 -14.347   1.227  0.00  0.00    -0.258 NA
ATOM      3  C   UNL d   1      30.005 -14.043   2.688  0.00  0.00     0.157 C 
ATOM      4  C   UNL d   1      30.616 -12.627   2.928  0.00  0.00     0.172 C 
ATOM      5  C   UNL d   1      30.278 -11.990   4.284  0.00  0.00     0.149 C 
ATOM      6  C   UNL d   1      28.767 -12.059   4.514  0.00  0.00     0.049 C 
ATOM      7  C   UNL d   1      28.219 -13.493   4.536  0.00  0.00     0.097 C 
ATOM      8  C   UNL d   1      28.668 -14.380   3.368  0.00  0.00     0.096 C 
ATOM      9  S   UNL d   1      27.473 -14.450   2.019  0.00  0.00    -0.084 SA
ENDROOT
BRANCH   1  10
ATOM     10  N   UNL d   1      28.398 -14.692  -0.530  0.00  0.00    -0.335 N 
ATOM     11  H   UNL d   1      28.850 -14.057  -1.178  0.00  0.00     0.168 HD
BRANCH  10  12
ATOM     12  C   UNL d   1      27.149 -15.171  -1.018  0.00  0.00     0.039 C 
ATOM     13  C   UNL d   1      26.592 -14.665  -2.210  0.00  0.00     0.066 C 
ATOM     14  C   UNL d   1      25.513 -15.312  -2.846  0.00  0.00     0.073 C 
ATOM     15  C   UNL d   1      24.972 -16.462  -2.280  0.00  0.00     0.073 C 
ATOM     16  C   UNL d   1      25.460 -16.935  -1.068  0.00  0.00     0.073 C 
ATOM     17  C   UNL d   1      26.504 -16.265  -0.434  0.00  0.00     0.066 C 
BRANCH  14  18
ATOM     18  O   UNL d   1      25.142 -14.825  -4.074  0.00  0.00    -0.356 OA
ATOM     19  C   UNL d   1      25.154 -13.406  -4.239  0.00  0.00     0.210 C 
ENDBRANCH  14  18
BRANCH  16  20
ATOM     20  O   UNL d   1      25.043 -18.071  -0.426  0.00  0.00    -0.356 OA
ATOM     21  C   UNL d   1      23.638 -18.223  -0.282  0.00  0.00     0.210 C 
ENDBRANCH  16  20
ENDBRANCH  10  12
ENDBRANCH   1  10
BRANCH   4  22
ATOM     22  O   UNL d   1      30.225 -11.697   1.914  0.00  0.00    -0.391 OA
ATOM     23  H   UNL d   1      29.868 -12.196   1.163  0.00  0.00     0.210 HD
ENDBRANCH   4  22
BRANCH   7  24
ATOM     24  C   UNL d   1      28.544 -14.165   5.877  0.00  0.00     0.227 C 
ATOM     25  O   UNL d   1      28.155 -15.299   6.108  0.00  0.00    -0.273 OA
ATOM     26  N   UNL d   1      29.117 -13.323   6.831  0.00  0.00    -0.327 N 
ATOM     27  H   UNL d   1      29.369 -12.361   6.631  0.00  0.00     0.169 HD
BRANCH  26  28
ATOM     28  C   UNL d   1      29.481 -13.735   8.119  0.00  0.00     0.034 A 
ATOM     29  C   UNL d   1      30.746 -14.292   8.345  0.00  0.00     0.029 A 
ATOM     30  C   UNL d   1      31.045 -14.825   9.599  0.00  0.00     0.002 A 
ATOM     31  C   UNL d   1      30.086 -14.792  10.611  0.00  0.00     0.000 A 
ATOM     32  C   UNL d   1      28.828 -14.239  10.373  0.00  0.00     0.002 A 
ATOM     33  C   UNL d   1      28.530 -13.702   9.129  0.00  0.00     0.029 A 
ENDBRANCH  26  28
ENDBRANCH   7  24
BRANCH   5  34
ATOM     34  O   UNL d   1      31.076 -12.575   5.302  0.00  0.00    -0.393 OA
ATOM     35  H   UNL d   1      31.703 -13.220   4.936  0.00  0.00     0.210 HD
ENDBRANCH   5  34
TORSDOF 8
ENDMDL
MODEL 5
REMARK VINA RESULT:    -7.135      4.914      9.042
REMARK INTER + INTRA:         -11.752
REMARK INTER:                  -9.521
REMARK INTRA:                  -2.230
REMARK CONF_INDEPENDENT:        2.386
REMARK UNBOUND:                -2.230
REMARK  8 active torsions:
REMARK  status: ('A' for Active; 'I' for Inactive)
REMARK    1  A    between atoms: O_2  and  C_3 
REMARK    2  A    between atoms: C_5  and  N_6 
REMARK    3  A    between atoms: N_6  and  C_7 
REMARK    4  A    between atoms: C_10  and  O_11 
REMARK    5  A    between atoms: C_12  and  O_13 
REMARK    6  A    between atoms: C_15  and  C_16 
REMARK       I    between atoms: C_16  and  N_18 
REMARK    7  A    between atoms: N_18  and  C_19 
REMARK    8  A    between atoms: C_28  and  O_29 
ROOT
ATOM      1  C   UNL d   1      25.736 -10.013  -4.755  0.00  0.00     0.163 C 
ATOM      2  N   UNL d   1      25.680 -10.862  -5.729  0.00  0.00    -0.258 NA
ATOM      3  C   UNL d   1      25.893 -12.274  -5.291  0.00  0.00     0.157 C 
ATOM      4  C   UNL d   1      27.206 -12.850  -5.907  0.00  0.00     0.172 C 
ATOM      5  C   UNL d   1      27.805 -14.052  -5.163  0.00  0.00     0.149 C 
ATOM      6  C   UNL d   1      27.913 -13.724  -3.673  0.00  0.00     0.049 C 
ATOM      7  C   UNL d   1      26.561 -13.413  -3.018  0.00  0.00     0.097 C 
ATOM      8  C   UNL d   1      25.689 -12.400  -3.773  0.00  0.00     0.096 C 
ATOM      9  S   UNL d   1      25.843 -10.715  -3.149  0.00  0.00    -0.084 SA
ENDROOT
BRANCH   1  10
ATOM     10  N   UNL d   1      25.627  -8.649  -4.909  0.00  0.00    -0.335 N 
ATOM     11  H   UNL d   1      25.797  -8.126  -4.057  0.00  0.00     0.168 HD
BRANCH  10  12
ATOM     12  C   UNL d   1      24.747  -7.969  -5.799  0.00  0.00     0.039 C 
ATOM     13  C   UNL d   1      23.437  -7.626  -5.405  0.00  0.00     0.066 C 
ATOM     14  C   UNL d   1      22.659  -6.723  -6.158  0.00  0.00     0.073 C 
ATOM     15  C   UNL d   1      23.183  -6.171  -7.322  0.00  0.00     0.073 C 
ATOM     16  C   UNL d   1      24.444  -6.552  -7.766  0.00  0.00     0.073 C 
ATOM     17  C   UNL d   1      25.186  -7.472  -7.029  0.00  0.00     0.066 C 
BRANCH  14  18
ATOM     18  O   UNL d   1      21.459  -6.343  -5.612  0.00  0.00    -0.356 OA
ATOM     19  C   UNL d   1      20.385  -6.092  -6.520  0.00  0.00     0.210 C 
ENDBRANCH  14  18
BRANCH  16  20
ATOM     20  O   UNL d   1      25.087  -6.058  -8.870  0.00  0.00    -0.356 OA
ATOM     21  C   UNL d   1      25.206  -6.950  -9.970  0.00  0.00     0.210 C 
ENDBRANCH  16  20
ENDBRANCH  10  12
ENDBRANCH   1  10
BRANCH   4  22
ATOM     22  O   UNL d   1      28.232 -11.858  -6.004  0.00  0.00    -0.391 OA
ATOM     23  H   UNL d   1      27.831 -10.987  -5.853  0.00  0.00     0.210 HD
ENDBRANCH   4  22
BRANCH   7  24
ATOM     24  C   UNL d   1      25.781 -14.710  -2.767  0.00  0.00     0.227 C 
ATOM     25  O   UNL d   1      25.155 -15.238  -3.672  0.00  0.00    -0.273 OA
ATOM     26  N   UNL d   1      25.695 -15.093  -1.428  0.00  0.00    -0.327 N 
ATOM     27  H   UNL d   1      26.173 -14.595  -0.685  0.00  0.00     0.169 HD
BRANCH  26  28
ATOM     28  C   UNL d   1      25.023 -16.238  -0.984  0.00  0.00     0.034 A 
ATOM     29  C   UNL d   1      25.747 -17.314  -0.454  0.00  0.00     0.029 A 
ATOM     30  C   UNL d   1      25.081 -18.501  -0.145  0.00  0.00     0.002 A 
ATOM     31  C   UNL d   1      23.707 -18.600  -0.362  0.00  0.00     0.000 A 
ATOM     32  C   UNL d   1      22.998 -17.524  -0.895  0.00  0.00     0.002 A 
ATOM     33  C   UNL d   1      23.655 -16.340  -1.196  0.00  0.00     0.029 A 
ENDBRANCH  26  28
ENDBRANCH   7  24
BRANCH   5  34
ATOM     34  O   UNL d   1      27.070 -15.226  -5.476  0.00  0.00    -0.393 OA
ATOM     35  H   UNL d   1      26.911 -15.767  -4.686  0.00  0.00     0.210 HD
ENDBRANCH   5  34
TORSDOF 8
ENDMDL
MODEL 6
REMARK VINA RESULT:    -7.096      2.388      8.425
REMARK INTER + INTRA:         -11.534
REMARK INTER:                  -9.483
REMARK INTRA:                  -2.051
REMARK CONF_INDEPENDENT:        2.386
REMARK UNBOUND:                -2.051
REMARK  8 active torsions:
REMARK  status: ('A' for Active; 'I' for Inactive)
REMARK    1  A    between atoms: O_2  and  C_3 
REMARK    2  A    between atoms: C_5  and  N_6 
REMARK    3  A    between atoms: N_6  and  C_7 
REMARK    4  A    between atoms: C_10  and  O_11 
REMARK    5  A    between atoms: C_12  and  O_13 
REMARK    6  A    between atoms: C_15  and  C_16 
REMARK       I    between atoms: C_16  and  N_18 
REMARK    7  A    between atoms: N_18  and  C_19 
REMARK    8  A    between atoms: C_28  and  O_29 
ROOT
ATOM      1  C   UNL d   1      29.416 -15.397  -5.870  0.00  0.00     0.163 C 
ATOM      2  N   UNL d   1      29.683 -15.758  -4.657  0.00  0.00    -0.258 NA
ATOM      3  C   UNL d   1      28.581 -15.453  -3.697  0.00  0.00     0.157 C 
ATOM      4  C   UNL d   1      29.042 -14.395  -2.646  0.00  0.00     0.172 C 
ATOM      5  C   UNL d   1      27.909 -13.626  -1.952  0.00  0.00     0.149 C 
ATOM      6  C   UNL d   1      26.951 -13.072  -3.008  0.00  0.00     0.049 C 
ATOM      7  C   UNL d   1      26.298 -14.161  -3.870  0.00  0.00     0.097 C 
ATOM      8  C   UNL d   1      27.267 -15.197  -4.454  0.00  0.00     0.096 C 
ATOM      9  S   UNL d   1      27.777 -14.830  -6.145  0.00  0.00    -0.084 SA
ENDROOT
BRANCH   1  10
ATOM     10  N   UNL d   1      30.292 -15.520  -6.926  0.00  0.00    -0.335 N 
ATOM     11  H   UNL d   1      30.021 -14.990  -7.746  0.00  0.00     0.168 HD
BRANCH  10  12
ATOM     12  C   UNL d   1      31.063 -16.673  -7.251  0.00  0.00     0.039 C 
ATOM     13  C   UNL d   1      30.711 -17.945  -6.756  0.00  0.00     0.066 C 
ATOM     14  C   UNL d   1      31.286 -19.120  -7.282  0.00  0.00     0.073 C 
ATOM     15  C   UNL d   1      32.232 -19.026  -8.298  0.00  0.00     0.073 C 
ATOM     16  C   UNL d   1      32.644 -17.778  -8.750  0.00  0.00     0.073 C 
ATOM     17  C   UNL d   1      32.092 -16.625  -8.196  0.00  0.00     0.066 C 
BRANCH  14  18
ATOM     18  O   UNL d   1      30.770 -20.310  -6.835  0.00  0.00    -0.356 OA
ATOM     19  C   UNL d   1      31.147 -20.726  -5.521  0.00  0.00     0.210 C 
ENDBRANCH  14  18
BRANCH  16  20
ATOM     20  O   UNL d   1      33.535 -17.548  -9.765  0.00  0.00    -0.356 OA
ATOM     21  C   UNL d   1      34.498 -16.531  -9.528  0.00  0.00     0.210 C 
ENDBRANCH  16  20
ENDBRANCH  10  12
ENDBRANCH   1  10
BRANCH   4  22
ATOM     22  O   UNL d   1      29.926 -13.425  -3.216  0.00  0.00    -0.391 OA
ATOM     23  H   UNL d   1      30.035 -13.627  -4.159  0.00  0.00     0.210 HD
ENDBRANCH   4  22
BRANCH   7  24
ATOM     24  C   UNL d   1      25.176 -14.856  -3.087  0.00  0.00     0.227 C 
ATOM     25  O   UNL d   1      24.031 -14.435  -3.146  0.00  0.00    -0.273 OA
ATOM     26  N   UNL d   1      25.606 -15.834  -2.191  0.00  0.00    -0.327 N 
ATOM     27  H   UNL d   1      26.576 -16.118  -2.114  0.00  0.00     0.169 HD
BRANCH  26  28
ATOM     28  C   UNL d   1      24.745 -16.579  -1.375  0.00  0.00     0.034 A 
ATOM     29  C   UNL d   1      25.166 -17.811  -0.855  0.00  0.00     0.029 A 
ATOM     30  C   UNL d   1      24.254 -18.608  -0.161  0.00  0.00     0.002 A 
ATOM     31  C   UNL d   1      22.941 -18.167   0.011  0.00  0.00     0.000 A 
ATOM     32  C   UNL d   1      22.534 -16.942  -0.515  0.00  0.00     0.002 A 
ATOM     33  C   UNL d   1      23.440 -16.144  -1.199  0.00  0.00     0.029 A 
ENDBRANCH  26  28
ENDBRANCH   7  24
BRANCH   5  34
ATOM     34  O   UNL d   1      27.312 -14.444  -0.957  0.00  0.00    -0.393 OA
ATOM     35  H   UNL d   1      27.592 -15.370  -1.042  0.00  0.00     0.210 HD
ENDBRANCH   5  34
TORSDOF 8
ENDMDL
MODEL 7
REMARK VINA RESULT:    -6.602      3.950      5.042
REMARK INTER + INTRA:         -11.439
REMARK INTER:                  -8.989
REMARK INTRA:                  -2.450
REMARK CONF_INDEPENDENT:        2.386
REMARK UNBOUND:                -2.450
REMARK  8 active torsions:
REMARK  status: ('A' for Active; 'I' for Inactive)
REMARK    1  A    between atoms: O_2  and  C_3 
REMARK    2  A    between atoms: C_5  and  N_6 
REMARK    3  A    between atoms: N_6  and  C_7 
REMARK    4  A    between atoms: C_10  and  O_11 
REMARK    5  A    between atoms: C_12  and  O_13 
REMARK    6  A    between atoms: C_15  and  C_16 
REMARK       I    between atoms: C_16  and  N_18 
REMARK    7  A    between atoms: N_18  and  C_19 
REMARK    8  A    between atoms: C_28  and  O_29 
ROOT
ATOM      1  C   UNL d   1      28.377 -15.551  -0.330  0.00  0.00     0.163 C 
ATOM      2  N   UNL d   1      27.366 -16.103  -0.918  0.00  0.00    -0.258 NA
ATOM      3  C   UNL d   1      27.441 -16.029  -2.408  0.00  0.00     0.157 C 
ATOM      4  C   UNL d   1      26.284 -15.148  -2.974  0.00  0.00     0.172 C 
ATOM      5  C   UNL d   1      26.528 -14.573  -4.377  0.00  0.00     0.149 C 
ATOM      6  C   UNL d   1      27.899 -13.895  -4.417  0.00  0.00     0.049 C 
ATOM      7  C   UNL d   1      29.060 -14.850  -4.111  0.00  0.00     0.097 C 
ATOM      8  C   UNL d   1      28.878 -15.716  -2.857  0.00  0.00     0.096 C 
ATOM      9  S   UNL d   1      29.677 -15.033  -1.391  0.00  0.00    -0.084 SA
ENDROOT
BRANCH   1  10
ATOM     10  N   UNL d   1      28.513 -15.441   1.037  0.00  0.00    -0.335 N 
ATOM     11  H   UNL d   1      28.570 -16.332   1.515  0.00  0.00     0.168 HD
BRANCH  10  12
ATOM     12  C   UNL d   1      27.964 -14.415   1.858  0.00  0.00     0.039 C 
ATOM     13  C   UNL d   1      28.103 -14.455   3.261  0.00  0.00     0.066 C 
ATOM     14  C   UNL d   1      27.815 -13.328   4.057  0.00  0.00     0.073 C 
ATOM     15  C   UNL d   1      27.370 -12.157   3.454  0.00  0.00     0.073 C 
ATOM     16  C   UNL d   1      27.159 -12.119   2.080  0.00  0.00     0.073 C 
ATOM     17  C   UNL d   1      27.414 -13.252   1.311  0.00  0.00     0.066 C 
BRANCH  14  18
ATOM     18  O   UNL d   1      28.122 -13.424   5.391  0.00  0.00    -0.356 OA
ATOM     19  C   UNL d   1      28.905 -14.550   5.796  0.00  0.00     0.210 C 
ENDBRANCH  14  18
BRANCH  16  20
ATOM     20  O   UNL d   1      26.760 -11.024   1.361  0.00  0.00    -0.356 OA
ATOM     21  C   UNL d   1      26.455  -9.861   2.119  0.00  0.00     0.210 C 
ENDBRANCH  16  20
ENDBRANCH  10  12
ENDBRANCH   1  10
BRANCH   4  22
ATOM     22  O   UNL d   1      25.979 -14.048  -2.113  0.00  0.00    -0.391 OA
ATOM     23  H   UNL d   1      26.316 -14.251  -1.226  0.00  0.00     0.210 HD
ENDBRANCH   4  22
BRANCH   7  24
ATOM     24  C   UNL d   1      29.360 -15.729  -5.331  0.00  0.00     0.227 C 
ATOM     25  O   UNL d   1      28.736 -15.577  -6.370  0.00  0.00    -0.273 OA
ATOM     26  N   UNL d   1      30.224 -16.797  -5.087  0.00  0.00    -0.327 N 
ATOM     27  H   UNL d   1      30.678 -16.940  -4.191  0.00  0.00     0.169 HD
BRANCH  26  28
ATOM     28  C   UNL d   1      30.619 -17.723  -6.061  0.00  0.00     0.034 A 
ATOM     29  C   UNL d   1      31.100 -17.275  -7.298  0.00  0.00     0.029 A 
ATOM     30  C   UNL d   1      31.357 -18.202  -8.309  0.00  0.00     0.002 A 
ATOM     31  C   UNL d   1      31.138 -19.560  -8.073  0.00  0.00     0.000 A 
ATOM     32  C   UNL d   1      30.654 -19.993  -6.839  0.00  0.00     0.002 A 
ATOM     33  C   UNL d   1      30.405 -19.075  -5.830  0.00  0.00     0.029 A 
ENDBRANCH  26  28
ENDBRANCH   7  24
BRANCH   5  34
ATOM     34  O   UNL d   1      26.320 -15.583  -5.353  0.00  0.00    -0.393 OA
ATOM     35  H   UNL d   1      26.920 -15.477  -6.109  0.00  0.00     0.210 HD
ENDBRANCH   5  34
TORSDOF 8
ENDMDL
MODEL 8
REMARK VINA RESULT:    -6.558      2.482      4.495
REMARK INTER + INTRA:         -11.505
REMARK INTER:                  -8.944
REMARK INTRA:                  -2.561
REMARK CONF_INDEPENDENT:        2.386
REMARK UNBOUND:                -2.561
REMARK  8 active torsions:
REMARK  status: ('A' for Active; 'I' for Inactive)
REMARK    1  A    between atoms: O_2  and  C_3 
REMARK    2  A    between atoms: C_5  and  N_6 
REMARK    3  A    between atoms: N_6  and  C_7 
REMARK    4  A    between atoms: C_10  and  O_11 
REMARK    5  A    between atoms: C_12  and  O_13 
REMARK    6  A    between atoms: C_15  and  C_16 
REMARK       I    between atoms: C_16  and  N_18 
REMARK    7  A    between atoms: N_18  and  C_19 
REMARK    8  A    between atoms: C_28  and  O_29 
ROOT
ATOM      1  C   UNL d   1      25.590 -14.885  -3.107  0.00  0.00     0.163 C 
ATOM      2  N   UNL d   1      26.606 -14.242  -2.630  0.00  0.00    -0.258 NA
ATOM      3  C   UNL d   1      27.750 -14.158  -3.586  0.00  0.00     0.157 C 
ATOM      4  C   UNL d   1      28.985 -14.938  -3.036  0.00  0.00     0.172 C 
ATOM      5  C   UNL d   1      30.012 -15.367  -4.094  0.00  0.00     0.149 C 
ATOM      6  C   UNL d   1      29.291 -16.079  -5.241  0.00  0.00     0.049 C 
ATOM      7  C   UNL d   1      28.252 -15.198  -5.948  0.00  0.00     0.097 C 
ATOM      8  C   UNL d   1      27.277 -14.467  -5.016  0.00  0.00     0.096 C 
ATOM      9  S   UNL d   1      25.706 -15.326  -4.803  0.00  0.00    -0.084 SA
ENDROOT
BRANCH   1  10
ATOM     10  N   UNL d   1      24.436 -15.144  -2.401  0.00  0.00    -0.335 N 
ATOM     11  H   UNL d   1      23.865 -14.325  -2.235  0.00  0.00     0.168 HD
BRANCH  10  12
ATOM     12  C   UNL d   1      24.270 -16.137  -1.393  0.00  0.00     0.039 C 
ATOM     13  C   UNL d   1      22.988 -16.594  -1.027  0.00  0.00     0.066 C 
ATOM     14  C   UNL d   1      22.820 -17.754  -0.244  0.00  0.00     0.073 C 
ATOM     15  C   UNL d   1      23.939 -18.456   0.192  0.00  0.00     0.073 C 
ATOM     16  C   UNL d   1      25.213 -17.982  -0.098  0.00  0.00     0.073 C 
ATOM     17  C   UNL d   1      25.362 -16.814  -0.842  0.00  0.00     0.066 C 
BRANCH  14  18
ATOM     18  O   UNL d   1      21.533 -18.196  -0.069  0.00  0.00    -0.356 OA
ATOM     19  C   UNL d   1      21.097 -19.271  -0.904  0.00  0.00     0.210 C 
ENDBRANCH  14  18
BRANCH  16  20
ATOM     20  O   UNL d   1      26.391 -18.594   0.239  0.00  0.00    -0.356 OA
ATOM     21  C   UNL d   1      27.573 -17.844  -0.006  0.00  0.00     0.210 C 
ENDBRANCH  16  20
ENDBRANCH  10  12
ENDBRANCH   1  10
BRANCH   4  22
ATOM     22  O   UNL d   1      28.600 -16.114  -2.319  0.00  0.00    -0.391 OA
ATOM     23  H   UNL d   1      27.632 -16.126  -2.248  0.00  0.00     0.210 HD
ENDBRANCH   4  22
BRANCH   7  24
ATOM     24  C   UNL d   1      28.948 -14.203  -6.885  0.00  0.00     0.227 C 
ATOM     25  O   UNL d   1      30.138 -14.319  -7.133  0.00  0.00    -0.273 OA
ATOM     26  N   UNL d   1      28.179 -13.095  -7.241  0.00  0.00    -0.327 N 
ATOM     27  H   UNL d   1      27.209 -12.991  -6.964  0.00  0.00     0.169 HD
BRANCH  26  28
ATOM     28  C   UNL d   1      28.628 -12.067  -8.078  0.00  0.00     0.034 A 
ATOM     29  C   UNL d   1      28.593 -10.738  -7.636  0.00  0.00     0.029 A 
ATOM     30  C   UNL d   1      28.911  -9.711  -8.526  0.00  0.00     0.002 A 
ATOM     31  C   UNL d   1      29.263 -10.020  -9.840  0.00  0.00     0.000 A 
ATOM     32  C   UNL d   1      29.290 -11.346 -10.270  0.00  0.00     0.002 A 
ATOM     33  C   UNL d   1      28.982 -12.370  -9.386  0.00  0.00     0.029 A 
ENDBRANCH  26  28
ENDBRANCH   7  24
BRANCH   5  34
ATOM     34  O   UNL d   1      30.806 -14.252  -4.473  0.00  0.00    -0.393 OA
ATOM     35  H   UNL d   1      30.532 -13.896  -5.334  0.00  0.00     0.210 HD
ENDBRANCH   5  34
TORSDOF 8
ENDMDL
