MODEL 1
REMARK VINA RESULT:    -9.392      0.000      0.000
REMARK INTER + INTRA:         -16.363
REMARK INTER:                 -13.867
REMARK INTRA:                  -2.496
REMARK CONF_INDEPENDENT:        4.474
REMARK UNBOUND:                -2.496
REMARK  15 active torsions:
REMARK  status: ('A' for Active; 'I' for Inactive)
REMARK    1  A    between atoms: C_2  and  O_5 
REMARK    2  A    between atoms: O_5  and  C_6 
REMARK       I    between atoms: C_6  and  N_8 
REMARK    3  A    between atoms: N_8  and  C_9 
REMARK    4  A    between atoms: C_9  and  C_10 
REMARK    5  A    between atoms: C_10  and  C_11 
REMARK    6  A    between atoms: C_11  and  C_12 
REMARK    7  A    between atoms: C_13  and  C_12 
REMARK    8  A    between atoms: C_13  and  C_25 
REMARK    9  A    between atoms: C_13  and  N_14 
REMARK       I    between atoms: N_14  and  C_15 
REMARK   10  A    between atoms: C_15  and  O_17 
REMARK   11  A    between atoms: O_17  and  C_18 
REMARK   12  A    between atoms: C_18  and  C_19 
REMARK   13  A    between atoms: C_25  and  O_27 
REMARK   14  A    between atoms: O_27  and  C_28 
REMARK   15  A    between atoms: C_31  and  N_32 
ROOT
ATOM      1  C   UNL d   1      26.984 -15.129   0.513  0.00  0.00     0.187 C 
ENDROOT
BRANCH   1   2
ATOM      2  C   UNL d   1      26.544 -16.575   0.167  0.00  0.00     0.287 C 
ATOM      3  O   UNL d   1      26.828 -17.531   0.884  0.00  0.00    -0.263 OA
BRANCH   2   4
ATOM      4  O   UNL d   1      25.776 -16.658  -0.997  0.00  0.00    -0.277 OA
BRANCH   4   5
ATOM      5  C   UNL d   1      24.492 -17.244  -0.873  0.00  0.00     0.079 A 
ATOM      6  C   UNL d   1      24.416 -18.630  -0.704  0.00  0.00     0.040 A 
ATOM      7  C   UNL d   1      23.159 -19.257  -0.694  0.00  0.00     0.039 A 
ATOM      8  C   UNL d   1      21.989 -18.482  -0.748  0.00  0.00     0.103 A 
ATOM      9  C   UNL d   1      22.065 -17.099  -0.894  0.00  0.00     0.039 A 
ATOM     10  C   UNL d   1      23.314 -16.496  -0.988  0.00  0.00     0.040 A 
BRANCH   8  11
ATOM     11  N   UNL d   1      20.670 -19.113  -0.607  0.00  0.00    -0.116 N 
ATOM     12  O   UNL d   1      20.247 -19.779  -1.560  0.00  0.00    -0.532 OA
ATOM     13  O   UNL d   1      20.064 -18.950   0.463  0.00  0.00    -0.532 OA
ENDBRANCH   8  11
ENDBRANCH   4   5
ENDBRANCH   2   4
ENDBRANCH   1   2
BRANCH   1  14
ATOM     14  N   UNL d   1      27.911 -15.208   1.668  0.00  0.00    -0.323 N 
ATOM     15  C   UNL d   1      27.887 -14.258   2.665  0.00  0.00     0.361 C 
ATOM     16  O   UNL d   1      27.110 -13.306   2.708  0.00  0.00    -0.238 OA
ATOM     17  H   UNL d   1      28.584 -15.962   1.736  0.00  0.00     0.165 HD
BRANCH  15  18
ATOM     18  O   UNL d   1      28.821 -14.457   3.613  0.00  0.00    -0.299 OA
BRANCH  18  19
ATOM     19  C   UNL d   1      28.206 -14.819   4.874  0.00  0.00     0.219 C 
BRANCH  19  20
ATOM     20  C   UNL d   1      28.555 -13.802   5.927  0.00  0.00    -0.034 A 
ATOM     21  C   UNL d   1      29.484 -14.086   6.940  0.00  0.00     0.009 A 
ATOM     22  C   UNL d   1      29.673 -13.178   7.985  0.00  0.00     0.001 A 
ATOM     23  C   UNL d   1      29.019 -11.947   7.968  0.00  0.00     0.000 A 
ATOM     24  C   UNL d   1      28.153 -11.630   6.926  0.00  0.00     0.001 A 
ATOM     25  C   UNL d   1      27.928 -12.551   5.912  0.00  0.00     0.009 A 
ENDBRANCH  19  20
ENDBRANCH  18  19
ENDBRANCH  15  18
ENDBRANCH   1  14
BRANCH   1  26
ATOM     26  C   UNL d   1      27.603 -14.321  -0.639  0.00  0.00     0.035 C 
BRANCH  26  27
ATOM     27  C   UNL d   1      26.594 -13.380  -1.280  0.00  0.00     0.004 C 
BRANCH  27  28
ATOM     28  C   UNL d   1      25.534 -14.059  -2.113  0.00  0.00     0.020 C 
BRANCH  28  29
ATOM     29  C   UNL d   1      25.416 -13.311  -3.433  0.00  0.00     0.125 C 
BRANCH  29  30
ATOM     30  N   UNL d   1      26.425 -13.709  -4.385  0.00  0.00    -0.337 N 
ATOM     31  C   UNL d   1      26.396 -14.974  -4.902  0.00  0.00     0.361 C 
ATOM     32  O   UNL d   1      25.531 -15.786  -4.588  0.00  0.00    -0.238 OA
ATOM     33  H   UNL d   1      27.165 -13.080  -4.661  0.00  0.00     0.164 HD
BRANCH  31  34
ATOM     34  O   UNL d   1      27.412 -15.202  -5.783  0.00  0.00    -0.294 OA
BRANCH  34  35
ATOM     35  C   UNL d   1      28.774 -15.237  -5.256  0.00  0.00     0.061 C 
ATOM     36  C   UNL d   1      29.338 -13.800  -5.221  0.00  0.00     0.046 C 
ATOM     37  C   UNL d   1      29.695 -16.063  -6.165  0.00  0.00     0.046 C 
ATOM     38  C   UNL d   1      28.793 -15.766  -3.815  0.00  0.00     0.046 C 
ENDBRANCH  34  35
ENDBRANCH  31  34
ENDBRANCH  29  30
ENDBRANCH  28  29
ENDBRANCH  27  28
ENDBRANCH  26  27
ENDBRANCH   1  26
TORSDOF 15
ENDMDL
MODEL 2
REMARK VINA RESULT:    -9.179      3.250      9.225
REMARK INTER + INTRA:         -16.558
REMARK INTER:                 -13.654
REMARK INTRA:                  -2.904
REMARK CONF_INDEPENDENT:        4.474
REMARK UNBOUND:                -2.904
REMARK  15 active torsions:
REMARK  status: ('A' for Active; 'I' for Inactive)
REMARK    1  A    between atoms: C_2  and  O_5 
REMARK    2  A    between atoms: O_5  and  C_6 
REMARK       I    between atoms: C_6  and  N_8 
REMARK    3  A    between atoms: N_8  and  C_9 
REMARK    4  A    between atoms: C_9  and  C_10 
REMARK    5  A    between atoms: C_10  and  C_11 
REMARK    6  A    between atoms: C_11  and  C_12 
REMARK    7  A    between atoms: C_13  and  C_12 
REMARK    8  A    between atoms: C_13  and  C_25 
REMARK    9  A    between atoms: C_13  and  N_14 
REMARK       I    between atoms: N_14  and  C_15 
REMARK   10  A    between atoms: C_15  and  O_17 
REMARK   11  A    between atoms: O_17  and  C_18 
REMARK   12  A    between atoms: C_18  and  C_19 
REMARK   13  A    between atoms: C_25  and  O_27 
REMARK   14  A    between atoms: O_27  and  C_28 
REMARK   15  A    between atoms: C_31  and  N_32 
ROOT
ATOM      1  C   UNL d   1      26.165 -15.074  -1.255  0.00  0.00     0.187 C 
ENDROOT
BRANCH   1   2
ATOM      2  C   UNL d   1      26.979 -14.562  -0.038  0.00  0.00     0.287 C 
ATOM      3  O   UNL d   1      26.970 -15.147   1.042  0.00  0.00    -0.263 OA
BRANCH   2   4
ATOM      4  O   UNL d   1      27.731 -13.419  -0.315  0.00  0.00    -0.277 OA
BRANCH   4   5
ATOM      5  C   UNL d   1      27.298 -12.211   0.287  0.00  0.00     0.079 A 
ATOM      6  C   UNL d   1      27.597 -11.009  -0.360  0.00  0.00     0.040 A 
ATOM      7  C   UNL d   1      27.286  -9.790   0.265  0.00  0.00     0.039 A 
ATOM      8  C   UNL d   1      26.586  -9.786   1.483  0.00  0.00     0.103 A 
ATOM      9  C   UNL d   1      26.268 -10.985   2.117  0.00  0.00     0.039 A 
ATOM     10  C   UNL d   1      26.655 -12.185   1.531  0.00  0.00     0.040 A 
BRANCH   8  11
ATOM     11  N   UNL d   1      26.140  -8.522   2.081  0.00  0.00    -0.116 N 
ATOM     12  O   UNL d   1      25.379  -7.807   1.416  0.00  0.00    -0.532 OA
ATOM     13  O   UNL d   1      26.544  -8.250   3.222  0.00  0.00    -0.532 OA
ENDBRANCH   8  11
ENDBRANCH   4   5
ENDBRANCH   2   4
ENDBRANCH   1   2
BRANCH   1  14
ATOM     14  N   UNL d   1      26.634 -14.333  -2.451  0.00  0.00    -0.323 N 
ATOM     15  C   UNL d   1      25.880 -14.291  -3.603  0.00  0.00     0.361 C 
ATOM     16  O   UNL d   1      24.778 -14.818  -3.740  0.00  0.00    -0.238 OA
ATOM     17  H   UNL d   1      27.525 -13.852  -2.439  0.00  0.00     0.165 HD
BRANCH  15  18
ATOM     18  O   UNL d   1      26.473 -13.614  -4.603  0.00  0.00    -0.299 OA
BRANCH  18  19
ATOM     19  C   UNL d   1      25.657 -12.491  -5.018  0.00  0.00     0.219 C 
BRANCH  19  20
ATOM     20  C   UNL d   1      26.234 -11.209  -4.480  0.00  0.00    -0.034 A 
ATOM     21  C   UNL d   1      25.634 -10.528  -3.410  0.00  0.00     0.009 A 
ATOM     22  C   UNL d   1      26.107  -9.268  -3.035  0.00  0.00     0.001 A 
ATOM     23  C   UNL d   1      27.239  -8.734  -3.650  0.00  0.00     0.000 A 
ATOM     24  C   UNL d   1      27.881  -9.440  -4.662  0.00  0.00     0.001 A 
ATOM     25  C   UNL d   1      27.384 -10.670  -5.069  0.00  0.00     0.009 A 
ENDBRANCH  19  20
ENDBRANCH  18  19
ENDBRANCH  15  18
ENDBRANCH   1  14
BRANCH   1  26
ATOM     26  C   UNL d   1      26.197 -16.592  -1.496  0.00  0.00     0.035 C 
BRANCH  26  27
ATOM     27  C   UNL d   1      25.155 -17.323  -0.663  0.00  0.00     0.004 C 
BRANCH  27  28
ATOM     28  C   UNL d   1      23.778 -17.378  -1.277  0.00  0.00     0.020 C 
BRANCH  28  29
ATOM     29  C   UNL d   1      23.150 -18.717  -0.913  0.00  0.00     0.125 C 
BRANCH  29  30
ATOM     30  N   UNL d   1      21.835 -18.570  -0.336  0.00  0.00    -0.337 N 
ATOM     31  C   UNL d   1      20.755 -19.097  -0.987  0.00  0.00     0.361 C 
ATOM     32  O   UNL d   1      20.867 -19.700  -2.050  0.00  0.00    -0.238 OA
ATOM     33  H   UNL d   1      21.694 -18.068   0.528  0.00  0.00     0.164 HD
BRANCH  31  34
ATOM     34  O   UNL d   1      19.585 -18.876  -0.322  0.00  0.00    -0.294 OA
BRANCH  34  35
ATOM     35  C   UNL d   1      19.096 -19.931   0.563  0.00  0.00     0.061 C 
ATOM     36  C   UNL d   1      20.280 -20.832   0.975  0.00  0.00     0.046 C 
ATOM     37  C   UNL d   1      18.076 -20.825  -0.158  0.00  0.00     0.046 C 
ATOM     38  C   UNL d   1      18.507 -19.340   1.851  0.00  0.00     0.046 C 
ENDBRANCH  34  35
ENDBRANCH  31  34
ENDBRANCH  29  30
ENDBRANCH  28  29
ENDBRANCH  27  28
ENDBRANCH  26  27
ENDBRANCH   1  26
TORSDOF 15
ENDMDL
MODEL 3
REMARK VINA RESULT:    -8.860      3.345      6.337
REMARK INTER + INTRA:         -16.613
REMARK INTER:                 -13.334
REMARK INTRA:                  -3.279
REMARK CONF_INDEPENDENT:        4.474
REMARK UNBOUND:                -3.279
REMARK  15 active torsions:
REMARK  status: ('A' for Active; 'I' for Inactive)
REMARK    1  A    between atoms: C_2  and  O_5 
REMARK    2  A    between atoms: O_5  and  C_6 
REMARK       I    between atoms: C_6  and  N_8 
REMARK    3  A    between atoms: N_8  and  C_9 
REMARK    4  A    between atoms: C_9  and  C_10 
REMARK    5  A    between atoms: C_10  and  C_11 
REMARK    6  A    between atoms: C_11  and  C_12 
REMARK    7  A    between atoms: C_13  and  C_12 
REMARK    8  A    between atoms: C_13  and  C_25 
REMARK    9  A    between atoms: C_13  and  N_14 
REMARK       I    between atoms: N_14  and  C_15 
REMARK   10  A    between atoms: C_15  and  O_17 
REMARK   11  A    between atoms: O_17  and  C_18 
REMARK   12  A    between atoms: C_18  and  C_19 
REMARK   13  A    between atoms: C_25  and  O_27 
REMARK   14  A    between atoms: O_27  and  C_28 
REMARK   15  A    between atoms: C_31  and  N_32 
ROOT
ATOM      1  C   UNL d   1      28.032 -16.514   0.525  0.00  0.00     0.187 C 
ENDROOT
BRANCH   1   2
ATOM      2  C   UNL d   1      26.778 -17.149  -0.129  0.00  0.00     0.287 C 
ATOM      3  O   UNL d   1      26.836 -18.202  -0.760  0.00  0.00    -0.263 OA
BRANCH   2   4
ATOM      4  O   UNL d   1      25.605 -16.430   0.109  0.00  0.00    -0.277 OA
BRANCH   4   5
ATOM      5  C   UNL d   1      24.385 -17.084  -0.200  0.00  0.00     0.079 A 
ATOM      6  C   UNL d   1      23.330 -16.309  -0.690  0.00  0.00     0.040 A 
ATOM      7  C   UNL d   1      22.073 -16.902  -0.895  0.00  0.00     0.039 A 
ATOM      8  C   UNL d   1      21.912 -18.285  -0.708  0.00  0.00     0.103 A 
ATOM      9  C   UNL d   1      22.970 -19.061  -0.240  0.00  0.00     0.039 A 
ATOM     10  C   UNL d   1      24.187 -18.449   0.041  0.00  0.00     0.040 A 
BRANCH   8  11
ATOM     11  N   UNL d   1      20.642 -18.939  -1.043  0.00  0.00    -0.116 N 
ATOM     12  O   UNL d   1      19.658 -18.682  -0.337  0.00  0.00    -0.532 OA
ATOM     13  O   UNL d   1      20.625 -19.702  -2.021  0.00  0.00    -0.532 OA
ENDBRANCH   8  11
ENDBRANCH   4   5
ENDBRANCH   2   4
ENDBRANCH   1   2
BRANCH   1  14
ATOM     14  N   UNL d   1      29.224 -17.189  -0.044  0.00  0.00    -0.323 N 
ATOM     15  C   UNL d   1      29.421 -17.257  -1.405  0.00  0.00     0.361 C 
ATOM     16  O   UNL d   1      28.675 -16.763  -2.248  0.00  0.00    -0.238 OA
ATOM     17  H   UNL d   1      29.910 -17.618   0.566  0.00  0.00     0.165 HD
BRANCH  15  18
ATOM     18  O   UNL d   1      30.528 -17.941  -1.749  0.00  0.00    -0.299 OA
BRANCH  18  19
ATOM     19  C   UNL d   1      31.046 -17.475  -3.020  0.00  0.00     0.219 C 
BRANCH  19  20
ATOM     20  C   UNL d   1      30.991 -18.585  -4.035  0.00  0.00    -0.034 A 
ATOM     21  C   UNL d   1      31.548 -19.846  -3.773  0.00  0.00     0.009 A 
ATOM     22  C   UNL d   1      31.613 -20.803  -4.788  0.00  0.00     0.001 A 
ATOM     23  C   UNL d   1      31.031 -20.546  -6.029  0.00  0.00     0.000 A 
ATOM     24  C   UNL d   1      30.412 -19.324  -6.270  0.00  0.00     0.001 A 
ATOM     25  C   UNL d   1      30.389 -18.354  -5.277  0.00  0.00     0.009 A 
ENDBRANCH  19  20
ENDBRANCH  18  19
ENDBRANCH  15  18
ENDBRANCH   1  14
BRANCH   1  26
ATOM     26  C   UNL d   1      28.152 -14.986   0.406  0.00  0.00     0.035 C 
BRANCH  26  27
ATOM     27  C   UNL d   1      27.843 -14.498  -1.001  0.00  0.00     0.004 C 
BRANCH  27  28
ATOM     28  C   UNL d   1      26.464 -13.913  -1.180  0.00  0.00     0.020 C 
BRANCH  28  29
ATOM     29  C   UNL d   1      25.747 -14.709  -2.263  0.00  0.00     0.125 C 
BRANCH  29  30
ATOM     30  N   UNL d   1      26.633 -15.107  -3.331  0.00  0.00    -0.337 N 
ATOM     31  C   UNL d   1      26.213 -14.991  -4.626  0.00  0.00     0.361 C 
ATOM     32  O   UNL d   1      25.103 -14.553  -4.914  0.00  0.00    -0.238 OA
ATOM     33  H   UNL d   1      27.548 -15.487  -3.141  0.00  0.00     0.164 HD
BRANCH  31  34
ATOM     34  O   UNL d   1      27.156 -15.407  -5.521  0.00  0.00    -0.294 OA
BRANCH  34  35
ATOM     35  C   UNL d   1      28.387 -14.626  -5.623  0.00  0.00     0.061 C 
ATOM     36  C   UNL d   1      28.128 -13.204  -5.079  0.00  0.00     0.046 C 
ATOM     37  C   UNL d   1      28.824 -14.478  -7.088  0.00  0.00     0.046 C 
ATOM     38  C   UNL d   1      29.502 -15.243  -4.768  0.00  0.00     0.046 C 
ENDBRANCH  34  35
ENDBRANCH  31  34
ENDBRANCH  29  30
ENDBRANCH  28  29
ENDBRANCH  27  28
ENDBRANCH  26  27
ENDBRANCH   1  26
TORSDOF 15
ENDMDL
MODEL 4
REMARK VINA RESULT:    -8.544      1.624      7.136
REMARK INTER + INTRA:         -16.648
REMARK INTER:                 -13.018
REMARK INTRA:                  -3.630
REMARK CONF_INDEPENDENT:        4.474
REMARK UNBOUND:                -3.630
REMARK  15 active torsions:
REMARK  status: ('A' for Active; 'I' for Inactive)
REMARK    1  A    between atoms: C_2  and  O_5 
REMARK    2  A    between atoms: O_5  and  C_6 
REMARK       I    between atoms: C_6  and  N_8 
REMARK    3  A    between atoms: N_8  and  C_9 
REMARK    4  A    between atoms: C_9  and  C_10 
REMARK    5  A    between atoms: C_10  and  C_11 
REMARK    6  A    between atoms: C_11  and  C_12 
REMARK    7  A    between atoms: C_13  and  C_12 
REMARK    8  A    between atoms: C_13  and  C_25 
REMARK    9  A    between atoms: C_13  and  N_14 
REMARK       I    between atoms: N_14  and  C_15 
REMARK   10  A    between atoms: C_15  and  O_17 
REMARK   11  A    between atoms: O_17  and  C_18 
REMARK   12  A    between atoms: C_18  and  C_19 
REMARK   13  A    between atoms: C_25  and  O_27 
REMARK   14  A    between atoms: O_27  and  C_28 
REMARK   15  A    between atoms: C_31  and  N_32 
ROOT
ATOM      1  C   UNL d   1      27.213 -16.323  -2.287  0.00  0.00     0.187 C 
ENDROOT
BRANCH   1   2
ATOM      2  C   UNL d   1      26.775 -16.975  -0.950  0.00  0.00     0.287 C 
ATOM      3  O   UNL d   1      27.409 -17.893  -0.435  0.00  0.00    -0.263 OA
BRANCH   2   4
ATOM      4  O   UNL d   1      25.633 -16.392  -0.397  0.00  0.00    -0.277 OA
BRANCH   4   5
ATOM      5  C   UNL d   1      24.415 -17.098  -0.557  0.00  0.00     0.079 A 
ATOM      6  C   UNL d   1      23.261 -16.363  -0.844  0.00  0.00     0.040 A 
ATOM      7  C   UNL d   1      22.019 -17.017  -0.895  0.00  0.00     0.039 A 
ATOM      8  C   UNL d   1      21.957 -18.414  -0.762  0.00  0.00     0.103 A 
ATOM      9  C   UNL d   1      23.110 -19.149  -0.497  0.00  0.00     0.039 A 
ATOM     10  C   UNL d   1      24.323 -18.482  -0.365  0.00  0.00     0.040 A 
BRANCH   8  11
ATOM     11  N   UNL d   1      20.684 -19.124  -0.942  0.00  0.00    -0.116 N 
ATOM     12  O   UNL d   1      20.495 -19.700  -2.021  0.00  0.00    -0.532 OA
ATOM     13  O   UNL d   1      19.879 -19.113   0.001  0.00  0.00    -0.532 OA
ENDBRANCH   8  11
ENDBRANCH   4   5
ENDBRANCH   2   4
ENDBRANCH   1   2
BRANCH   1  14
ATOM     14  N   UNL d   1      26.009 -15.720  -2.908  0.00  0.00    -0.323 N 
ATOM     15  C   UNL d   1      25.989 -15.388  -4.244  0.00  0.00     0.361 C 
ATOM     16  O   UNL d   1      26.917 -15.575  -5.028  0.00  0.00    -0.238 OA
ATOM     17  H   UNL d   1      25.183 -15.536  -2.351  0.00  0.00     0.165 HD
BRANCH  15  18
ATOM     18  O   UNL d   1      24.835 -14.813  -4.632  0.00  0.00    -0.299 OA
BRANCH  18  19
ATOM     19  C   UNL d   1      24.469 -13.737  -3.733  0.00  0.00     0.219 C 
BRANCH  19  20
ATOM     20  C   UNL d   1      25.559 -12.700  -3.702  0.00  0.00    -0.034 A 
ATOM     21  C   UNL d   1      25.905 -11.967  -4.847  0.00  0.00     0.009 A 
ATOM     22  C   UNL d   1      27.018 -11.123  -4.823  0.00  0.00     0.001 A 
ATOM     23  C   UNL d   1      27.721 -10.926  -3.634  0.00  0.00     0.000 A 
ATOM     24  C   UNL d   1      27.335 -11.595  -2.477  0.00  0.00     0.001 A 
ATOM     25  C   UNL d   1      26.259 -12.471  -2.512  0.00  0.00     0.009 A 
ENDBRANCH  19  20
ENDBRANCH  18  19
ENDBRANCH  15  18
ENDBRANCH   1  14
BRANCH   1  26
ATOM     26  C   UNL d   1      28.358 -15.301  -2.193  0.00  0.00     0.035 C 
BRANCH  26  27
ATOM     27  C   UNL d   1      28.886 -15.166  -0.773  0.00  0.00     0.004 C 
BRANCH  27  28
ATOM     28  C   UNL d   1      28.690 -13.806  -0.151  0.00  0.00     0.020 C 
BRANCH  28  29
ATOM     29  C   UNL d   1      27.297 -13.760   0.462  0.00  0.00     0.125 C 
BRANCH  29  30
ATOM     30  N   UNL d   1      27.284 -14.211   1.833  0.00  0.00    -0.337 N 
ATOM     31  C   UNL d   1      27.009 -13.317   2.830  0.00  0.00     0.361 C 
ATOM     32  O   UNL d   1      26.766 -12.136   2.596  0.00  0.00    -0.238 OA
ATOM     33  H   UNL d   1      27.493 -15.169   2.073  0.00  0.00     0.164 HD
BRANCH  31  34
ATOM     34  O   UNL d   1      27.035 -13.889   4.068  0.00  0.00    -0.294 OA
BRANCH  34  35
ATOM     35  C   UNL d   1      28.278 -13.802   4.831  0.00  0.00     0.061 C 
ATOM     36  C   UNL d   1      27.996 -13.098   6.176  0.00  0.00     0.046 C 
ATOM     37  C   UNL d   1      29.322 -12.956   4.088  0.00  0.00     0.046 C 
ATOM     38  C   UNL d   1      28.823 -15.200   5.157  0.00  0.00     0.046 C 
ENDBRANCH  34  35
ENDBRANCH  31  34
ENDBRANCH  29  30
ENDBRANCH  28  29
ENDBRANCH  27  28
ENDBRANCH  26  27
ENDBRANCH   1  26
TORSDOF 15
ENDMDL
MODEL 5
REMARK VINA RESULT:    -8.481      1.439      2.804
REMARK INTER + INTRA:         -16.674
REMARK INTER:                 -12.955
REMARK INTRA:                  -3.719
REMARK CONF_INDEPENDENT:        4.474
REMARK UNBOUND:                -3.719
REMARK  15 active torsions:
REMARK  status: ('A' for Active; 'I' for Inactive)
REMARK    1  A    between atoms: C_2  and  O_5 
REMARK    2  A    between atoms: O_5  and  C_6 
REMARK       I    between atoms: C_6  and  N_8 
REMARK    3  A    between atoms: N_8  and  C_9 
REMARK    4  A    between atoms: C_9  and  C_10 
REMARK    5  A    between atoms: C_10  and  C_11 
REMARK    6  A    between atoms: C_11  and  C_12 
REMARK    7  A    between atoms: C_13  and  C_12 
REMARK    8  A    between atoms: C_13  and  C_25 
REMARK    9  A    between atoms: C_13  and  N_14 
REMARK       I    between atoms: N_14  and  C_15 
REMARK   10  A    between atoms: C_15  and  O_17 
REMARK   11  A    between atoms: O_17  and  C_18 
REMARK   12  A    between atoms: C_18  and  C_19 
REMARK   13  A    between atoms: C_25  and  O_27 
REMARK   14  A    between atoms: O_27  and  C_28 
REMARK   15  A    between atoms: C_31  and  N_32 
ROOT
ATOM      1  C   UNL d   1      27.440 -15.314  -0.524  0.00  0.00     0.187 C 
ENDROOT
BRANCH   1   2
ATOM      2  C   UNL d   1      26.486 -16.491  -0.855  0.00  0.00     0.287 C 
ATOM      3  O   UNL d   1      26.509 -17.059  -1.944  0.00  0.00    -0.263 OA
BRANCH   2   4
ATOM      4  O   UNL d   1      25.652 -16.845   0.207  0.00  0.00    -0.277 OA
BRANCH   4   5
ATOM      5  C   UNL d   1      24.353 -17.302  -0.128  0.00  0.00     0.079 A 
ATOM      6  C   UNL d   1      24.117 -18.680  -0.114  0.00  0.00     0.040 A 
ATOM      7  C   UNL d   1      22.877 -19.173  -0.553  0.00  0.00     0.039 A 
ATOM      8  C   UNL d   1      21.851 -18.279  -0.903  0.00  0.00     0.103 A 
ATOM      9  C   UNL d   1      22.080 -16.905  -0.896  0.00  0.00     0.039 A 
ATOM     10  C   UNL d   1      23.338 -16.430  -0.540  0.00  0.00     0.040 A 
BRANCH   8  11
ATOM     11  N   UNL d   1      20.511 -18.778  -1.238  0.00  0.00    -0.116 N 
ATOM     12  O   UNL d   1      19.540 -18.194  -0.741  0.00  0.00    -0.532 OA
ATOM     13  O   UNL d   1      20.432 -19.748  -2.007  0.00  0.00    -0.532 OA
ENDBRANCH   8  11
ENDBRANCH   4   5
ENDBRANCH   2   4
ENDBRANCH   1   2
BRANCH   1  14
ATOM     14  N   UNL d   1      26.794 -14.500   0.535  0.00  0.00    -0.323 N 
ATOM     15  C   UNL d   1      27.322 -13.287   0.920  0.00  0.00     0.361 C 
ATOM     16  O   UNL d   1      28.322 -12.769   0.428  0.00  0.00    -0.238 OA
ATOM     17  H   UNL d   1      25.956 -14.831   0.997  0.00  0.00     0.165 HD
BRANCH  15  18
ATOM     18  O   UNL d   1      26.638 -12.703   1.921  0.00  0.00    -0.299 OA
BRANCH  18  19
ATOM     19  C   UNL d   1      27.536 -12.003   2.818  0.00  0.00     0.219 C 
BRANCH  19  20
ATOM     20  C   UNL d   1      27.857 -12.872   4.004  0.00  0.00    -0.034 A 
ATOM     21  C   UNL d   1      27.779 -12.378   5.315  0.00  0.00     0.009 A 
ATOM     22  C   UNL d   1      28.228 -13.162   6.382  0.00  0.00     0.001 A 
ATOM     23  C   UNL d   1      28.653 -14.471   6.156  0.00  0.00     0.000 A 
ATOM     24  C   UNL d   1      28.662 -14.990   4.866  0.00  0.00     0.001 A 
ATOM     25  C   UNL d   1      28.262 -14.195   3.800  0.00  0.00     0.009 A 
ENDBRANCH  19  20
ENDBRANCH  18  19
ENDBRANCH  15  18
ENDBRANCH   1  14
BRANCH   1  26
ATOM     26  C   UNL d   1      28.874 -15.700  -0.128  0.00  0.00     0.035 C 
BRANCH  26  27
ATOM     27  C   UNL d   1      29.567 -16.505  -1.217  0.00  0.00     0.004 C 
BRANCH  27  28
ATOM     28  C   UNL d   1      29.988 -15.705  -2.425  0.00  0.00     0.020 C 
BRANCH  28  29
ATOM     29  C   UNL d   1      29.293 -16.291  -3.647  0.00  0.00     0.125 C 
BRANCH  29  30
ATOM     30  N   UNL d   1      27.908 -15.895  -3.735  0.00  0.00    -0.337 N 
ATOM     31  C   UNL d   1      27.440 -15.347  -4.897  0.00  0.00     0.361 C 
ATOM     32  O   UNL d   1      28.162 -15.183  -5.876  0.00  0.00    -0.238 OA
ATOM     33  H   UNL d   1      27.282 -15.997  -2.950  0.00  0.00     0.164 HD
BRANCH  31  34
ATOM     34  O   UNL d   1      26.117 -15.023  -4.826  0.00  0.00    -0.294 OA
BRANCH  34  35
ATOM     35  C   UNL d   1      25.749 -13.821  -4.082  0.00  0.00     0.061 C 
ATOM     36  C   UNL d   1      24.414 -14.071  -3.347  0.00  0.00     0.046 C 
ATOM     37  C   UNL d   1      25.530 -12.633  -5.029  0.00  0.00     0.046 C 
ATOM     38  C   UNL d   1      26.801 -13.494  -3.012  0.00  0.00     0.046 C 
ENDBRANCH  34  35
ENDBRANCH  31  34
ENDBRANCH  29  30
ENDBRANCH  28  29
ENDBRANCH  27  28
ENDBRANCH  26  27
ENDBRANCH   1  26
TORSDOF 15
ENDMDL
MODEL 6
REMARK VINA RESULT:    -8.319      1.842      6.819
REMARK INTER + INTRA:         -16.944
REMARK INTER:                 -12.794
REMARK INTRA:                  -4.151
REMARK CONF_INDEPENDENT:        4.474
REMARK UNBOUND:                -4.151
REMARK  15 active torsions:
REMARK  status: ('A' for Active; 'I' for Inactive)
REMARK    1  A    between atoms: C_2  and  O_5 
REMARK    2  A    between atoms: O_5  and  C_6 
REMARK       I    between atoms: C_6  and  N_8 
REMARK    3  A    between atoms: N_8  and  C_9 
REMARK    4  A    between atoms: C_9  and  C_10 
REMARK    5  A    between atoms: C_10  and  C_11 
REMARK    6  A    between atoms: C_11  and  C_12 
REMARK    7  A    between atoms: C_13  and  C_12 
REMARK    8  A    between atoms: C_13  and  C_25 
REMARK    9  A    between atoms: C_13  and  N_14 
REMARK       I    between atoms: N_14  and  C_15 
REMARK   10  A    between atoms: C_15  and  O_17 
REMARK   11  A    between atoms: O_17  and  C_18 
REMARK   12  A    between atoms: C_18  and  C_19 
REMARK   13  A    between atoms: C_25  and  O_27 
REMARK   14  A    between atoms: O_27  and  C_28 
REMARK   15  A    between atoms: C_31  and  N_32 
ROOT
ATOM      1  C   UNL d   1      26.904 -16.432  -2.140  0.00  0.00     0.187 C 
ENDROOT
BRANCH   1   2
ATOM      2  C   UNL d   1      26.502 -16.561  -0.649  0.00  0.00     0.287 C 
ATOM      3  O   UNL d   1      27.264 -17.031   0.192  0.00  0.00    -0.263 OA
BRANCH   2   4
ATOM      4  O   UNL d   1      25.228 -16.059  -0.373  0.00  0.00    -0.277 OA
BRANCH   4   5
ATOM      5  C   UNL d   1      24.143 -16.958  -0.528  0.00  0.00     0.079 A 
ATOM      6  C   UNL d   1      22.890 -16.427  -0.849  0.00  0.00     0.040 A 
ATOM      7  C   UNL d   1      21.771 -17.275  -0.896  0.00  0.00     0.039 A 
ATOM      8  C   UNL d   1      21.933 -18.660  -0.724  0.00  0.00     0.103 A 
ATOM      9  C   UNL d   1      23.186 -19.191  -0.425  0.00  0.00     0.039 A 
ATOM     10  C   UNL d   1      24.273 -18.333  -0.298  0.00  0.00     0.040 A 
BRANCH   8  11
ATOM     11  N   UNL d   1      20.795 -19.570  -0.899  0.00  0.00    -0.116 N 
ATOM     12  O   UNL d   1      20.331 -19.697  -2.039  0.00  0.00    -0.532 OA
ATOM     13  O   UNL d   1      20.373 -20.166   0.104  0.00  0.00    -0.532 OA
ENDBRANCH   8  11
ENDBRANCH   4   5
ENDBRANCH   2   4
ENDBRANCH   1   2
BRANCH   1  14
ATOM     14  N   UNL d   1      25.788 -15.762  -2.850  0.00  0.00    -0.323 N 
ATOM     15  C   UNL d   1      25.903 -15.394  -4.172  0.00  0.00     0.361 C 
ATOM     16  O   UNL d   1      26.891 -15.601  -4.874  0.00  0.00    -0.238 OA
ATOM     17  H   UNL d   1      24.922 -15.556  -2.365  0.00  0.00     0.165 HD
BRANCH  15  18
ATOM     18  O   UNL d   1      24.815 -14.759  -4.645  0.00  0.00    -0.299 OA
BRANCH  18  19
ATOM     19  C   UNL d   1      24.408 -13.697  -3.747  0.00  0.00     0.219 C 
BRANCH  19  20
ATOM     20  C   UNL d   1      25.571 -12.780  -3.475  0.00  0.00    -0.034 A 
ATOM     21  C   UNL d   1      26.215 -12.766  -2.229  0.00  0.00     0.009 A 
ATOM     22  C   UNL d   1      27.189 -11.801  -1.961  0.00  0.00     0.001 A 
ATOM     23  C   UNL d   1      27.597 -10.922  -2.963  0.00  0.00     0.000 A 
ATOM     24  C   UNL d   1      27.013 -10.981  -4.224  0.00  0.00     0.001 A 
ATOM     25  C   UNL d   1      26.010 -11.908  -4.477  0.00  0.00     0.009 A 
ENDBRANCH  19  20
ENDBRANCH  18  19
ENDBRANCH  15  18
ENDBRANCH   1  14
BRANCH   1  26
ATOM     26  C   UNL d   1      28.241 -15.725  -2.418  0.00  0.00     0.035 C 
BRANCH  26  27
ATOM     27  C   UNL d   1      29.431 -16.573  -1.996  0.00  0.00     0.004 C 
BRANCH  27  28
ATOM     28  C   UNL d   1      30.137 -16.098  -0.750  0.00  0.00     0.020 C 
BRANCH  28  29
ATOM     29  C   UNL d   1      29.433 -14.840  -0.256  0.00  0.00     0.125 C 
BRANCH  29  30
ATOM     30  N   UNL d   1      28.739 -15.052   0.992  0.00  0.00    -0.337 N 
ATOM     31  C   UNL d   1      28.093 -14.003   1.585  0.00  0.00     0.361 C 
ATOM     32  O   UNL d   1      28.079 -12.882   1.086  0.00  0.00    -0.238 OA
ATOM     33  H   UNL d   1      28.737 -15.953   1.446  0.00  0.00     0.164 HD
BRANCH  31  34
ATOM     34  O   UNL d   1      27.487 -14.357   2.755  0.00  0.00    -0.294 OA
BRANCH  34  35
ATOM     35  C   UNL d   1      28.198 -14.074   4.001  0.00  0.00     0.061 C 
ATOM     36  C   UNL d   1      29.712 -13.997   3.710  0.00  0.00     0.046 C 
ATOM     37  C   UNL d   1      27.989 -15.202   5.021  0.00  0.00     0.046 C 
ATOM     38  C   UNL d   1      27.777 -12.715   4.578  0.00  0.00     0.046 C 
ENDBRANCH  34  35
ENDBRANCH  31  34
ENDBRANCH  29  30
ENDBRANCH  28  29
ENDBRANCH  27  28
ENDBRANCH  26  27
ENDBRANCH   1  26
TORSDOF 15
ENDMDL
MODEL 7
REMARK VINA RESULT:    -8.076      3.819      7.834
REMARK INTER + INTRA:         -16.593
REMARK INTER:                 -12.551
REMARK INTRA:                  -4.042
REMARK CONF_INDEPENDENT:        4.474
REMARK UNBOUND:                -4.042
REMARK  15 active torsions:
REMARK  status: ('A' for Active; 'I' for Inactive)
REMARK    1  A    between atoms: C_2  and  O_5 
REMARK    2  A    between atoms: O_5  and  C_6 
REMARK       I    between atoms: C_6  and  N_8 
REMARK    3  A    between atoms: N_8  and  C_9 
REMARK    4  A    between atoms: C_9  and  C_10 
REMARK    5  A    between atoms: C_10  and  C_11 
REMARK    6  A    between atoms: C_11  and  C_12 
REMARK    7  A    between atoms: C_13  and  C_12 
REMARK    8  A    between atoms: C_13  and  C_25 
REMARK    9  A    between atoms: C_13  and  N_14 
REMARK       I    between atoms: N_14  and  C_15 
REMARK   10  A    between atoms: C_15  and  O_17 
REMARK   11  A    between atoms: O_17  and  C_18 
REMARK   12  A    between atoms: C_18  and  C_19 
REMARK   13  A    between atoms: C_25  and  O_27 
REMARK   14  A    between atoms: O_27  and  C_28 
REMARK   15  A    between atoms: C_31  and  N_32 
ROOT
ATOM      1  C   UNL d   1      25.135 -17.359  -0.387  0.00  0.00     0.187 C 
ENDROOT
BRANCH   1   2
ATOM      2  C   UNL d   1      25.266 -16.439  -1.628  0.00  0.00     0.287 C 
ATOM      3  O   UNL d   1      25.155 -16.872  -2.773  0.00  0.00    -0.263 OA
BRANCH   2   4
ATOM      4  O   UNL d   1      25.479 -15.098  -1.305  0.00  0.00    -0.277 OA
BRANCH   4   5
ATOM      5  C   UNL d   1      25.674 -14.205  -2.389  0.00  0.00     0.079 A 
ATOM      6  C   UNL d   1      24.779 -14.267  -3.461  0.00  0.00     0.040 A 
ATOM      7  C   UNL d   1      25.010 -13.479  -4.601  0.00  0.00     0.039 A 
ATOM      8  C   UNL d   1      26.074 -12.562  -4.614  0.00  0.00     0.103 A 
ATOM      9  C   UNL d   1      26.953 -12.484  -3.536  0.00  0.00     0.039 A 
ATOM     10  C   UNL d   1      26.765 -13.328  -2.448  0.00  0.00     0.040 A 
BRANCH   8  11
ATOM     11  N   UNL d   1      26.248 -11.641  -5.745  0.00  0.00    -0.116 N 
ATOM     12  O   UNL d   1      27.388 -11.213  -5.967  0.00  0.00    -0.532 OA
ATOM     13  O   UNL d   1      25.245 -11.356  -6.417  0.00  0.00    -0.532 OA
ENDBRANCH   8  11
ENDBRANCH   4   5
ENDBRANCH   2   4
ENDBRANCH   1   2
BRANCH   1  14
ATOM     14  N   UNL d   1      24.173 -18.435  -0.726  0.00  0.00    -0.323 N 
ATOM     15  C   UNL d   1      22.841 -18.157  -0.938  0.00  0.00     0.361 C 
ATOM     16  O   UNL d   1      22.343 -17.034  -0.895  0.00  0.00    -0.238 OA
ATOM     17  H   UNL d   1      24.483 -19.396  -0.799  0.00  0.00     0.165 HD
BRANCH  15  18
ATOM     18  O   UNL d   1      22.102 -19.252  -1.192  0.00  0.00    -0.299 OA
BRANCH  18  19
ATOM     19  C   UNL d   1      20.691 -18.923  -1.231  0.00  0.00     0.219 C 
BRANCH  19  20
ATOM     20  C   UNL d   1      19.990 -19.524  -0.042  0.00  0.00    -0.034 A 
ATOM     21  C   UNL d   1      20.493 -19.370   1.259  0.00  0.00     0.009 A 
ATOM     22  C   UNL d   1      19.905 -20.064   2.319  0.00  0.00     0.001 A 
ATOM     23  C   UNL d   1      18.756 -20.825   2.105  0.00  0.00     0.000 A 
ATOM     24  C   UNL d   1      18.211 -20.921   0.828  0.00  0.00     0.001 A 
ATOM     25  C   UNL d   1      18.822 -20.271  -0.235  0.00  0.00     0.009 A 
ENDBRANCH  19  20
ENDBRANCH  18  19
ENDBRANCH  15  18
ENDBRANCH   1  14
BRANCH   1  26
ATOM     26  C   UNL d   1      26.448 -17.943   0.160  0.00  0.00     0.035 C 
BRANCH  26  27
ATOM     27  C   UNL d   1      27.261 -16.904   0.918  0.00  0.00     0.004 C 
BRANCH  27  28
ATOM     28  C   UNL d   1      28.106 -16.004   0.050  0.00  0.00     0.020 C 
BRANCH  28  29
ATOM     29  C   UNL d   1      28.595 -16.816  -1.141  0.00  0.00     0.125 C 
BRANCH  29  30
ATOM     30  N   UNL d   1      28.076 -16.324  -2.394  0.00  0.00    -0.337 N 
ATOM     31  C   UNL d   1      28.880 -16.324  -3.499  0.00  0.00     0.361 C 
ATOM     32  O   UNL d   1      30.036 -16.736  -3.463  0.00  0.00    -0.238 OA
ATOM     33  H   UNL d   1      27.137 -15.961  -2.467  0.00  0.00     0.164 HD
BRANCH  31  34
ATOM     34  O   UNL d   1      28.252 -15.829  -4.604  0.00  0.00    -0.294 OA
BRANCH  34  35
ATOM     35  C   UNL d   1      29.050 -15.051  -5.550  0.00  0.00     0.061 C 
ATOM     36  C   UNL d   1      29.878 -14.006  -4.770  0.00  0.00     0.046 C 
ATOM     37  C   UNL d   1      28.150 -14.280  -6.525  0.00  0.00     0.046 C 
ATOM     38  C   UNL d   1      30.044 -15.949  -6.299  0.00  0.00     0.046 C 
ENDBRANCH  34  35
ENDBRANCH  31  34
ENDBRANCH  29  30
ENDBRANCH  28  29
ENDBRANCH  27  28
ENDBRANCH  26  27
ENDBRANCH   1  26
TORSDOF 15
ENDMDL
MODEL 8
REMARK VINA RESULT:    -7.892      4.349      6.269
REMARK INTER + INTRA:         -16.592
REMARK INTER:                 -12.367
REMARK INTRA:                  -4.225
REMARK CONF_INDEPENDENT:        4.474
REMARK UNBOUND:                -4.225
REMARK  15 active torsions:
REMARK  status: ('A' for Active; 'I' for Inactive)
REMARK    1  A    between atoms: C_2  and  O_5 
REMARK    2  A    between atoms: O_5  and  C_6 
REMARK       I    between atoms: C_6  and  N_8 
REMARK    3  A    between atoms: N_8  and  C_9 
REMARK    4  A    between atoms: C_9  and  C_10 
REMARK    5  A    between atoms: C_10  and  C_11 
REMARK    6  A    between atoms: C_11  and  C_12 
REMARK    7  A    between atoms: C_13  and  C_12 
REMARK    8  A    between atoms: C_13  and  C_25 
REMARK    9  A    between atoms: C_13  and  N_14 
REMARK       I    between atoms: N_14  and  C_15 
REMARK   10  A    between atoms: C_15  and  O_17 
REMARK   11  A    between atoms: O_17  and  C_18 
REMARK   12  A    between atoms: C_18  and  C_19 
REMARK   13  A    between atoms: C_25  and  O_27 
REMARK   14  A    between atoms: O_27  and  C_28 
REMARK   15  A    between atoms: C_31  and  N_32 
ROOT
ATOM      1  C   UNL d   1      27.180 -16.222  -2.124  0.00  0.00     0.187 C 
ENDROOT
BRANCH   1   2
ATOM      2  C   UNL d   1      26.595 -16.902  -0.859  0.00  0.00     0.287 C 
ATOM      3  O   UNL d   1      27.137 -17.871  -0.333  0.00  0.00    -0.263 OA
BRANCH   2   4
ATOM      4  O   UNL d   1      25.440 -16.281  -0.379  0.00  0.00    -0.277 OA
BRANCH   4   5
ATOM      5  C   UNL d   1      24.233 -17.016  -0.482  0.00  0.00     0.079 A 
ATOM      6  C   UNL d   1      24.299 -18.408  -0.365  0.00  0.00     0.040 A 
ATOM      7  C   UNL d   1      23.141 -19.175  -0.578  0.00  0.00     0.039 A 
ATOM      8  C   UNL d   1      21.909 -18.538  -0.800  0.00  0.00     0.103 A 
ATOM      9  C   UNL d   1      21.840 -17.150  -0.895  0.00  0.00     0.039 A 
ATOM     10  C   UNL d   1      23.007 -16.403  -0.767  0.00  0.00     0.040 A 
BRANCH   8  11
ATOM     11  N   UNL d   1      20.672 -19.322  -0.894  0.00  0.00    -0.116 N 
ATOM     12  O   UNL d   1      20.055 -19.550   0.155  0.00  0.00    -0.532 OA
ATOM     13  O   UNL d   1      20.312 -19.700  -2.019  0.00  0.00    -0.532 OA
ENDBRANCH   8  11
ENDBRANCH   4   5
ENDBRANCH   2   4
ENDBRANCH   1   2
BRANCH   1  14
ATOM     14  N   UNL d   1      26.068 -15.517  -2.808  0.00  0.00    -0.323 N 
ATOM     15  C   UNL d   1      26.119 -15.249  -4.158  0.00  0.00     0.361 C 
ATOM     16  O   UNL d   1      27.039 -15.576  -4.904  0.00  0.00    -0.238 OA
ATOM     17  H   UNL d   1      25.254 -15.215  -2.286  0.00  0.00     0.165 HD
BRANCH  15  18
ATOM     18  O   UNL d   1      25.049 -14.567  -4.606  0.00  0.00    -0.299 OA
BRANCH  18  19
ATOM     19  C   UNL d   1      24.754 -13.444  -3.738  0.00  0.00     0.219 C 
BRANCH  19  20
ATOM     20  C   UNL d   1      25.529 -12.233  -4.183  0.00  0.00    -0.034 A 
ATOM     21  C   UNL d   1      25.558 -11.060  -3.414  0.00  0.00     0.009 A 
ATOM     22  C   UNL d   1      26.161  -9.908  -3.926  0.00  0.00     0.001 A 
ATOM     23  C   UNL d   1      26.824  -9.951  -5.152  0.00  0.00     0.000 A 
ATOM     24  C   UNL d   1      26.861 -11.133  -5.884  0.00  0.00     0.001 A 
ATOM     25  C   UNL d   1      26.221 -12.266  -5.399  0.00  0.00     0.009 A 
ENDBRANCH  19  20
ENDBRANCH  18  19
ENDBRANCH  15  18
ENDBRANCH   1  14
BRANCH   1  26
ATOM     26  C   UNL d   1      28.372 -15.280  -1.892  0.00  0.00     0.035 C 
BRANCH  26  27
ATOM     27  C   UNL d   1      29.684 -16.040  -1.777  0.00  0.00     0.004 C 
BRANCH  27  28
ATOM     28  C   UNL d   1      29.656 -17.440  -2.340  0.00  0.00     0.020 C 
BRANCH  28  29
ATOM     29  C   UNL d   1      30.250 -17.400  -3.742  0.00  0.00     0.125 C 
BRANCH  29  30
ATOM     30  N   UNL d   1      29.496 -16.554  -4.635  0.00  0.00    -0.337 N 
ATOM     31  C   UNL d   1      29.917 -16.400  -5.926  0.00  0.00     0.361 C 
ATOM     32  O   UNL d   1      30.919 -16.964  -6.356  0.00  0.00    -0.238 OA
ATOM     33  H   UNL d   1      28.675 -16.058  -4.321  0.00  0.00     0.164 HD
BRANCH  31  34
ATOM     34  O   UNL d   1      29.106 -15.572  -6.646  0.00  0.00    -0.294 OA
BRANCH  34  35
ATOM     35  C   UNL d   1      29.464 -14.156  -6.707  0.00  0.00     0.061 C 
ATOM     36  C   UNL d   1      30.896 -14.022  -7.269  0.00  0.00     0.046 C 
ATOM     37  C   UNL d   1      29.466 -13.527  -5.307  0.00  0.00     0.046 C 
ATOM     38  C   UNL d   1      28.530 -13.394  -7.659  0.00  0.00     0.046 C 
ENDBRANCH  34  35
ENDBRANCH  31  34
ENDBRANCH  29  30
ENDBRANCH  28  29
ENDBRANCH  27  28
ENDBRANCH  26  27
ENDBRANCH   1  26
TORSDOF 15
ENDMDL
MODEL 9
REMARK VINA RESULT:    -6.949      3.071      6.686
REMARK INTER + INTRA:         -16.497
REMARK INTER:                 -11.424
REMARK INTRA:                  -5.073
REMARK CONF_INDEPENDENT:        4.474
REMARK UNBOUND:                -5.073
REMARK  15 active torsions:
REMARK  status: ('A' for Active; 'I' for Inactive)
REMARK    1  A    between atoms: C_2  and  O_5 
REMARK    2  A    between atoms: O_5  and  C_6 
REMARK       I    between atoms: C_6  and  N_8 
REMARK    3  A    between atoms: N_8  and  C_9 
REMARK    4  A    between atoms: C_9  and  C_10 
REMARK    5  A    between atoms: C_10  and  C_11 
REMARK    6  A    between atoms: C_11  and  C_12 
REMARK    7  A    between atoms: C_13  and  C_12 
REMARK    8  A    between atoms: C_13  and  C_25 
REMARK    9  A    between atoms: C_13  and  N_14 
REMARK       I    between atoms: N_14  and  C_15 
REMARK   10  A    between atoms: C_15  and  O_17 
REMARK   11  A    between atoms: O_17  and  C_18 
REMARK   12  A    between atoms: C_18  and  C_19 
REMARK   13  A    between atoms: C_25  and  O_27 
REMARK   14  A    between atoms: O_27  and  C_28 
REMARK   15  A    between atoms: C_31  and  N_32 
ROOT
ATOM      1  C   UNL d   1      28.071 -17.008  -0.362  0.00  0.00     0.187 C 
ENDROOT
BRANCH   1   2
ATOM      2  C   UNL d   1      26.588 -17.310  -0.023  0.00  0.00     0.287 C 
ATOM      3  O   UNL d   1      26.270 -18.008   0.937  0.00  0.00    -0.263 OA
BRANCH   2   4
ATOM      4  O   UNL d   1      25.684 -16.685  -0.883  0.00  0.00    -0.277 OA
BRANCH   4   5
ATOM      5  C   UNL d   1      24.384 -17.246  -0.958  0.00  0.00     0.079 A 
ATOM      6  C   UNL d   1      23.289 -16.384  -0.862  0.00  0.00     0.040 A 
ATOM      7  C   UNL d   1      21.990 -16.917  -0.815  0.00  0.00     0.039 A 
ATOM      8  C   UNL d   1      21.795 -18.300  -0.971  0.00  0.00     0.103 A 
ATOM      9  C   UNL d   1      22.886 -19.157  -1.088  0.00  0.00     0.039 A 
ATOM     10  C   UNL d   1      24.171 -18.627  -1.049  0.00  0.00     0.040 A 
BRANCH   8  11
ATOM     11  N   UNL d   1      20.439 -18.855  -1.054  0.00  0.00    -0.116 N 
ATOM     12  O   UNL d   1      19.522 -18.218  -0.520  0.00  0.00    -0.532 OA
ATOM     13  O   UNL d   1      20.290 -19.925  -1.665  0.00  0.00    -0.532 OA
ENDBRANCH   8  11
ENDBRANCH   4   5
ENDBRANCH   2   4
ENDBRANCH   1   2
BRANCH   1  14
ATOM     14  N   UNL d   1      28.132 -16.614  -1.790  0.00  0.00    -0.323 N 
ATOM     15  C   UNL d   1      29.312 -16.190  -2.361  0.00  0.00     0.361 C 
ATOM     16  O   UNL d   1      30.391 -16.125  -1.776  0.00  0.00    -0.238 OA
ATOM     17  H   UNL d   1      27.300 -16.644  -2.367  0.00  0.00     0.165 HD
BRANCH  15  18
ATOM     18  O   UNL d   1      29.180 -15.831  -3.652  0.00  0.00    -0.299 OA
BRANCH  18  19
ATOM     19  C   UNL d   1      30.457 -15.887  -4.334  0.00  0.00     0.219 C 
BRANCH  19  20
ATOM     20  C   UNL d   1      30.650 -17.247  -4.951  0.00  0.00    -0.034 A 
ATOM     21  C   UNL d   1      30.595 -17.434  -6.341  0.00  0.00     0.009 A 
ATOM     22  C   UNL d   1      30.627 -18.727  -6.870  0.00  0.00     0.001 A 
ATOM     23  C   UNL d   1      30.821 -19.822  -6.029  0.00  0.00     0.000 A 
ATOM     24  C   UNL d   1      30.950 -19.634  -4.657  0.00  0.00     0.001 A 
ATOM     25  C   UNL d   1      30.870 -18.354  -4.125  0.00  0.00     0.009 A 
ENDBRANCH  19  20
ENDBRANCH  18  19
ENDBRANCH  15  18
ENDBRANCH   1  14
BRANCH   1  26
ATOM     26  C   UNL d   1      28.766 -15.967   0.530  0.00  0.00     0.035 C 
BRANCH  26  27
ATOM     27  C   UNL d   1      27.773 -15.196   1.387  0.00  0.00     0.004 C 
BRANCH  27  28
ATOM     28  C   UNL d   1      27.884 -13.695   1.290  0.00  0.00     0.020 C 
BRANCH  28  29
ATOM     29  C   UNL d   1      26.809 -13.200   0.331  0.00  0.00     0.125 C 
BRANCH  29  30
ATOM     30  N   UNL d   1      26.576 -14.120  -0.756  0.00  0.00    -0.337 N 
ATOM     31  C   UNL d   1      27.045 -13.816  -2.003  0.00  0.00     0.361 C 
ATOM     32  O   UNL d   1      27.666 -12.782  -2.230  0.00  0.00    -0.238 OA
ATOM     33  H   UNL d   1      26.056 -14.975  -0.619  0.00  0.00     0.164 HD
BRANCH  31  34
ATOM     34  O   UNL d   1      26.746 -14.778  -2.924  0.00  0.00    -0.294 OA
BRANCH  34  35
ATOM     35  C   UNL d   1      26.309 -14.339  -4.248  0.00  0.00     0.061 C 
ATOM     36  C   UNL d   1      25.106 -13.384  -4.090  0.00  0.00     0.046 C 
ATOM     37  C   UNL d   1      25.835 -15.530  -5.093  0.00  0.00     0.046 C 
ATOM     38  C   UNL d   1      27.419 -13.556  -4.962  0.00  0.00     0.046 C 
ENDBRANCH  34  35
ENDBRANCH  31  34
ENDBRANCH  29  30
ENDBRANCH  28  29
ENDBRANCH  27  28
ENDBRANCH  26  27
ENDBRANCH   1  26
TORSDOF 15
ENDMDL
