MODEL 1
REMARK VINA RESULT:    -8.514      0.000      0.000
REMARK INTER + INTRA:         -10.634
REMARK INTER:                  -9.707
REMARK INTRA:                  -0.927
REMARK CONF_INDEPENDENT:        1.193
REMARK UNBOUND:                -0.927
REMARK  4 active torsions:
REMARK  status: ('A' for Active; 'I' for Inactive)
REMARK       I    between atoms: N_1  and  C_2 
REMARK    1  A    between atoms: C_2  and  C_4 
REMARK    2  A    between atoms: C_10  and  N_11 
REMARK       I    between atoms: N_11  and  C_12 
REMARK    3  A    between atoms: C_12  and  C_14 
REMARK    4  A    between atoms: C_15  and  C_16 
ROOT
ATOM      1  N   UNL d   1      24.443 -16.018  -1.713  0.00  0.00    -0.323 N 
ATOM      2  C   UNL d   1      24.204 -17.100  -0.881  0.00  0.00     0.245 C 
ATOM      3  O   UNL d   1      25.078 -17.773  -0.336  0.00  0.00    -0.268 OA
ATOM      4  H   UNL d   1      23.732 -15.299  -1.773  0.00  0.00     0.169 HD
ENDROOT
BRANCH   1   5
ATOM      5  C   UNL d   1      25.688 -15.774  -2.388  0.00  0.00     0.050 A 
ATOM      6  C   UNL d   1      26.843 -16.438  -1.923  0.00  0.00     0.032 A 
ATOM      7  C   UNL d   1      28.087 -16.267  -2.563  0.00  0.00     0.026 A 
ATOM      8  C   UNL d   1      28.192 -15.446  -3.683  0.00  0.00     0.035 A 
ATOM      9  C   UNL d   1      27.081 -14.757  -4.144  0.00  0.00     0.043 A 
ATOM     10 CL   UNL d   1      29.705 -15.231  -4.472  0.00  0.00    -0.084 Cl
ATOM     11  C   UNL d   1      25.850 -14.891  -3.482  0.00  0.00     0.060 A 
BRANCH  11  12
ATOM     12  C   UNL d   1      24.827 -13.892  -3.863  0.00  0.00     0.251 C 
ATOM     13  N   UNL d   1      25.280 -12.775  -4.525  0.00  0.00    -0.366 N 
ATOM     14  H   UNL d   1      24.576 -12.384  -5.141  0.00  0.00     0.159 HD
ATOM     15  H   UNL d   1      26.223 -12.741  -4.886  0.00  0.00     0.159 HD
ATOM     16  O   UNL d   1      23.650 -14.076  -3.607  0.00  0.00    -0.268 OA
ENDBRANCH  11  12
ENDBRANCH   1   5
BRANCH   2  17
ATOM     17  C   UNL d   1      22.788 -17.367  -0.511  0.00  0.00     0.075 C 
ATOM     18  C   UNL d   1      22.317 -18.605  -0.765  0.00  0.00     0.017 C 
BRANCH  18  19
ATOM     19  C   UNL d   1      21.075 -19.135  -0.193  0.00  0.00    -0.036 A 
ATOM     20  C   UNL d   1      20.939 -19.325   1.185  0.00  0.00     0.014 A 
ATOM     21  C   UNL d   1      19.784 -19.912   1.703  0.00  0.00     0.043 A 
ATOM     22  C   UNL d   1      18.756 -20.284   0.845  0.00  0.00     0.116 A 
ATOM     23  F   UNL d   1      17.657 -20.861   1.348  0.00  0.00    -0.206 F 
ATOM     24  C   UNL d   1      18.853 -20.069  -0.524  0.00  0.00     0.043 A 
ATOM     25  C   UNL d   1      20.012 -19.487  -1.045  0.00  0.00     0.014 A 
ENDBRANCH  18  19
ENDBRANCH   2  17
TORSDOF 4
ENDMDL
MODEL 2
REMARK VINA RESULT:    -8.297      2.119      3.023
REMARK INTER + INTRA:         -10.351
REMARK INTER:                  -9.491
REMARK INTRA:                  -0.861
REMARK CONF_INDEPENDENT:        1.193
REMARK UNBOUND:                -0.861
REMARK  4 active torsions:
REMARK  status: ('A' for Active; 'I' for Inactive)
REMARK       I    between atoms: N_1  and  C_2 
REMARK    1  A    between atoms: C_2  and  C_4 
REMARK    2  A    between atoms: C_10  and  N_11 
REMARK       I    between atoms: N_11  and  C_12 
REMARK    3  A    between atoms: C_12  and  C_14 
REMARK    4  A    between atoms: C_15  and  C_16 
ROOT
ATOM      1  N   UNL d   1      24.397 -17.413  -0.369  0.00  0.00    -0.323 N 
ATOM      2  C   UNL d   1      23.434 -18.227  -0.944  0.00  0.00     0.245 C 
ATOM      3  O   UNL d   1      23.446 -18.611  -2.113  0.00  0.00    -0.268 OA
ATOM      4  H   UNL d   1      24.545 -17.485   0.630  0.00  0.00     0.169 HD
ENDROOT
BRANCH   1   5
ATOM      5  C   UNL d   1      25.297 -16.575  -1.111  0.00  0.00     0.050 A 
ATOM      6  C   UNL d   1      24.782 -15.834  -2.197  0.00  0.00     0.032 A 
ATOM      7  C   UNL d   1      25.607 -14.968  -2.943  0.00  0.00     0.026 A 
ATOM      8  C   UNL d   1      26.951 -14.819  -2.608  0.00  0.00     0.035 A 
ATOM      9  C   UNL d   1      27.492 -15.557  -1.566  0.00  0.00     0.043 A 
ATOM     10 CL   UNL d   1      27.966 -13.766  -3.512  0.00  0.00    -0.084 Cl
ATOM     11  C   UNL d   1      26.683 -16.452  -0.849  0.00  0.00     0.060 A 
BRANCH  11  12
ATOM     12  C   UNL d   1      27.419 -17.397   0.021  0.00  0.00     0.251 C 
ATOM     13  N   UNL d   1      28.759 -17.556  -0.247  0.00  0.00    -0.366 N 
ATOM     14  H   UNL d   1      29.287 -17.806   0.582  0.00  0.00     0.159 HD
ATOM     15  H   UNL d   1      29.235 -16.923  -0.875  0.00  0.00     0.159 HD
ATOM     16  O   UNL d   1      26.854 -17.981   0.928  0.00  0.00    -0.268 OA
ENDBRANCH  11  12
ENDBRANCH   1   5
BRANCH   2  17
ATOM     17  C   UNL d   1      22.395 -18.787  -0.038  0.00  0.00     0.075 C 
ATOM     18  C   UNL d   1      21.123 -18.766  -0.486  0.00  0.00     0.017 C 
BRANCH  18  19
ATOM     19  C   UNL d   1      20.037 -19.543   0.119  0.00  0.00    -0.036 A 
ATOM     20  C   UNL d   1      20.042 -19.851   1.482  0.00  0.00     0.014 A 
ATOM     21  C   UNL d   1      19.048 -20.666   2.024  0.00  0.00     0.043 A 
ATOM     22  C   UNL d   1      18.034 -21.150   1.206  0.00  0.00     0.116 A 
ATOM     23  F   UNL d   1      17.091 -21.945   1.730  0.00  0.00    -0.206 F 
ATOM     24  C   UNL d   1      17.986 -20.825  -0.144  0.00  0.00     0.043 A 
ATOM     25  C   UNL d   1      18.985 -20.014  -0.688  0.00  0.00     0.014 A 
ENDBRANCH  18  19
ENDBRANCH   2  17
TORSDOF 4
ENDMDL
MODEL 3
REMARK VINA RESULT:    -8.136      1.947      3.301
REMARK INTER + INTRA:          -9.960
REMARK INTER:                  -9.329
REMARK INTRA:                  -0.631
REMARK CONF_INDEPENDENT:        1.193
REMARK UNBOUND:                -0.631
REMARK  4 active torsions:
REMARK  status: ('A' for Active; 'I' for Inactive)
REMARK       I    between atoms: N_1  and  C_2 
REMARK    1  A    between atoms: C_2  and  C_4 
REMARK    2  A    between atoms: C_10  and  N_11 
REMARK       I    between atoms: N_11  and  C_12 
REMARK    3  A    between atoms: C_12  and  C_14 
REMARK    4  A    between atoms: C_15  and  C_16 
ROOT
ATOM      1  N   UNL d   1      24.087 -17.434  -1.673  0.00  0.00    -0.323 N 
ATOM      2  C   UNL d   1      23.018 -17.063  -0.872  0.00  0.00     0.245 C 
ATOM      3  O   UNL d   1      22.917 -15.983  -0.292  0.00  0.00    -0.268 OA
ATOM      4  H   UNL d   1      23.916 -18.107  -2.410  0.00  0.00     0.169 HD
ENDROOT
BRANCH   1   5
ATOM      5  C   UNL d   1      25.387 -16.825  -1.621  0.00  0.00     0.050 A 
ATOM      6  C   UNL d   1      25.755 -15.942  -2.658  0.00  0.00     0.032 A 
ATOM      7  C   UNL d   1      27.004 -15.287  -2.646  0.00  0.00     0.026 A 
ATOM      8  C   UNL d   1      27.893 -15.493  -1.595  0.00  0.00     0.035 A 
ATOM      9  C   UNL d   1      27.571 -16.379  -0.578  0.00  0.00     0.043 A 
ATOM     10 CL   UNL d   1      29.419 -14.700  -1.571  0.00  0.00    -0.084 Cl
ATOM     11  C   UNL d   1      26.347 -17.065  -0.609  0.00  0.00     0.060 A 
BRANCH  11  12
ATOM     12  C   UNL d   1      26.242 -18.194   0.343  0.00  0.00     0.251 C 
ATOM     13  N   UNL d   1      27.391 -18.917   0.563  0.00  0.00    -0.366 N 
ATOM     14  H   UNL d   1      27.411 -19.331   1.488  0.00  0.00     0.159 HD
ATOM     15  H   UNL d   1      28.283 -18.573   0.234  0.00  0.00     0.159 HD
ATOM     16  O   UNL d   1      25.189 -18.443   0.902  0.00  0.00    -0.268 OA
ENDBRANCH  11  12
ENDBRANCH   1   5
BRANCH   2  17
ATOM     17  C   UNL d   1      21.850 -17.984  -0.836  0.00  0.00     0.075 C 
ATOM     18  C   UNL d   1      21.792 -18.851   0.196  0.00  0.00     0.017 C 
BRANCH  18  19
ATOM     19  C   UNL d   1      20.584 -19.598   0.561  0.00  0.00    -0.036 A 
ATOM     20  C   UNL d   1      19.711 -20.081  -0.418  0.00  0.00     0.014 A 
ATOM     21  C   UNL d   1      18.522 -20.712  -0.051  0.00  0.00     0.043 A 
ATOM     22  C   UNL d   1      18.221 -20.883   1.295  0.00  0.00     0.116 A 
ATOM     23  F   UNL d   1      17.070 -21.476   1.640  0.00  0.00    -0.206 F 
ATOM     24  C   UNL d   1      19.092 -20.446   2.285  0.00  0.00     0.043 A 
ATOM     25  C   UNL d   1      20.280 -19.808   1.919  0.00  0.00     0.014 A 
ENDBRANCH  18  19
ENDBRANCH   2  17
TORSDOF 4
ENDMDL
MODEL 4
REMARK VINA RESULT:    -7.765      1.616      2.116
REMARK INTER + INTRA:         -10.111
REMARK INTER:                  -8.958
REMARK INTRA:                  -1.154
REMARK CONF_INDEPENDENT:        1.193
REMARK UNBOUND:                -1.154
REMARK  4 active torsions:
REMARK  status: ('A' for Active; 'I' for Inactive)
REMARK       I    between atoms: N_1  and  C_2 
REMARK    1  A    between atoms: C_2  and  C_4 
REMARK    2  A    between atoms: C_10  and  N_11 
REMARK       I    between atoms: N_11  and  C_12 
REMARK    3  A    between atoms: C_12  and  C_14 
REMARK    4  A    between atoms: C_15  and  C_16 
ROOT
ATOM      1  N   UNL d   1      24.349 -17.537  -1.479  0.00  0.00    -0.323 N 
ATOM      2  C   UNL d   1      23.161 -17.126  -0.895  0.00  0.00     0.245 C 
ATOM      3  O   UNL d   1      22.930 -15.983  -0.504  0.00  0.00    -0.268 OA
ATOM      4  H   UNL d   1      24.316 -18.319  -2.122  0.00  0.00     0.169 HD
ENDROOT
BRANCH   1   5
ATOM      5  C   UNL d   1      25.600 -16.844  -1.345  0.00  0.00     0.050 A 
ATOM      6  C   UNL d   1      26.434 -17.170  -0.254  0.00  0.00     0.032 A 
ATOM      7  C   UNL d   1      27.688 -16.549  -0.086  0.00  0.00     0.026 A 
ATOM      8  C   UNL d   1      28.133 -15.608  -1.011  0.00  0.00     0.035 A 
ATOM      9  C   UNL d   1      27.322 -15.244  -2.075  0.00  0.00     0.043 A 
ATOM     10 CL   UNL d   1      29.661 -14.843  -0.815  0.00  0.00    -0.084 Cl
ATOM     11  C   UNL d   1      26.055 -15.829  -2.220  0.00  0.00     0.060 A 
BRANCH  11  12
ATOM     12  C   UNL d   1      25.166 -15.155  -3.194  0.00  0.00     0.251 C 
ATOM     13  N   UNL d   1      23.936 -14.756  -2.725  0.00  0.00    -0.366 N 
ATOM     14  H   UNL d   1      23.581 -13.948  -3.225  0.00  0.00     0.159 HD
ATOM     15  H   UNL d   1      23.741 -14.759  -1.734  0.00  0.00     0.159 HD
ATOM     16  O   UNL d   1      25.530 -14.961  -4.341  0.00  0.00    -0.268 OA
ENDBRANCH  11  12
ENDBRANCH   1   5
BRANCH   2  17
ATOM     17  C   UNL d   1      22.043 -18.107  -0.878  0.00  0.00     0.075 C 
ATOM     18  C   UNL d   1      21.843 -18.780   0.275  0.00  0.00     0.017 C 
BRANCH  18  19
ATOM     19  C   UNL d   1      20.622 -19.536   0.572  0.00  0.00    -0.036 A 
ATOM     20  C   UNL d   1      19.773 -19.967  -0.451  0.00  0.00     0.014 A 
ATOM     21  C   UNL d   1      18.571 -20.606  -0.146  0.00  0.00     0.043 A 
ATOM     22  C   UNL d   1      18.233 -20.837   1.182  0.00  0.00     0.116 A 
ATOM     23  F   UNL d   1      17.070 -21.437   1.469  0.00  0.00    -0.206 F 
ATOM     24  C   UNL d   1      19.079 -20.451   2.215  0.00  0.00     0.043 A 
ATOM     25  C   UNL d   1      20.280 -19.805   1.910  0.00  0.00     0.014 A 
ENDBRANCH  18  19
ENDBRANCH   2  17
TORSDOF 4
ENDMDL
MODEL 5
REMARK VINA RESULT:    -7.393      1.910      2.716
REMARK INTER + INTRA:          -9.779
REMARK INTER:                  -8.586
REMARK INTRA:                  -1.192
REMARK CONF_INDEPENDENT:        1.193
REMARK UNBOUND:                -1.192
REMARK  4 active torsions:
REMARK  status: ('A' for Active; 'I' for Inactive)
REMARK       I    between atoms: N_1  and  C_2 
REMARK    1  A    between atoms: C_2  and  C_4 
REMARK    2  A    between atoms: C_10  and  N_11 
REMARK       I    between atoms: N_11  and  C_12 
REMARK    3  A    between atoms: C_12  and  C_14 
REMARK    4  A    between atoms: C_15  and  C_16 
ROOT
ATOM      1  N   UNL d   1      24.749 -16.367  -0.778  0.00  0.00    -0.323 N 
ATOM      2  C   UNL d   1      24.732 -17.705  -0.418  0.00  0.00     0.245 C 
ATOM      3  O   UNL d   1      25.699 -18.462  -0.485  0.00  0.00    -0.268 OA
ATOM      4  H   UNL d   1      24.091 -15.745  -0.324  0.00  0.00     0.169 HD
ENDROOT
BRANCH   1   5
ATOM      5  C   UNL d   1      25.727 -15.774  -1.646  0.00  0.00     0.050 A 
ATOM      6  C   UNL d   1      25.501 -15.817  -3.039  0.00  0.00     0.032 A 
ATOM      7  C   UNL d   1      26.407 -15.223  -3.941  0.00  0.00     0.026 A 
ATOM      8  C   UNL d   1      27.541 -14.568  -3.466  0.00  0.00     0.035 A 
ATOM      9  C   UNL d   1      27.805 -14.538  -2.105  0.00  0.00     0.043 A 
ATOM     10 CL   UNL d   1      28.653 -13.841  -4.558  0.00  0.00    -0.084 Cl
ATOM     11  C   UNL d   1      26.927 -15.165  -1.208  0.00  0.00     0.060 A 
BRANCH  11  12
ATOM     12  C   UNL d   1      27.456 -15.334   0.164  0.00  0.00     0.251 C 
ATOM     13  N   UNL d   1      27.605 -16.628   0.606  0.00  0.00    -0.366 N 
ATOM     14  H   UNL d   1      28.349 -16.715   1.290  0.00  0.00     0.159 HD
ATOM     15  H   UNL d   1      27.533 -17.402  -0.040  0.00  0.00     0.159 HD
ATOM     16  O   UNL d   1      27.752 -14.367   0.843  0.00  0.00    -0.268 OA
ENDBRANCH  11  12
ENDBRANCH   1   5
BRANCH   2  17
ATOM     17  C   UNL d   1      23.493 -18.214   0.231  0.00  0.00     0.075 C 
ATOM     18  C   UNL d   1      22.376 -18.233  -0.526  0.00  0.00     0.017 C 
BRANCH  18  19
ATOM     19  C   UNL d   1      21.166 -18.979  -0.166  0.00  0.00    -0.036 A 
ATOM     20  C   UNL d   1      20.217 -19.325  -1.132  0.00  0.00     0.014 A 
ATOM     21  C   UNL d   1      19.030 -19.955  -0.759  0.00  0.00     0.043 A 
ATOM     22  C   UNL d   1      18.804 -20.262   0.577  0.00  0.00     0.116 A 
ATOM     23  F   UNL d   1      17.655 -20.854   0.930  0.00  0.00    -0.206 F 
ATOM     24  C   UNL d   1      19.750 -19.963   1.550  0.00  0.00     0.043 A 
ATOM     25  C   UNL d   1      20.937 -19.326   1.178  0.00  0.00     0.014 A 
ENDBRANCH  18  19
ENDBRANCH   2  17
TORSDOF 4
ENDMDL
MODEL 6
REMARK VINA RESULT:    -6.843     10.965     12.947
REMARK INTER + INTRA:          -8.638
REMARK INTER:                  -8.037
REMARK INTRA:                  -0.602
REMARK CONF_INDEPENDENT:        1.193
REMARK UNBOUND:                -0.602
REMARK  4 active torsions:
REMARK  status: ('A' for Active; 'I' for Inactive)
REMARK       I    between atoms: N_1  and  C_2 
REMARK    1  A    between atoms: C_2  and  C_4 
REMARK    2  A    between atoms: C_10  and  N_11 
REMARK       I    between atoms: N_11  and  C_12 
REMARK    3  A    between atoms: C_12  and  C_14 
REMARK    4  A    between atoms: C_15  and  C_16 
ROOT
ATOM      1  N   UNL d   1      32.048 -21.613   3.091  0.00  0.00    -0.323 N 
ATOM      2  C   UNL d   1      32.195 -20.826   4.223  0.00  0.00     0.245 C 
ATOM      3  O   UNL d   1      31.916 -19.629   4.286  0.00  0.00    -0.268 OA
ATOM      4  H   UNL d   1      31.897 -22.606   3.219  0.00  0.00     0.169 HD
ENDROOT
BRANCH   1   5
ATOM      5  C   UNL d   1      31.956 -21.098   1.753  0.00  0.00     0.050 A 
ATOM      6  C   UNL d   1      32.851 -20.078   1.364  0.00  0.00     0.032 A 
ATOM      7  C   UNL d   1      32.833 -19.556   0.054  0.00  0.00     0.026 A 
ATOM      8  C   UNL d   1      31.933 -20.052  -0.886  0.00  0.00     0.035 A 
ATOM      9  C   UNL d   1      31.021 -21.031  -0.523  0.00  0.00     0.043 A 
ATOM     10 CL   UNL d   1      31.902 -19.420  -2.485  0.00  0.00    -0.084 Cl
ATOM     11  C   UNL d   1      31.008 -21.523   0.791  0.00  0.00     0.060 A 
BRANCH  11  12
ATOM     12  C   UNL d   1      29.815 -22.325   1.144  0.00  0.00     0.251 C 
ATOM     13  N   UNL d   1      29.364 -23.204   0.186  0.00  0.00    -0.366 N 
ATOM     14  H   UNL d   1      28.895 -24.005   0.593  0.00  0.00     0.159 HD
ATOM     15  H   UNL d   1      29.931 -23.412  -0.624  0.00  0.00     0.159 HD
ATOM     16  O   UNL d   1      29.284 -22.209   2.235  0.00  0.00    -0.268 OA
ENDBRANCH  11  12
ENDBRANCH   1   5
BRANCH   2  17
ATOM     17  C   UNL d   1      32.579 -21.519   5.481  0.00  0.00     0.075 C 
ATOM     18  C   UNL d   1      33.897 -21.721   5.685  0.00  0.00     0.017 C 
BRANCH  18  19
ATOM     19  C   UNL d   1      34.470 -22.094   6.982  0.00  0.00    -0.036 A 
ATOM     20  C   UNL d   1      34.865 -21.120   7.904  0.00  0.00     0.014 A 
ATOM     21  C   UNL d   1      35.490 -21.490   9.095  0.00  0.00     0.043 A 
ATOM     22  C   UNL d   1      35.694 -22.836   9.376  0.00  0.00     0.116 A 
ATOM     23  F   UNL d   1      36.308 -23.183  10.514  0.00  0.00    -0.206 F 
ATOM     24  C   UNL d   1      35.275 -23.823   8.493  0.00  0.00     0.043 A 
ATOM     25  C   UNL d   1      34.655 -23.453   7.296  0.00  0.00     0.014 A 
ENDBRANCH  18  19
ENDBRANCH   2  17
TORSDOF 4
ENDMDL
MODEL 7
REMARK VINA RESULT:    -6.690      4.253      5.893
REMARK INTER + INTRA:          -8.875
REMARK INTER:                  -7.883
REMARK INTRA:                  -0.991
REMARK CONF_INDEPENDENT:        1.193
REMARK UNBOUND:                -0.991
REMARK  4 active torsions:
REMARK  status: ('A' for Active; 'I' for Inactive)
REMARK       I    between atoms: N_1  and  C_2 
REMARK    1  A    between atoms: C_2  and  C_4 
REMARK    2  A    between atoms: C_10  and  N_11 
REMARK       I    between atoms: N_11  and  C_12 
REMARK    3  A    between atoms: C_12  and  C_14 
REMARK    4  A    between atoms: C_15  and  C_16 
ROOT
ATOM      1  N   UNL d   1      26.399 -13.725  -4.279  0.00  0.00    -0.323 N 
ATOM      2  C   UNL d   1      25.152 -13.968  -3.723  0.00  0.00     0.245 C 
ATOM      3  O   UNL d   1      24.079 -13.716  -4.270  0.00  0.00    -0.268 OA
ATOM      4  H   UNL d   1      27.172 -14.308  -3.983  0.00  0.00     0.169 HD
ENDROOT
BRANCH   1   5
ATOM      5  C   UNL d   1      26.642 -12.796  -5.347  0.00  0.00     0.050 A 
ATOM      6  C   UNL d   1      25.828 -11.646  -5.434  0.00  0.00     0.032 A 
ATOM      7  C   UNL d   1      26.038 -10.681  -6.439  0.00  0.00     0.026 A 
ATOM      8  C   UNL d   1      27.071 -10.841  -7.359  0.00  0.00     0.035 A 
ATOM      9  C   UNL d   1      27.867 -11.975  -7.318  0.00  0.00     0.043 A 
ATOM     10 CL   UNL d   1      27.336  -9.669  -8.590  0.00  0.00    -0.084 Cl
ATOM     11  C   UNL d   1      27.632 -12.959  -6.345  0.00  0.00     0.060 A 
BRANCH  11  12
ATOM     12  C   UNL d   1      28.327 -14.245  -6.580  0.00  0.00     0.251 C 
ATOM     13  N   UNL d   1      29.197 -14.284  -7.645  0.00  0.00    -0.366 N 
ATOM     14  H   UNL d   1      29.946 -14.952  -7.502  0.00  0.00     0.159 HD
ATOM     15  H   UNL d   1      29.475 -13.431  -8.111  0.00  0.00     0.159 HD
ATOM     16  O   UNL d   1      28.135 -15.201  -5.850  0.00  0.00    -0.268 OA
ENDBRANCH  11  12
ENDBRANCH   1   5
BRANCH   2  17
ATOM     17  C   UNL d   1      25.120 -14.718  -2.439  0.00  0.00     0.075 C 
ATOM     18  C   UNL d   1      25.381 -16.041  -2.502  0.00  0.00     0.017 C 
BRANCH  18  19
ATOM     19  C   UNL d   1      25.700 -16.861  -1.329  0.00  0.00    -0.036 A 
ATOM     20  C   UNL d   1      24.692 -17.495  -0.597  0.00  0.00     0.014 A 
ATOM     21  C   UNL d   1      25.004 -18.198   0.567  0.00  0.00     0.043 A 
ATOM     22  C   UNL d   1      26.326 -18.289   0.983  0.00  0.00     0.116 A 
ATOM     23  F   UNL d   1      26.617 -18.953   2.109  0.00  0.00    -0.206 F 
ATOM     24  C   UNL d   1      27.350 -17.700   0.250  0.00  0.00     0.043 A 
ATOM     25  C   UNL d   1      27.037 -16.990  -0.913  0.00  0.00     0.014 A 
ENDBRANCH  18  19
ENDBRANCH   2  17
TORSDOF 4
ENDMDL
MODEL 8
REMARK VINA RESULT:    -6.555      5.214      9.401
REMARK INTER + INTRA:          -8.784
REMARK INTER:                  -7.748
REMARK INTRA:                  -1.036
REMARK CONF_INDEPENDENT:        1.193
REMARK UNBOUND:                -1.036
REMARK  4 active torsions:
REMARK  status: ('A' for Active; 'I' for Inactive)
REMARK       I    between atoms: N_1  and  C_2 
REMARK    1  A    between atoms: C_2  and  C_4 
REMARK    2  A    between atoms: C_10  and  N_11 
REMARK       I    between atoms: N_11  and  C_12 
REMARK    3  A    between atoms: C_12  and  C_14 
REMARK    4  A    between atoms: C_15  and  C_16 
ROOT
ATOM      1  N   UNL d   1      26.393 -15.673  -2.483  0.00  0.00    -0.323 N 
ATOM      2  C   UNL d   1      26.130 -15.073  -3.705  0.00  0.00     0.245 C 
ATOM      3  O   UNL d   1      25.011 -14.757  -4.105  0.00  0.00    -0.268 OA
ATOM      4  H   UNL d   1      27.303 -15.521  -2.066  0.00  0.00     0.169 HD
ENDROOT
BRANCH   1   5
ATOM      5  C   UNL d   1      25.417 -16.379  -1.701  0.00  0.00     0.050 A 
ATOM      6  C   UNL d   1      24.066 -15.981  -1.797  0.00  0.00     0.032 A 
ATOM      7  C   UNL d   1      23.057 -16.656  -1.081  0.00  0.00     0.026 A 
ATOM      8  C   UNL d   1      23.379 -17.744  -0.274  0.00  0.00     0.035 A 
ATOM      9  C   UNL d   1      24.701 -18.138  -0.136  0.00  0.00     0.043 A 
ATOM     10 CL   UNL d   1      22.155 -18.575   0.605  0.00  0.00    -0.084 Cl
ATOM     11  C   UNL d   1      25.713 -17.441  -0.813  0.00  0.00     0.060 A 
BRANCH  11  12
ATOM     12  C   UNL d   1      27.089 -17.746  -0.360  0.00  0.00     0.251 C 
ATOM     13  N   UNL d   1      27.215 -18.729   0.593  0.00  0.00    -0.366 N 
ATOM     14  H   UNL d   1      28.107 -19.207   0.534  0.00  0.00     0.159 HD
ATOM     15  H   UNL d   1      26.431 -19.325   0.822  0.00  0.00     0.159 HD
ATOM     16  O   UNL d   1      28.046 -17.156  -0.830  0.00  0.00    -0.268 OA
ENDBRANCH  11  12
ENDBRANCH   1   5
BRANCH   2  17
ATOM     17  C   UNL d   1      27.304 -14.655  -4.518  0.00  0.00     0.075 C 
ATOM     18  C   UNL d   1      28.274 -15.574  -4.701  0.00  0.00     0.017 C 
BRANCH  18  19
ATOM     19  C   UNL d   1      29.329 -15.450  -5.712  0.00  0.00    -0.036 A 
ATOM     20  C   UNL d   1      30.144 -16.536  -6.042  0.00  0.00     0.014 A 
ATOM     21  C   UNL d   1      31.200 -16.377  -6.940  0.00  0.00     0.043 A 
ATOM     22  C   UNL d   1      31.422 -15.137  -7.528  0.00  0.00     0.116 A 
ATOM     23  F   UNL d   1      32.447 -14.988  -8.378  0.00  0.00    -0.206 F 
ATOM     24  C   UNL d   1      30.601 -14.053  -7.245  0.00  0.00     0.043 A 
ATOM     25  C   UNL d   1      29.547 -14.210  -6.340  0.00  0.00     0.014 A 
ENDBRANCH  18  19
ENDBRANCH   2  17
TORSDOF 4
ENDMDL
MODEL 9
REMARK VINA RESULT:    -6.525      5.253      9.534
REMARK INTER + INTRA:          -8.690
REMARK INTER:                  -7.718
REMARK INTRA:                  -0.972
REMARK CONF_INDEPENDENT:        1.193
REMARK UNBOUND:                -0.972
REMARK  4 active torsions:
REMARK  status: ('A' for Active; 'I' for Inactive)
REMARK       I    between atoms: N_1  and  C_2 
REMARK    1  A    between atoms: C_2  and  C_4 
REMARK    2  A    between atoms: C_10  and  N_11 
REMARK       I    between atoms: N_11  and  C_12 
REMARK    3  A    between atoms: C_12  and  C_14 
REMARK    4  A    between atoms: C_15  and  C_16 
ROOT
ATOM      1  N   UNL d   1      26.353 -15.595  -2.133  0.00  0.00    -0.323 N 
ATOM      2  C   UNL d   1      26.221 -15.058  -3.405  0.00  0.00     0.245 C 
ATOM      3  O   UNL d   1      25.149 -14.833  -3.964  0.00  0.00    -0.268 OA
ATOM      4  H   UNL d   1      27.186 -15.366  -1.606  0.00  0.00     0.169 HD
ENDROOT
BRANCH   1   5
ATOM      5  C   UNL d   1      25.325 -16.338  -1.458  0.00  0.00     0.050 A 
ATOM      6  C   UNL d   1      23.982 -15.946  -1.645  0.00  0.00     0.032 A 
ATOM      7  C   UNL d   1      22.927 -16.656  -1.037  0.00  0.00     0.026 A 
ATOM      8  C   UNL d   1      23.195 -17.771  -0.249  0.00  0.00     0.035 A 
ATOM      9  C   UNL d   1      24.507 -18.161  -0.022  0.00  0.00     0.043 A 
ATOM     10 CL   UNL d   1      21.915 -18.644   0.498  0.00  0.00    -0.084 Cl
ATOM     11  C   UNL d   1      25.561 -17.431  -0.591  0.00  0.00     0.060 A 
BRANCH  11  12
ATOM     12  C   UNL d   1      26.901 -17.743  -0.043  0.00  0.00     0.251 C 
ATOM     13  N   UNL d   1      27.030 -18.949   0.605  0.00  0.00    -0.366 N 
ATOM     14  H   UNL d   1      27.974 -19.315   0.546  0.00  0.00     0.159 HD
ATOM     15  H   UNL d   1      26.302 -19.647   0.538  0.00  0.00     0.159 HD
ATOM     16  O   UNL d   1      27.828 -16.965  -0.181  0.00  0.00    -0.268 OA
ENDBRANCH  11  12
ENDBRANCH   1   5
BRANCH   2  17
ATOM     17  C   UNL d   1      27.466 -14.589  -4.071  0.00  0.00     0.075 C 
ATOM     18  C   UNL d   1      27.734 -15.106  -5.289  0.00  0.00     0.017 C 
BRANCH  18  19
ATOM     19  C   UNL d   1      28.724 -14.539  -6.210  0.00  0.00    -0.036 A 
ATOM     20  C   UNL d   1      29.935 -15.191  -6.460  0.00  0.00     0.014 A 
ATOM     21  C   UNL d   1      30.902 -14.595  -7.269  0.00  0.00     0.043 A 
ATOM     22  C   UNL d   1      30.646 -13.359  -7.850  0.00  0.00     0.116 A 
ATOM     23  F   UNL d   1      31.585 -12.785  -8.614  0.00  0.00    -0.206 F 
ATOM     24  C   UNL d   1      29.434 -12.709  -7.648  0.00  0.00     0.043 A 
ATOM     25  C   UNL d   1      28.467 -13.303  -6.832  0.00  0.00     0.014 A 
ENDBRANCH  18  19
ENDBRANCH   2  17
TORSDOF 4
ENDMDL
