MODEL 1
REMARK VINA RESULT:    -9.065      0.000      0.000
REMARK INTER + INTRA:         -12.902
REMARK INTER:                 -11.452
REMARK INTRA:                  -1.450
REMARK CONF_INDEPENDENT:        2.386
REMARK UNBOUND:                -1.450
REMARK  8 active torsions:
REMARK  status: ('A' for Active; 'I' for Inactive)
REMARK    1  A    between atoms: C_5  and  C_6 
REMARK       I    between atoms: C_6  and  N_8 
REMARK    2  A    between atoms: N_8  and  C_9 
REMARK    3  A    between atoms: C_9  and  N_11 
REMARK    4  A    between atoms: N_11  and  N_12 
REMARK       I    between atoms: N_12  and  C_13 
REMARK    5  A    between atoms: C_13  and  C_15 
REMARK    6  A    between atoms: C_15  and  C_16 
REMARK    7  A    between atoms: C_16  and  C_17 
REMARK       I    between atoms: C_17  and  N_19 
REMARK    8  A    between atoms: N_19  and  C_20 
ROOT
ATOM      1  N   UNL d   1      25.952 -15.687  -2.097  0.00  0.00    -0.268 N 
ATOM      2  C   UNL d   1      25.745 -14.678  -3.031  0.00  0.00     0.236 C 
ATOM      3  O   UNL d   1      24.734 -14.642  -3.732  0.00  0.00    -0.272 OA
ATOM      4  H   UNL d   1      26.782 -15.734  -1.503  0.00  0.00     0.190 HD
ENDROOT
BRANCH   1   5
ATOM      5  N   UNL d   1      24.979 -16.760  -1.898  0.00  0.00    -0.273 N 
ATOM      6  H   UNL d   1      24.366 -16.922  -2.695  0.00  0.00     0.189 HD
BRANCH   5   7
ATOM      7  C   UNL d   1      24.966 -17.464  -0.678  0.00  0.00     0.193 C 
ATOM      8  S   UNL d   1      26.304 -17.362   0.347  0.00  0.00    -0.039 SA
BRANCH   7   9
ATOM      9  N   UNL d   1      23.790 -18.219  -0.416  0.00  0.00    -0.298 N 
ATOM     10  C   UNL d   1      22.449 -17.765  -0.543  0.00  0.00     0.257 C 
ATOM     11  O   UNL d   1      22.155 -16.621  -0.906  0.00  0.00    -0.267 OA
ATOM     12  H   UNL d   1      23.923 -19.171  -0.115  0.00  0.00     0.171 HD
BRANCH  10  13
ATOM     13  C   UNL d   1      21.258 -18.644  -0.247  0.00  0.00     0.033 A 
ATOM     14  C   UNL d   1      20.300 -19.033  -1.180  0.00  0.00     0.017 A 
ATOM     15  C   UNL d   1      19.214 -19.844  -0.788  0.00  0.00     0.009 A 
ATOM     16  C   UNL d   1      19.054 -20.290   0.537  0.00  0.00    -0.045 A 
ATOM     17  C   UNL d   1      17.867 -21.144   0.901  0.00  0.00     0.049 C 
ATOM     18  C   UNL d   1      20.016 -19.909   1.475  0.00  0.00     0.017 A 
ATOM     19  C   UNL d   1      21.098 -19.102   1.087  0.00  0.00     0.036 A 
ATOM     20 BR   UNL d   1      19.905 -20.447   3.296  0.00  0.00    -0.051 Br
ENDBRANCH  10  13
ENDBRANCH   7   9
ENDBRANCH   5   7
ENDBRANCH   1   5
BRANCH   2  21
ATOM     21  C   UNL d   1      26.855 -13.616  -3.127  0.00  0.00     0.114 C 
BRANCH  21  22
ATOM     22  C   UNL d   1      27.224 -13.240  -4.588  0.00  0.00     0.112 C 
BRANCH  22  23
ATOM     23  C   UNL d   1      27.962 -14.380  -5.292  0.00  0.00     0.222 C 
ATOM     24  O   UNL d   1      27.326 -15.258  -5.874  0.00  0.00    -0.273 OA
ATOM     25  N   UNL d   1      29.356 -14.391  -5.170  0.00  0.00    -0.326 N 
ATOM     26  H   UNL d   1      29.776 -13.907  -4.385  0.00  0.00     0.169 HD
BRANCH  25  27
ATOM     27  C   UNL d   1      30.147 -15.381  -5.841  0.00  0.00     0.056 A 
ATOM     28  C   UNL d   1      30.251 -16.676  -5.299  0.00  0.00     0.031 A 
ATOM     29  C   UNL d   1      30.956 -17.686  -5.983  0.00  0.00     0.002 A 
ATOM     30  C   UNL d   1      31.586 -17.409  -7.195  0.00  0.00     0.002 A 
ATOM     31  C   UNL d   1      31.538 -16.119  -7.712  0.00  0.00     0.026 A 
ATOM     32  C   UNL d   1      30.843 -15.107  -7.037  0.00  0.00     0.060 A 
ATOM     33 CL   UNL d   1      31.060 -13.501  -7.655  0.00  0.00    -0.082 Cl
ENDBRANCH  25  27
ENDBRANCH  22  23
ENDBRANCH  21  22
ENDBRANCH   2  21
TORSDOF 8
ENDMDL
MODEL 2
REMARK VINA RESULT:    -8.493      3.016      4.978
REMARK INTER + INTRA:         -12.920
REMARK INTER:                 -10.879
REMARK INTRA:                  -2.040
REMARK CONF_INDEPENDENT:        2.386
REMARK UNBOUND:                -2.040
REMARK  8 active torsions:
REMARK  status: ('A' for Active; 'I' for Inactive)
REMARK    1  A    between atoms: C_5  and  C_6 
REMARK       I    between atoms: C_6  and  N_8 
REMARK    2  A    between atoms: N_8  and  C_9 
REMARK    3  A    between atoms: C_9  and  N_11 
REMARK    4  A    between atoms: N_11  and  N_12 
REMARK       I    between atoms: N_12  and  C_13 
REMARK    5  A    between atoms: C_13  and  C_15 
REMARK    6  A    between atoms: C_15  and  C_16 
REMARK    7  A    between atoms: C_16  and  C_17 
REMARK       I    between atoms: C_17  and  N_19 
REMARK    8  A    between atoms: N_19  and  C_20 
ROOT
ATOM      1  N   UNL d   1      26.022 -15.593  -2.056  0.00  0.00    -0.268 N 
ATOM      2  C   UNL d   1      25.862 -14.799  -3.185  0.00  0.00     0.236 C 
ATOM      3  O   UNL d   1      24.756 -14.599  -3.685  0.00  0.00    -0.272 OA
ATOM      4  H   UNL d   1      26.931 -15.770  -1.623  0.00  0.00     0.190 HD
ENDROOT
BRANCH   1   5
ATOM      5  N   UNL d   1      24.883 -16.236  -1.402  0.00  0.00    -0.273 N 
ATOM      6  H   UNL d   1      24.003 -15.733  -1.504  0.00  0.00     0.189 HD
BRANCH   5   7
ATOM      7  C   UNL d   1      25.075 -17.452  -0.716  0.00  0.00     0.193 C 
ATOM      8  S   UNL d   1      26.633 -17.893  -0.239  0.00  0.00    -0.039 SA
BRANCH   7   9
ATOM      9  N   UNL d   1      23.899 -18.218  -0.483  0.00  0.00    -0.298 N 
ATOM     10  C   UNL d   1      22.558 -17.755  -0.569  0.00  0.00     0.257 C 
ATOM     11  O   UNL d   1      22.263 -16.593  -0.868  0.00  0.00    -0.267 OA
ATOM     12  H   UNL d   1      24.034 -19.185  -0.234  0.00  0.00     0.171 HD
BRANCH  10  13
ATOM     13  C   UNL d   1      21.368 -18.647  -0.308  0.00  0.00     0.033 A 
ATOM     14  C   UNL d   1      20.446 -19.052  -1.270  0.00  0.00     0.017 A 
ATOM     15  C   UNL d   1      19.357 -19.873  -0.910  0.00  0.00     0.009 A 
ATOM     16  C   UNL d   1      19.159 -20.315   0.411  0.00  0.00    -0.045 A 
ATOM     17  C   UNL d   1      17.972 -21.181   0.741  0.00  0.00     0.049 C 
ATOM     18  C   UNL d   1      20.086 -19.918   1.379  0.00  0.00     0.017 A 
ATOM     19  C   UNL d   1      21.170 -19.101   1.022  0.00  0.00     0.036 A 
ATOM     20 BR   UNL d   1      19.921 -20.449   3.198  0.00  0.00    -0.051 Br
ENDBRANCH  10  13
ENDBRANCH   7   9
ENDBRANCH   5   7
ENDBRANCH   1   5
BRANCH   2  21
ATOM     21  C   UNL d   1      27.152 -14.187  -3.762  0.00  0.00     0.114 C 
BRANCH  21  22
ATOM     22  C   UNL d   1      26.947 -13.502  -5.141  0.00  0.00     0.112 C 
BRANCH  22  23
ATOM     23  C   UNL d   1      26.925 -11.978  -5.013  0.00  0.00     0.222 C 
ATOM     24  O   UNL d   1      27.973 -11.338  -5.104  0.00  0.00    -0.273 OA
ATOM     25  N   UNL d   1      25.687 -11.392  -4.726  0.00  0.00    -0.326 N 
ATOM     26  H   UNL d   1      24.976 -11.961  -4.282  0.00  0.00     0.169 HD
BRANCH  25  27
ATOM     27  C   UNL d   1      25.546  -9.968  -4.646  0.00  0.00     0.056 A 
ATOM     28  C   UNL d   1      24.870  -9.275  -5.667  0.00  0.00     0.031 A 
ATOM     29  C   UNL d   1      24.648  -7.888  -5.568  0.00  0.00     0.002 A 
ATOM     30  C   UNL d   1      25.121  -7.174  -4.469  0.00  0.00     0.002 A 
ATOM     31  C   UNL d   1      25.840  -7.838  -3.481  0.00  0.00     0.026 A 
ATOM     32  C   UNL d   1      26.069  -9.217  -3.572  0.00  0.00     0.060 A 
ATOM     33 CL   UNL d   1      27.177  -9.878  -2.411  0.00  0.00    -0.082 Cl
ENDBRANCH  25  27
ENDBRANCH  22  23
ENDBRANCH  21  22
ENDBRANCH   2  21
TORSDOF 8
ENDMDL
MODEL 3
REMARK VINA RESULT:    -8.465      4.198      5.414
REMARK INTER + INTRA:         -13.637
REMARK INTER:                 -10.852
REMARK INTRA:                  -2.786
REMARK CONF_INDEPENDENT:        2.386
REMARK UNBOUND:                -2.786
REMARK  8 active torsions:
REMARK  status: ('A' for Active; 'I' for Inactive)
REMARK    1  A    between atoms: C_5  and  C_6 
REMARK       I    between atoms: C_6  and  N_8 
REMARK    2  A    between atoms: N_8  and  C_9 
REMARK    3  A    between atoms: C_9  and  N_11 
REMARK    4  A    between atoms: N_11  and  N_12 
REMARK       I    between atoms: N_12  and  C_13 
REMARK    5  A    between atoms: C_13  and  C_15 
REMARK    6  A    between atoms: C_15  and  C_16 
REMARK    7  A    between atoms: C_16  and  C_17 
REMARK       I    between atoms: C_17  and  N_19 
REMARK    8  A    between atoms: N_19  and  C_20 
ROOT
ATOM      1  N   UNL d   1      26.671 -12.617  -5.882  0.00  0.00    -0.268 N 
ATOM      2  C   UNL d   1      27.365 -11.945  -6.881  0.00  0.00     0.236 C 
ATOM      3  O   UNL d   1      27.059 -10.805  -7.228  0.00  0.00    -0.272 OA
ATOM      4  H   UNL d   1      26.909 -13.563  -5.577  0.00  0.00     0.190 HD
ENDROOT
BRANCH   1   5
ATOM      5  N   UNL d   1      25.537 -12.004  -5.190  0.00  0.00    -0.273 N 
ATOM      6  H   UNL d   1      24.716 -11.863  -5.774  0.00  0.00     0.189 HD
BRANCH   5   7
ATOM      7  C   UNL d   1      25.657 -11.677  -3.824  0.00  0.00     0.193 C 
ATOM      8  S   UNL d   1      25.569 -10.058  -3.354  0.00  0.00    -0.039 SA
BRANCH   7   9
ATOM      9  N   UNL d   1      25.847 -12.777  -2.943  0.00  0.00    -0.298 N 
ATOM     10  C   UNL d   1      25.656 -14.151  -3.253  0.00  0.00     0.257 C 
ATOM     11  O   UNL d   1      25.289 -14.547  -4.364  0.00  0.00    -0.267 OA
ATOM     12  H   UNL d   1      26.150 -12.558  -2.007  0.00  0.00     0.171 HD
BRANCH  10  13
ATOM     13  C   UNL d   1      25.888 -15.255  -2.250  0.00  0.00     0.033 A 
ATOM     14  C   UNL d   1      27.104 -15.527  -1.628  0.00  0.00     0.017 A 
ATOM     15  C   UNL d   1      27.213 -16.599  -0.718  0.00  0.00     0.009 A 
ATOM     16  C   UNL d   1      26.118 -17.423  -0.400  0.00  0.00    -0.045 A 
ATOM     17  C   UNL d   1      26.294 -18.562   0.572  0.00  0.00     0.049 C 
ATOM     18  C   UNL d   1      24.893 -17.149  -1.014  0.00  0.00     0.017 A 
ATOM     19  C   UNL d   1      24.784 -16.083  -1.921  0.00  0.00     0.036 A 
ATOM     20 BR   UNL d   1      23.344 -18.196  -0.666  0.00  0.00    -0.051 Br
ENDBRANCH  10  13
ENDBRANCH   7   9
ENDBRANCH   5   7
ENDBRANCH   1   5
BRANCH   2  21
ATOM     21  C   UNL d   1      28.536 -12.716  -7.518  0.00  0.00     0.114 C 
BRANCH  21  22
ATOM     22  C   UNL d   1      29.566 -13.239  -6.480  0.00  0.00     0.112 C 
BRANCH  22  23
ATOM     23  C   UNL d   1      29.424 -14.745  -6.258  0.00  0.00     0.222 C 
ATOM     24  O   UNL d   1      28.318 -15.230  -6.015  0.00  0.00    -0.273 OA
ATOM     25  N   UNL d   1      30.605 -15.495  -6.278  0.00  0.00    -0.326 N 
ATOM     26  H   UNL d   1      31.480 -15.021  -6.085  0.00  0.00     0.169 HD
BRANCH  25  27
ATOM     27  C   UNL d   1      30.577 -16.921  -6.141  0.00  0.00     0.056 A 
ATOM     28  C   UNL d   1      30.782 -17.735  -7.271  0.00  0.00     0.031 A 
ATOM     29  C   UNL d   1      30.840 -19.137  -7.145  0.00  0.00     0.002 A 
ATOM     30  C   UNL d   1      30.665 -19.742  -5.902  0.00  0.00     0.002 A 
ATOM     31  C   UNL d   1      30.406 -18.951  -4.787  0.00  0.00     0.026 A 
ATOM     32  C   UNL d   1      30.342 -17.557  -4.903  0.00  0.00     0.060 A 
ATOM     33 CL   UNL d   1      29.776 -16.706  -3.501  0.00  0.00    -0.082 Cl
ENDBRANCH  25  27
ENDBRANCH  22  23
ENDBRANCH  21  22
ENDBRANCH   2  21
TORSDOF 8
ENDMDL
MODEL 4
REMARK VINA RESULT:    -8.231      3.497      5.372
REMARK INTER + INTRA:         -13.071
REMARK INTER:                 -10.618
REMARK INTRA:                  -2.454
REMARK CONF_INDEPENDENT:        2.386
REMARK UNBOUND:                -2.454
REMARK  8 active torsions:
REMARK  status: ('A' for Active; 'I' for Inactive)
REMARK    1  A    between atoms: C_5  and  C_6 
REMARK       I    between atoms: C_6  and  N_8 
REMARK    2  A    between atoms: N_8  and  C_9 
REMARK    3  A    between atoms: C_9  and  N_11 
REMARK    4  A    between atoms: N_11  and  N_12 
REMARK       I    between atoms: N_12  and  C_13 
REMARK    5  A    between atoms: C_13  and  C_15 
REMARK    6  A    between atoms: C_15  and  C_16 
REMARK    7  A    between atoms: C_16  and  C_17 
REMARK       I    between atoms: C_17  and  N_19 
REMARK    8  A    between atoms: N_19  and  C_20 
ROOT
ATOM      1  N   UNL d   1      25.818 -15.620  -2.308  0.00  0.00    -0.268 N 
ATOM      2  C   UNL d   1      25.687 -14.605  -3.249  0.00  0.00     0.236 C 
ATOM      3  O   UNL d   1      24.591 -14.284  -3.707  0.00  0.00    -0.272 OA
ATOM      4  H   UNL d   1      26.717 -15.901  -1.913  0.00  0.00     0.190 HD
ENDROOT
BRANCH   1   5
ATOM      5  N   UNL d   1      24.659 -16.362  -1.814  0.00  0.00    -0.273 N 
ATOM      6  H   UNL d   1      23.771 -16.071  -2.219  0.00  0.00     0.189 HD
BRANCH   5   7
ATOM      7  C   UNL d   1      24.847 -17.384  -0.861  0.00  0.00     0.193 C 
ATOM      8  S   UNL d   1      26.365 -17.578  -0.149  0.00  0.00    -0.039 SA
BRANCH   7   9
ATOM      9  N   UNL d   1      23.703 -18.180  -0.581  0.00  0.00    -0.298 N 
ATOM     10  C   UNL d   1      22.347 -17.756  -0.618  0.00  0.00     0.257 C 
ATOM     11  O   UNL d   1      22.009 -16.603  -0.908  0.00  0.00    -0.267 OA
ATOM     12  H   UNL d   1      23.874 -19.143  -0.335  0.00  0.00     0.171 HD
BRANCH  10  13
ATOM     13  C   UNL d   1      21.193 -18.678  -0.309  0.00  0.00     0.033 A 
ATOM     14  C   UNL d   1      20.261 -19.132  -1.239  0.00  0.00     0.017 A 
ATOM     15  C   UNL d   1      19.209 -19.980  -0.835  0.00  0.00     0.009 A 
ATOM     16  C   UNL d   1      19.057 -20.399   0.499  0.00  0.00    -0.045 A 
ATOM     17  C   UNL d   1      17.906 -21.296   0.876  0.00  0.00     0.049 C 
ATOM     18  C   UNL d   1      19.994 -19.953   1.434  0.00  0.00     0.017 A 
ATOM     19  C   UNL d   1      21.042 -19.110   1.034  0.00  0.00     0.036 A 
ATOM     20 BR   UNL d   1      19.890 -20.450   3.268  0.00  0.00    -0.051 Br
ENDBRANCH  10  13
ENDBRANCH   7   9
ENDBRANCH   5   7
ENDBRANCH   1   5
BRANCH   2  21
ATOM     21  C   UNL d   1      26.995 -13.912  -3.673  0.00  0.00     0.114 C 
BRANCH  21  22
ATOM     22  C   UNL d   1      27.473 -12.828  -2.667  0.00  0.00     0.112 C 
BRANCH  22  23
ATOM     23  C   UNL d   1      27.568 -13.384  -1.246  0.00  0.00     0.222 C 
ATOM     24  O   UNL d   1      27.813 -14.577  -1.067  0.00  0.00    -0.273 OA
ATOM     25  N   UNL d   1      27.298 -12.489  -0.205  0.00  0.00    -0.326 N 
ATOM     26  H   UNL d   1      26.734 -11.671  -0.407  0.00  0.00     0.169 HD
BRANCH  25  27
ATOM     27  C   UNL d   1      27.419 -12.892   1.165  0.00  0.00     0.056 A 
ATOM     28  C   UNL d   1      27.763 -14.221   1.474  0.00  0.00     0.031 A 
ATOM     29  C   UNL d   1      27.967 -14.618   2.810  0.00  0.00     0.002 A 
ATOM     30  C   UNL d   1      27.802 -13.706   3.850  0.00  0.00     0.002 A 
ATOM     31  C   UNL d   1      27.407 -12.404   3.561  0.00  0.00     0.026 A 
ATOM     32  C   UNL d   1      27.197 -12.001   2.237  0.00  0.00     0.060 A 
ATOM     33 CL   UNL d   1      26.478 -10.436   2.027  0.00  0.00    -0.082 Cl
ENDBRANCH  25  27
ENDBRANCH  22  23
ENDBRANCH  21  22
ENDBRANCH   2  21
TORSDOF 8
ENDMDL
MODEL 5
REMARK VINA RESULT:    -8.148      7.299      9.810
REMARK INTER + INTRA:         -13.147
REMARK INTER:                 -10.534
REMARK INTRA:                  -2.612
REMARK CONF_INDEPENDENT:        2.386
REMARK UNBOUND:                -2.612
REMARK  8 active torsions:
REMARK  status: ('A' for Active; 'I' for Inactive)
REMARK    1  A    between atoms: C_5  and  C_6 
REMARK       I    between atoms: C_6  and  N_8 
REMARK    2  A    between atoms: N_8  and  C_9 
REMARK    3  A    between atoms: C_9  and  N_11 
REMARK    4  A    between atoms: N_11  and  N_12 
REMARK       I    between atoms: N_12  and  C_13 
REMARK    5  A    between atoms: C_13  and  C_15 
REMARK    6  A    between atoms: C_15  and  C_16 
REMARK    7  A    between atoms: C_16  and  C_17 
REMARK       I    between atoms: C_17  and  N_19 
REMARK    8  A    between atoms: N_19  and  C_20 
ROOT
ATOM      1  N   UNL d   1      29.233 -14.822   0.864  0.00  0.00    -0.268 N 
ATOM      2  C   UNL d   1      28.083 -14.424   0.193  0.00  0.00     0.236 C 
ATOM      3  O   UNL d   1      27.076 -14.055   0.796  0.00  0.00    -0.272 OA
ATOM      4  H   UNL d   1      30.081 -15.131   0.382  0.00  0.00     0.190 HD
ENDROOT
BRANCH   1   5
ATOM      5  N   UNL d   1      29.309 -14.823   2.324  0.00  0.00    -0.273 N 
ATOM      6  H   UNL d   1      28.486 -15.206   2.786  0.00  0.00     0.189 HD
BRANCH   5   7
ATOM      7  C   UNL d   1      30.465 -14.325   2.957  0.00  0.00     0.193 C 
ATOM      8  S   UNL d   1      31.903 -14.214   2.079  0.00  0.00    -0.039 SA
BRANCH   7   9
ATOM      9  N   UNL d   1      30.306 -13.950   4.320  0.00  0.00    -0.298 N 
ATOM     10  C   UNL d   1      29.085 -13.895   5.044  0.00  0.00     0.257 C 
ATOM     11  O   UNL d   1      27.991 -14.179   4.545  0.00  0.00    -0.267 OA
ATOM     12  H   UNL d   1      31.146 -13.701   4.819  0.00  0.00     0.171 HD
BRANCH  10  13
ATOM     13  C   UNL d   1      29.014 -13.489   6.497  0.00  0.00     0.033 A 
ATOM     14  C   UNL d   1      28.175 -12.503   7.011  0.00  0.00     0.017 A 
ATOM     15  C   UNL d   1      28.206 -12.191   8.386  0.00  0.00     0.009 A 
ATOM     16  C   UNL d   1      29.066 -12.850   9.284  0.00  0.00    -0.045 A 
ATOM     17  C   UNL d   1      29.064 -12.467  10.741  0.00  0.00     0.049 C 
ATOM     18  C   UNL d   1      29.904 -13.845   8.774  0.00  0.00     0.017 A 
ATOM     19  C   UNL d   1      29.875 -14.157   7.405  0.00  0.00     0.036 A 
ATOM     20 BR   UNL d   1      31.112 -14.802   9.889  0.00  0.00    -0.051 Br
ENDBRANCH  10  13
ENDBRANCH   7   9
ENDBRANCH   5   7
ENDBRANCH   1   5
BRANCH   2  21
ATOM     21  C   UNL d   1      28.153 -14.474  -1.344  0.00  0.00     0.114 C 
BRANCH  21  22
ATOM     22  C   UNL d   1      26.860 -13.960  -2.037  0.00  0.00     0.112 C 
BRANCH  22  23
ATOM     23  C   UNL d   1      25.759 -15.021  -2.028  0.00  0.00     0.222 C 
ATOM     24  O   UNL d   1      25.174 -15.310  -3.072  0.00  0.00    -0.273 OA
ATOM     25  N   UNL d   1      25.428 -15.567  -0.783  0.00  0.00    -0.326 N 
ATOM     26  H   UNL d   1      25.641 -15.032   0.050  0.00  0.00     0.169 HD
BRANCH  25  27
ATOM     27  C   UNL d   1      24.452 -16.611  -0.672  0.00  0.00     0.056 A 
ATOM     28  C   UNL d   1      23.091 -16.321  -0.884  0.00  0.00     0.031 A 
ATOM     29  C   UNL d   1      22.126 -17.347  -0.860  0.00  0.00     0.002 A 
ATOM     30  C   UNL d   1      22.501 -18.662  -0.595  0.00  0.00     0.002 A 
ATOM     31  C   UNL d   1      23.834 -18.953  -0.328  0.00  0.00     0.026 A 
ATOM     32  C   UNL d   1      24.801 -17.939  -0.346  0.00  0.00     0.060 A 
ATOM     33 CL   UNL d   1      26.373 -18.384   0.238  0.00  0.00    -0.082 Cl
ENDBRANCH  25  27
ENDBRANCH  22  23
ENDBRANCH  21  22
ENDBRANCH   2  21
TORSDOF 8
ENDMDL
MODEL 6
REMARK VINA RESULT:    -7.752      5.357      8.229
REMARK INTER + INTRA:         -13.022
REMARK INTER:                 -10.138
REMARK INTRA:                  -2.884
REMARK CONF_INDEPENDENT:        2.386
REMARK UNBOUND:                -2.884
REMARK  8 active torsions:
REMARK  status: ('A' for Active; 'I' for Inactive)
REMARK    1  A    between atoms: C_5  and  C_6 
REMARK       I    between atoms: C_6  and  N_8 
REMARK    2  A    between atoms: N_8  and  C_9 
REMARK    3  A    between atoms: C_9  and  N_11 
REMARK    4  A    between atoms: N_11  and  N_12 
REMARK       I    between atoms: N_12  and  C_13 
REMARK    5  A    between atoms: C_13  and  C_15 
REMARK    6  A    between atoms: C_15  and  C_16 
REMARK    7  A    between atoms: C_16  and  C_17 
REMARK       I    between atoms: C_17  and  N_19 
REMARK    8  A    between atoms: N_19  and  C_20 
ROOT
ATOM      1  N   UNL d   1      26.028  -9.758  -2.917  0.00  0.00    -0.268 N 
ATOM      2  C   UNL d   1      26.756 -10.014  -1.761  0.00  0.00     0.236 C 
ATOM      3  O   UNL d   1      27.012 -11.162  -1.397  0.00  0.00    -0.272 OA
ATOM      4  H   UNL d   1      25.807  -8.813  -3.238  0.00  0.00     0.190 HD
ENDROOT
BRANCH   1   5
ATOM      5  N   UNL d   1      25.526 -10.840  -3.763  0.00  0.00    -0.273 N 
ATOM      6  H   UNL d   1      24.544 -10.752  -4.016  0.00  0.00     0.189 HD
BRANCH   5   7
ATOM      7  C   UNL d   1      26.401 -11.873  -4.156  0.00  0.00     0.193 C 
ATOM      8  S   UNL d   1      27.216 -11.749  -5.628  0.00  0.00    -0.039 SA
BRANCH   7   9
ATOM      9  N   UNL d   1      26.517 -12.958  -3.243  0.00  0.00    -0.298 N 
ATOM     10  C   UNL d   1      25.807 -14.187  -3.297  0.00  0.00     0.257 C 
ATOM     11  O   UNL d   1      24.980 -14.451  -4.176  0.00  0.00    -0.267 OA
ATOM     12  H   UNL d   1      27.173 -12.841  -2.486  0.00  0.00     0.171 HD
BRANCH  10  13
ATOM     13  C   UNL d   1      26.001 -15.288  -2.282  0.00  0.00     0.033 A 
ATOM     14  C   UNL d   1      27.221 -15.644  -1.712  0.00  0.00     0.017 A 
ATOM     15  C   UNL d   1      27.291 -16.705  -0.785  0.00  0.00     0.009 A 
ATOM     16  C   UNL d   1      26.152 -17.436  -0.399  0.00  0.00    -0.045 A 
ATOM     17  C   UNL d   1      26.287 -18.567   0.586  0.00  0.00     0.049 C 
ATOM     18  C   UNL d   1      24.924 -17.078  -0.962  0.00  0.00     0.017 A 
ATOM     19  C   UNL d   1      24.854 -16.022  -1.885  0.00  0.00     0.036 A 
ATOM     20 BR   UNL d   1      23.317 -17.995  -0.521  0.00  0.00    -0.051 Br
ENDBRANCH  10  13
ENDBRANCH   7   9
ENDBRANCH   5   7
ENDBRANCH   1   5
BRANCH   2  21
ATOM     21  C   UNL d   1      27.220  -8.776  -0.973  0.00  0.00     0.114 C 
BRANCH  21  22
ATOM     22  C   UNL d   1      26.246  -8.369   0.167  0.00  0.00     0.112 C 
BRANCH  22  23
ATOM     23  C   UNL d   1      26.478  -9.204   1.427  0.00  0.00     0.222 C 
ATOM     24  O   UNL d   1      26.072  -8.800   2.517  0.00  0.00    -0.273 OA
ATOM     25  N   UNL d   1      27.218 -10.381   1.270  0.00  0.00    -0.326 N 
ATOM     26  H   UNL d   1      27.841 -10.456   0.474  0.00  0.00     0.169 HD
BRANCH  25  27
ATOM     27  C   UNL d   1      27.441 -11.266   2.375  0.00  0.00     0.056 A 
ATOM     28  C   UNL d   1      28.027 -10.774   3.556  0.00  0.00     0.031 A 
ATOM     29  C   UNL d   1      28.180 -11.607   4.682  0.00  0.00     0.002 A 
ATOM     30  C   UNL d   1      27.779 -12.940   4.634  0.00  0.00     0.002 A 
ATOM     31  C   UNL d   1      27.250 -13.453   3.454  0.00  0.00     0.026 A 
ATOM     32  C   UNL d   1      27.098 -12.634   2.328  0.00  0.00     0.060 A 
ATOM     33 CL   UNL d   1      26.658 -13.445   0.858  0.00  0.00    -0.082 Cl
ENDBRANCH  25  27
ENDBRANCH  22  23
ENDBRANCH  21  22
ENDBRANCH   2  21
TORSDOF 8
ENDMDL
MODEL 7
REMARK VINA RESULT:    -7.288      4.815      7.488
REMARK INTER + INTRA:         -13.003
REMARK INTER:                  -9.674
REMARK INTRA:                  -3.329
REMARK CONF_INDEPENDENT:        2.386
REMARK UNBOUND:                -3.329
REMARK  8 active torsions:
REMARK  status: ('A' for Active; 'I' for Inactive)
REMARK    1  A    between atoms: C_5  and  C_6 
REMARK       I    between atoms: C_6  and  N_8 
REMARK    2  A    between atoms: N_8  and  C_9 
REMARK    3  A    between atoms: C_9  and  N_11 
REMARK    4  A    between atoms: N_11  and  N_12 
REMARK       I    between atoms: N_12  and  C_13 
REMARK    5  A    between atoms: C_13  and  C_15 
REMARK    6  A    between atoms: C_15  and  C_16 
REMARK    7  A    between atoms: C_16  and  C_17 
REMARK       I    between atoms: C_17  and  N_19 
REMARK    8  A    between atoms: N_19  and  C_20 
ROOT
ATOM      1  N   UNL d   1      26.720 -17.867  -0.530  0.00  0.00    -0.268 N 
ATOM      2  C   UNL d   1      25.711 -18.217   0.360  0.00  0.00     0.236 C 
ATOM      3  O   UNL d   1      25.958 -18.575   1.510  0.00  0.00    -0.272 OA
ATOM      4  H   UNL d   1      26.537 -17.565  -1.489  0.00  0.00     0.190 HD
ENDROOT
BRANCH   1   5
ATOM      5  N   UNL d   1      28.130 -17.904  -0.145  0.00  0.00    -0.273 N 
ATOM      6  H   UNL d   1      28.442 -18.804   0.215  0.00  0.00     0.189 HD
BRANCH   5   7
ATOM      7  C   UNL d   1      28.920 -16.747  -0.300  0.00  0.00     0.193 C 
ATOM      8  S   UNL d   1      29.867 -16.575  -1.687  0.00  0.00    -0.039 SA
BRANCH   7   9
ATOM      9  N   UNL d   1      28.842 -15.804   0.761  0.00  0.00    -0.298 N 
ATOM     10  C   UNL d   1      27.732 -14.973   1.074  0.00  0.00     0.257 C 
ATOM     11  O   UNL d   1      26.678 -14.985   0.429  0.00  0.00    -0.267 OA
ATOM     12  H   UNL d   1      29.655 -15.720   1.350  0.00  0.00     0.171 HD
BRANCH  10  13
ATOM     13  C   UNL d   1      27.739 -14.001   2.229  0.00  0.00     0.033 A 
ATOM     14  C   UNL d   1      27.339 -12.669   2.155  0.00  0.00     0.017 A 
ATOM     15  C   UNL d   1      27.405 -11.843   3.296  0.00  0.00     0.009 A 
ATOM     16  C   UNL d   1      27.866 -12.318   4.537  0.00  0.00    -0.045 A 
ATOM     17  C   UNL d   1      27.926 -11.387   5.721  0.00  0.00     0.049 C 
ATOM     18  C   UNL d   1      28.261 -13.656   4.619  0.00  0.00     0.017 A 
ATOM     19  C   UNL d   1      28.196 -14.480   3.484  0.00  0.00     0.036 A 
ATOM     20 BR   UNL d   1      28.905 -14.411   6.242  0.00  0.00    -0.051 Br
ENDBRANCH  10  13
ENDBRANCH   7   9
ENDBRANCH   5   7
ENDBRANCH   1   5
BRANCH   2  21
ATOM     21  C   UNL d   1      24.275 -18.127  -0.187  0.00  0.00     0.114 C 
BRANCH  21  22
ATOM     22  C   UNL d   1      23.905 -16.713  -0.717  0.00  0.00     0.112 C 
BRANCH  22  23
ATOM     23  C   UNL d   1      24.779 -16.314  -1.907  0.00  0.00     0.222 C 
ATOM     24  O   UNL d   1      25.120 -17.160  -2.732  0.00  0.00    -0.273 OA
ATOM     25  N   UNL d   1      25.206 -14.982  -1.948  0.00  0.00    -0.326 N 
ATOM     26  H   UNL d   1      25.236 -14.457  -1.082  0.00  0.00     0.169 HD
BRANCH  25  27
ATOM     27  C   UNL d   1      25.978 -14.488  -3.051  0.00  0.00     0.056 A 
ATOM     28  C   UNL d   1      25.969 -15.182  -4.275  0.00  0.00     0.031 A 
ATOM     29  C   UNL d   1      26.655 -14.671  -5.395  0.00  0.00     0.002 A 
ATOM     30  C   UNL d   1      27.378 -13.484  -5.298  0.00  0.00     0.002 A 
ATOM     31  C   UNL d   1      27.441 -12.820  -4.079  0.00  0.00     0.026 A 
ATOM     32  C   UNL d   1      26.766 -13.322  -2.959  0.00  0.00     0.060 A 
ATOM     33 CL   UNL d   1      27.119 -12.540  -1.450  0.00  0.00    -0.082 Cl
ENDBRANCH  25  27
ENDBRANCH  22  23
ENDBRANCH  21  22
ENDBRANCH   2  21
TORSDOF 8
ENDMDL
MODEL 8
REMARK VINA RESULT:    -7.285      4.256      5.546
REMARK INTER + INTRA:         -13.456
REMARK INTER:                  -9.672
REMARK INTRA:                  -3.785
REMARK CONF_INDEPENDENT:        2.386
REMARK UNBOUND:                -3.785
REMARK  8 active torsions:
REMARK  status: ('A' for Active; 'I' for Inactive)
REMARK    1  A    between atoms: C_5  and  C_6 
REMARK       I    between atoms: C_6  and  N_8 
REMARK    2  A    between atoms: N_8  and  C_9 
REMARK    3  A    between atoms: C_9  and  N_11 
REMARK    4  A    between atoms: N_11  and  N_12 
REMARK       I    between atoms: N_12  and  C_13 
REMARK    5  A    between atoms: C_13  and  C_15 
REMARK    6  A    between atoms: C_15  and  C_16 
REMARK    7  A    between atoms: C_16  and  C_17 
REMARK       I    between atoms: C_17  and  N_19 
REMARK    8  A    between atoms: N_19  and  C_20 
ROOT
ATOM      1  N   UNL d   1      26.795 -12.649  -5.770  0.00  0.00    -0.268 N 
ATOM      2  C   UNL d   1      27.758 -12.004  -6.537  0.00  0.00     0.236 C 
ATOM      3  O   UNL d   1      27.701 -10.797  -6.767  0.00  0.00    -0.272 OA
ATOM      4  H   UNL d   1      26.824 -13.650  -5.564  0.00  0.00     0.190 HD
ENDROOT
BRANCH   1   5
ATOM      5  N   UNL d   1      25.661 -11.927  -5.196  0.00  0.00    -0.273 N 
ATOM      6  H   UNL d   1      24.925 -11.704  -5.863  0.00  0.00     0.189 HD
BRANCH   5   7
ATOM      7  C   UNL d   1      25.665 -11.612  -3.822  0.00  0.00     0.193 C 
ATOM      8  S   UNL d   1      25.530  -9.999  -3.344  0.00  0.00    -0.039 SA
BRANCH   7   9
ATOM      9  N   UNL d   1      25.787 -12.720  -2.939  0.00  0.00    -0.298 N 
ATOM     10  C   UNL d   1      25.529 -14.082  -3.251  0.00  0.00     0.257 C 
ATOM     11  O   UNL d   1      25.155 -14.460  -4.367  0.00  0.00    -0.267 OA
ATOM     12  H   UNL d   1      26.090 -12.516  -1.999  0.00  0.00     0.171 HD
BRANCH  10  13
ATOM     13  C   UNL d   1      25.692 -15.196  -2.245  0.00  0.00     0.033 A 
ATOM     14  C   UNL d   1      26.859 -15.468  -1.535  0.00  0.00     0.017 A 
ATOM     15  C   UNL d   1      26.905 -16.550  -0.631  0.00  0.00     0.009 A 
ATOM     16  C   UNL d   1      25.795 -17.385  -0.407  0.00  0.00    -0.045 A 
ATOM     17  C   UNL d   1      25.905 -18.534   0.562  0.00  0.00     0.049 C 
ATOM     18  C   UNL d   1      24.619 -17.112  -1.111  0.00  0.00     0.017 A 
ATOM     19  C   UNL d   1      24.572 -16.036  -2.011  0.00  0.00     0.036 A 
ATOM     20 BR   UNL d   1      23.056 -18.173  -0.895  0.00  0.00    -0.051 Br
ENDBRANCH  10  13
ENDBRANCH   7   9
ENDBRANCH   5   7
ENDBRANCH   1   5
BRANCH   2  21
ATOM     21  C   UNL d   1      28.894 -12.894  -7.072  0.00  0.00     0.114 C 
BRANCH  21  22
ATOM     22  C   UNL d   1      28.515 -14.400  -7.147  0.00  0.00     0.112 C 
BRANCH  22  23
ATOM     23  C   UNL d   1      28.557 -15.058  -5.767  0.00  0.00     0.222 C 
ATOM     24  O   UNL d   1      27.542 -15.575  -5.301  0.00  0.00    -0.273 OA
ATOM     25  N   UNL d   1      29.767 -14.970  -5.070  0.00  0.00    -0.326 N 
ATOM     26  H   UNL d   1      30.409 -14.224  -5.310  0.00  0.00     0.169 HD
BRANCH  25  27
ATOM     27  C   UNL d   1      29.932 -15.605  -3.795  0.00  0.00     0.056 A 
ATOM     28  C   UNL d   1      30.147 -16.995  -3.730  0.00  0.00     0.031 A 
ATOM     29  C   UNL d   1      30.393 -17.626  -2.495  0.00  0.00     0.002 A 
ATOM     30  C   UNL d   1      30.397 -16.887  -1.314  0.00  0.00     0.002 A 
ATOM     31  C   UNL d   1      30.131 -15.523  -1.359  0.00  0.00     0.026 A 
ATOM     32  C   UNL d   1      29.881 -14.887  -2.582  0.00  0.00     0.060 A 
ATOM     33 CL   UNL d   1      29.326 -13.246  -2.481  0.00  0.00    -0.082 Cl
ENDBRANCH  25  27
ENDBRANCH  22  23
ENDBRANCH  21  22
ENDBRANCH   2  21
TORSDOF 8
ENDMDL
