MODEL 1
REMARK VINA RESULT:    -8.864      0.000      0.000
REMARK INTER + INTRA:         -14.577
REMARK INTER:                 -12.145
REMARK INTRA:                  -2.432
REMARK CONF_INDEPENDENT:        3.281
REMARK UNBOUND:                -2.432
REMARK  11 active torsions:
REMARK  status: ('A' for Active; 'I' for Inactive)
REMARK    1  A    between atoms: C_2  and  N_3 
REMARK    2  A    between atoms: N_3  and  C_4 
REMARK    3  A    between atoms: N_3  and  C_32 
REMARK    4  A    between atoms: C_4  and  C_5 
REMARK    5  A    between atoms: C_5  and  C_6 
REMARK    6  A    between atoms: C_6  and  N_7 
REMARK       I    between atoms: N_7  and  C_8 
REMARK    7  A    between atoms: C_8  and  C_10 
REMARK    8  A    between atoms: C_10  and  C_11 
REMARK    9  A    between atoms: C_11  and  C_12 
REMARK       I    between atoms: C_12  and  N_14 
REMARK   10  A    between atoms: N_14  and  C_15 
REMARK   11  A    between atoms: C_20  and  N_21 
ROOT
ATOM      1  C   UNL d   1      30.079 -16.383  -3.802  0.00  0.00     0.222 C 
ATOM      2  O   UNL d   1      29.090 -16.762  -3.187  0.00  0.00    -0.273 OA
ATOM      3  N   UNL d   1      31.048 -17.247  -4.302  0.00  0.00    -0.327 N 
ATOM      4  H   UNL d   1      31.953 -16.863  -4.552  0.00  0.00     0.169 HD
ENDROOT
BRANCH   1   5
ATOM      5  C   UNL d   1      30.360 -14.908  -4.034  0.00  0.00     0.112 C 
BRANCH   5   6
ATOM      6  C   UNL d   1      30.009 -14.503  -5.477  0.00  0.00     0.112 C 
BRANCH   6   7
ATOM      7  C   UNL d   1      28.554 -14.824  -5.762  0.00  0.00     0.217 C 
ATOM      8  N   UNL d   1      27.738 -14.980  -4.665  0.00  0.00    -0.361 N 
ATOM      9  H   UNL d   1      28.106 -14.880  -3.722  0.00  0.00     0.162 HD
ATOM     10  O   UNL d   1      28.124 -14.938  -6.899  0.00  0.00    -0.274 OA
BRANCH   8  11
ATOM     11  C   UNL d   1      26.320 -15.292  -4.881  0.00  0.00     0.124 C 
BRANCH  11  12
ATOM     12  C   UNL d   1      25.462 -14.199  -4.312  0.00  0.00     0.039 C 
BRANCH  12  13
ATOM     13  C   UNL d   1      24.709 -14.409  -3.012  0.00  0.00     0.124 C 
BRANCH  13  14
ATOM     14  N   UNL d   1      25.542 -14.877  -1.877  0.00  0.00    -0.381 N 
BRANCH  14  15
ATOM     15  C   UNL d   1      26.818 -14.298  -1.366  0.00  0.00     0.118 C 
ATOM     16  C   UNL d   1      27.369 -13.011  -1.968  0.00  0.00     0.026 C 
ENDBRANCH  14  15
BRANCH  14  17
ATOM     17  C   UNL d   1      25.128 -16.075  -1.241  0.00  0.00     0.030 C 
ATOM     18  C   UNL d   1      26.061 -16.952  -0.657  0.00  0.00     0.029 C 
ATOM     19  C   UNL d   1      25.677 -18.162  -0.062  0.00  0.00     0.003 C 
ATOM     20  C   UNL d   1      24.359 -18.592  -0.143  0.00  0.00     0.007 C 
ATOM     21  C   UNL d   1      23.399 -17.760  -0.717  0.00  0.00    -0.060 C 
ATOM     22  C   UNL d   1      21.990 -18.256  -0.892  0.00  0.00     0.048 C 
ATOM     23  C   UNL d   1      23.779 -16.479  -1.180  0.00  0.00     0.036 C 
ENDBRANCH  14  17
ENDBRANCH  13  14
ENDBRANCH  12  13
ENDBRANCH  11  12
ENDBRANCH   8  11
ENDBRANCH   6   7
ENDBRANCH   5   6
ENDBRANCH   1   5
BRANCH   3  24
ATOM     24  C   UNL d   1      30.925 -18.651  -4.190  0.00  0.00     0.035 C 
ATOM     25  C   UNL d   1      30.405 -19.416  -5.234  0.00  0.00     0.032 C 
ATOM     26  C   UNL d   1      30.454 -20.814  -5.185  0.00  0.00     0.033 C 
ATOM     27  C   UNL d   1      30.753 -21.457  -3.981  0.00  0.00     0.044 A 
ATOM     28  N   UNL d   1      30.587 -22.787  -3.851  0.00  0.00    -0.342 N 
ATOM     29  C   UNL d   1      31.156 -20.692  -2.864  0.00  0.00    -0.001 A 
ATOM     30  C   UNL d   1      30.684 -23.459  -2.692  0.00  0.00     0.104 A 
ATOM     31  H   UNL d   1      30.262 -23.331  -4.643  0.00  0.00     0.167 HD
ATOM     32  C   UNL d   1      31.029 -22.735  -1.551  0.00  0.00     0.056 A 
ATOM     33  C   UNL d   1      31.293 -21.358  -1.628  0.00  0.00    -0.046 A 
ATOM     34  C   UNL d   1      31.643 -20.598  -0.376  0.00  0.00     0.049 C 
ATOM     35  C   UNL d   1      31.356 -19.298  -3.032  0.00  0.00     0.043 C 
BRANCH  30  36
ATOM     36  N   UNL d   1      30.332 -24.781  -2.706  0.00  0.00    -0.363 N 
ATOM     37  C   UNL d   1      29.164 -25.268  -3.476  0.00  0.00     0.150 C 
ATOM     38  C   UNL d   1      28.035 -25.782  -2.569  0.00  0.00     0.187 C 
ATOM     39  O   UNL d   1      28.530 -26.740  -1.626  0.00  0.00    -0.388 OA
ATOM     40  C   UNL d   1      29.523 -26.147  -0.781  0.00  0.00     0.187 C 
ATOM     41  C   UNL d   1      30.738 -25.680  -1.605  0.00  0.00     0.150 C 
ENDBRANCH  30  36
ENDBRANCH   3  24
TORSDOF 11
ENDMDL
MODEL 2
REMARK VINA RESULT:    -8.827      6.195      9.995
REMARK INTER + INTRA:         -14.653
REMARK INTER:                 -12.109
REMARK INTRA:                  -2.544
REMARK CONF_INDEPENDENT:        3.281
REMARK UNBOUND:                -2.544
REMARK  11 active torsions:
REMARK  status: ('A' for Active; 'I' for Inactive)
REMARK    1  A    between atoms: C_2  and  N_3 
REMARK    2  A    between atoms: N_3  and  C_4 
REMARK    3  A    between atoms: N_3  and  C_32 
REMARK    4  A    between atoms: C_4  and  C_5 
REMARK    5  A    between atoms: C_5  and  C_6 
REMARK    6  A    between atoms: C_6  and  N_7 
REMARK       I    between atoms: N_7  and  C_8 
REMARK    7  A    between atoms: C_8  and  C_10 
REMARK    8  A    between atoms: C_10  and  C_11 
REMARK    9  A    between atoms: C_11  and  C_12 
REMARK       I    between atoms: C_12  and  N_14 
REMARK   10  A    between atoms: N_14  and  C_15 
REMARK   11  A    between atoms: C_20  and  N_21 
ROOT
ATOM      1  C   UNL d   1      25.968  -8.142  -0.056  0.00  0.00     0.222 C 
ATOM      2  O   UNL d   1      25.151  -7.800   0.790  0.00  0.00    -0.273 OA
ATOM      3  N   UNL d   1      27.012  -9.026   0.202  0.00  0.00    -0.327 N 
ATOM      4  H   UNL d   1      27.791  -9.052  -0.447  0.00  0.00     0.169 HD
ENDROOT
BRANCH   1   5
ATOM      5  C   UNL d   1      25.939  -7.585  -1.468  0.00  0.00     0.112 C 
BRANCH   5   6
ATOM      6  C   UNL d   1      25.274  -8.579  -2.436  0.00  0.00     0.112 C 
BRANCH   6   7
ATOM      7  C   UNL d   1      26.260  -9.670  -2.811  0.00  0.00     0.217 C 
ATOM      8  N   UNL d   1      25.759 -10.716  -3.549  0.00  0.00    -0.361 N 
ATOM      9  H   UNL d   1      24.780 -10.742  -3.823  0.00  0.00     0.162 HD
ATOM     10  O   UNL d   1      27.434  -9.627  -2.479  0.00  0.00    -0.274 OA
BRANCH   8  11
ATOM     11  C   UNL d   1      26.668 -11.801  -3.940  0.00  0.00     0.124 C 
BRANCH  11  12
ATOM     12  C   UNL d   1      26.989 -12.655  -2.747  0.00  0.00     0.039 C 
BRANCH  12  13
ATOM     13  C   UNL d   1      25.901 -13.460  -2.061  0.00  0.00     0.124 C 
BRANCH  13  14
ATOM     14  N   UNL d   1      25.712 -14.832  -2.591  0.00  0.00    -0.381 N 
BRANCH  14  15
ATOM     15  C   UNL d   1      25.659 -15.274  -4.014  0.00  0.00     0.118 C 
ATOM     16  C   UNL d   1      26.906 -15.198  -4.886  0.00  0.00     0.026 C 
ENDBRANCH  14  15
BRANCH  14  17
ATOM     17  C   UNL d   1      25.466 -15.851  -1.635  0.00  0.00     0.030 C 
ATOM     18  C   UNL d   1      26.515 -16.422  -0.891  0.00  0.00     0.029 C 
ATOM     19  C   UNL d   1      26.299 -17.460   0.027  0.00  0.00     0.003 C 
ATOM     20  C   UNL d   1      25.044 -18.045   0.137  0.00  0.00     0.007 C 
ATOM     21  C   UNL d   1      23.975 -17.517  -0.585  0.00  0.00    -0.060 C 
ATOM     22  C   UNL d   1      22.636 -18.201  -0.543  0.00  0.00     0.048 C 
ATOM     23  C   UNL d   1      24.180 -16.376  -1.394  0.00  0.00     0.036 C 
ENDBRANCH  14  17
ENDBRANCH  13  14
ENDBRANCH  12  13
ENDBRANCH  11  12
ENDBRANCH   8  11
ENDBRANCH   6   7
ENDBRANCH   5   6
ENDBRANCH   1   5
BRANCH   3  24
ATOM     24  C   UNL d   1      27.167  -9.651   1.460  0.00  0.00     0.035 C 
ATOM     25  C   UNL d   1      27.413  -8.904   2.612  0.00  0.00     0.032 C 
ATOM     26  C   UNL d   1      27.386  -9.511   3.873  0.00  0.00     0.033 C 
ATOM     27  C   UNL d   1      27.403 -10.905   3.973  0.00  0.00     0.044 A 
ATOM     28  N   UNL d   1      27.604 -11.508   5.162  0.00  0.00    -0.342 N 
ATOM     29  C   UNL d   1      27.289 -11.690   2.805  0.00  0.00    -0.001 A 
ATOM     30  C   UNL d   1      27.805 -12.825   5.325  0.00  0.00     0.104 A 
ATOM     31  H   UNL d   1      27.723 -10.942   5.996  0.00  0.00     0.167 HD
ATOM     32  C   UNL d   1      27.753 -13.633   4.189  0.00  0.00     0.056 A 
ATOM     33  C   UNL d   1      27.470 -13.082   2.930  0.00  0.00    -0.046 A 
ATOM     34  C   UNL d   1      27.442 -13.976   1.718  0.00  0.00     0.049 C 
ATOM     35  C   UNL d   1      27.045 -11.036   1.569  0.00  0.00     0.043 C 
BRANCH  30  36
ATOM     36  N   UNL d   1      28.150 -13.253   6.578  0.00  0.00    -0.363 N 
ATOM     37  C   UNL d   1      28.153 -12.335   7.741  0.00  0.00     0.150 C 
ATOM     38  C   UNL d   1      29.567 -12.083   8.288  0.00  0.00     0.187 C 
ATOM     39  O   UNL d   1      30.247 -13.319   8.540  0.00  0.00    -0.388 OA
ATOM     40  C   UNL d   1      30.382 -14.074   7.331  0.00  0.00     0.187 C 
ATOM     41  C   UNL d   1      29.002 -14.447   6.758  0.00  0.00     0.150 C 
ENDBRANCH  30  36
ENDBRANCH   3  24
TORSDOF 11
ENDMDL
MODEL 3
REMARK VINA RESULT:    -8.625      1.981      3.294
REMARK INTER + INTRA:         -14.607
REMARK INTER:                 -11.907
REMARK INTRA:                  -2.700
REMARK CONF_INDEPENDENT:        3.281
REMARK UNBOUND:                -2.700
REMARK  11 active torsions:
REMARK  status: ('A' for Active; 'I' for Inactive)
REMARK    1  A    between atoms: C_2  and  N_3 
REMARK    2  A    between atoms: N_3  and  C_4 
REMARK    3  A    between atoms: N_3  and  C_32 
REMARK    4  A    between atoms: C_4  and  C_5 
REMARK    5  A    between atoms: C_5  and  C_6 
REMARK    6  A    between atoms: C_6  and  N_7 
REMARK       I    between atoms: N_7  and  C_8 
REMARK    7  A    between atoms: C_8  and  C_10 
REMARK    8  A    between atoms: C_10  and  C_11 
REMARK    9  A    between atoms: C_11  and  C_12 
REMARK       I    between atoms: C_12  and  N_14 
REMARK   10  A    between atoms: N_14  and  C_15 
REMARK   11  A    between atoms: C_20  and  N_21 
ROOT
ATOM      1  C   UNL d   1      28.764 -14.651  -6.545  0.00  0.00     0.222 C 
ATOM      2  O   UNL d   1      27.759 -15.228  -6.150  0.00  0.00    -0.273 OA
ATOM      3  N   UNL d   1      30.043 -15.193  -6.456  0.00  0.00    -0.327 N 
ATOM      4  H   UNL d   1      30.837 -14.568  -6.545  0.00  0.00     0.169 HD
ENDROOT
BRANCH   1   5
ATOM      5  C   UNL d   1      28.704 -13.251  -7.132  0.00  0.00     0.112 C 
BRANCH   5   6
ATOM      6  C   UNL d   1      28.628 -12.192  -6.018  0.00  0.00     0.112 C 
BRANCH   6   7
ATOM      7  C   UNL d   1      27.192 -12.040  -5.551  0.00  0.00     0.217 C 
ATOM      8  N   UNL d   1      26.677 -13.084  -4.818  0.00  0.00    -0.361 N 
ATOM      9  H   UNL d   1      27.241 -13.903  -4.607  0.00  0.00     0.162 HD
ATOM     10  O   UNL d   1      26.526 -11.049  -5.807  0.00  0.00    -0.274 OA
BRANCH   8  11
ATOM     11  C   UNL d   1      25.291 -12.991  -4.339  0.00  0.00     0.124 C 
BRANCH  11  12
ATOM     12  C   UNL d   1      24.949 -14.205  -3.524  0.00  0.00     0.039 C 
BRANCH  12  13
ATOM     13  C   UNL d   1      25.814 -15.449  -3.595  0.00  0.00     0.124 C 
BRANCH  13  14
ATOM     14  N   UNL d   1      26.520 -15.791  -2.336  0.00  0.00    -0.381 N 
BRANCH  14  15
ATOM     15  C   UNL d   1      27.924 -15.470  -1.947  0.00  0.00     0.118 C 
ATOM     16  C   UNL d   1      28.725 -14.450  -2.747  0.00  0.00     0.026 C 
ENDBRANCH  14  15
BRANCH  14  17
ATOM     17  C   UNL d   1      25.809 -16.595  -1.409  0.00  0.00     0.030 C 
ATOM     18  C   UNL d   1      26.482 -17.363  -0.441  0.00  0.00     0.029 C 
ATOM     19  C   UNL d   1      25.799 -18.198   0.455  0.00  0.00     0.003 C 
ATOM     20  C   UNL d   1      24.429 -18.385   0.329  0.00  0.00     0.007 C 
ATOM     21  C   UNL d   1      23.720 -17.651  -0.620  0.00  0.00    -0.060 C 
ATOM     22  C   UNL d   1      22.254 -17.915  -0.825  0.00  0.00     0.048 C 
ATOM     23  C   UNL d   1      24.403 -16.703  -1.416  0.00  0.00     0.036 C 
ENDBRANCH  14  17
ENDBRANCH  13  14
ENDBRANCH  12  13
ENDBRANCH  11  12
ENDBRANCH   8  11
ENDBRANCH   6   7
ENDBRANCH   5   6
ENDBRANCH   1   5
BRANCH   3  24
ATOM     24  C   UNL d   1      30.268 -16.495  -5.955  0.00  0.00     0.035 C 
ATOM     25  C   UNL d   1      30.329 -16.740  -4.583  0.00  0.00     0.032 C 
ATOM     26  C   UNL d   1      30.371 -18.051  -4.096  0.00  0.00     0.033 C 
ATOM     27  C   UNL d   1      30.645 -19.108  -4.968  0.00  0.00     0.044 A 
ATOM     28  N   UNL d   1      30.914 -20.341  -4.494  0.00  0.00    -0.342 N 
ATOM     29  C   UNL d   1      30.722 -18.864  -6.357  0.00  0.00    -0.001 A 
ATOM     30  C   UNL d   1      31.352 -21.367  -5.241  0.00  0.00     0.104 A 
ATOM     31  H   UNL d   1      30.895 -20.507  -3.494  0.00  0.00     0.167 HD
ATOM     32  C   UNL d   1      31.493 -21.155  -6.612  0.00  0.00     0.056 A 
ATOM     33  C   UNL d   1      31.157 -19.919  -7.185  0.00  0.00    -0.046 A 
ATOM     34  C   UNL d   1      31.340 -19.712  -8.666  0.00  0.00     0.049 C 
ATOM     35  C   UNL d   1      30.404 -17.567  -6.836  0.00  0.00     0.043 C 
BRANCH  30  36
ATOM     36  N   UNL d   1      31.727 -22.504  -4.580  0.00  0.00    -0.363 N 
ATOM     37  C   UNL d   1      32.419 -23.616  -5.273  0.00  0.00     0.150 C 
ATOM     38  C   UNL d   1      31.556 -24.885  -5.356  0.00  0.00     0.187 C 
ATOM     39  O   UNL d   1      31.053 -25.249  -4.065  0.00  0.00    -0.388 OA
ATOM     40  C   UNL d   1      30.231 -24.204  -3.532  0.00  0.00     0.187 C 
ATOM     41  C   UNL d   1      31.044 -22.912  -3.334  0.00  0.00     0.150 C 
ENDBRANCH  30  36
ENDBRANCH   3  24
TORSDOF 11
ENDMDL
MODEL 4
REMARK VINA RESULT:    -8.363      4.139      6.357
REMARK INTER + INTRA:         -14.524
REMARK INTER:                 -11.645
REMARK INTRA:                  -2.879
REMARK CONF_INDEPENDENT:        3.281
REMARK UNBOUND:                -2.879
REMARK  11 active torsions:
REMARK  status: ('A' for Active; 'I' for Inactive)
REMARK    1  A    between atoms: C_2  and  N_3 
REMARK    2  A    between atoms: N_3  and  C_4 
REMARK    3  A    between atoms: N_3  and  C_32 
REMARK    4  A    between atoms: C_4  and  C_5 
REMARK    5  A    between atoms: C_5  and  C_6 
REMARK    6  A    between atoms: C_6  and  N_7 
REMARK       I    between atoms: N_7  and  C_8 
REMARK    7  A    between atoms: C_8  and  C_10 
REMARK    8  A    between atoms: C_10  and  C_11 
REMARK    9  A    between atoms: C_11  and  C_12 
REMARK       I    between atoms: C_12  and  N_14 
REMARK   10  A    between atoms: N_14  and  C_15 
REMARK   11  A    between atoms: C_20  and  N_21 
ROOT
ATOM      1  C   UNL d   1      26.613 -10.763  -6.287  0.00  0.00     0.222 C 
ATOM      2  O   UNL d   1      25.944 -11.450  -7.048  0.00  0.00    -0.273 OA
ATOM      3  N   UNL d   1      27.774 -11.216  -5.668  0.00  0.00    -0.327 N 
ATOM      4  H   UNL d   1      28.117 -10.708  -4.859  0.00  0.00     0.169 HD
ENDROOT
BRANCH   1   5
ATOM      5  C   UNL d   1      26.198  -9.351  -5.910  0.00  0.00     0.112 C 
BRANCH   5   6
ATOM      6  C   UNL d   1      25.472  -9.336  -4.553  0.00  0.00     0.112 C 
BRANCH   6   7
ATOM      7  C   UNL d   1      25.983 -10.470  -3.684  0.00  0.00     0.217 C 
ATOM      8  N   UNL d   1      25.244 -11.629  -3.699  0.00  0.00    -0.361 N 
ATOM      9  H   UNL d   1      24.405 -11.707  -4.269  0.00  0.00     0.162 HD
ATOM     10  O   UNL d   1      26.993 -10.365  -3.006  0.00  0.00    -0.274 OA
BRANCH   8  11
ATOM     11  C   UNL d   1      25.691 -12.760  -2.876  0.00  0.00     0.124 C 
BRANCH  11  12
ATOM     12  C   UNL d   1      24.920 -13.996  -3.241  0.00  0.00     0.039 C 
BRANCH  12  13
ATOM     13  C   UNL d   1      25.644 -15.299  -3.526  0.00  0.00     0.124 C 
BRANCH  13  14
ATOM     14  N   UNL d   1      26.436 -15.834  -2.392  0.00  0.00    -0.381 N 
BRANCH  14  15
ATOM     15  C   UNL d   1      27.893 -15.661  -2.119  0.00  0.00     0.118 C 
ATOM     16  C   UNL d   1      28.908 -16.594  -2.768  0.00  0.00     0.026 C 
ENDBRANCH  14  15
BRANCH  14  17
ATOM     17  C   UNL d   1      25.753 -16.687  -1.489  0.00  0.00     0.030 C 
ATOM     18  C   UNL d   1      26.415 -17.274  -0.395  0.00  0.00     0.029 C 
ATOM     19  C   UNL d   1      25.769 -18.155   0.483  0.00  0.00     0.003 C 
ATOM     20  C   UNL d   1      24.471 -18.575   0.222  0.00  0.00     0.007 C 
ATOM     21  C   UNL d   1      23.776 -18.026  -0.855  0.00  0.00    -0.060 C 
ATOM     22  C   UNL d   1      22.406 -18.542  -1.200  0.00  0.00     0.048 C 
ATOM     23  C   UNL d   1      24.393 -17.028  -1.644  0.00  0.00     0.036 C 
ENDBRANCH  14  17
ENDBRANCH  13  14
ENDBRANCH  12  13
ENDBRANCH  11  12
ENDBRANCH   8  11
ENDBRANCH   6   7
ENDBRANCH   5   6
ENDBRANCH   1   5
BRANCH   3  24
ATOM     24  C   UNL d   1      28.307 -12.499  -5.928  0.00  0.00     0.035 C 
ATOM     25  C   UNL d   1      27.680 -13.651  -5.456  0.00  0.00     0.032 C 
ATOM     26  C   UNL d   1      28.112 -14.916  -5.869  0.00  0.00     0.033 C 
ATOM     27  C   UNL d   1      29.343 -15.053  -6.518  0.00  0.00     0.044 A 
ATOM     28  N   UNL d   1      29.882 -16.271  -6.722  0.00  0.00    -0.342 N 
ATOM     29  C   UNL d   1      30.066 -13.899  -6.890  0.00  0.00    -0.001 A 
ATOM     30  C   UNL d   1      31.126 -16.488  -7.177  0.00  0.00     0.104 A 
ATOM     31  H   UNL d   1      29.379 -17.098  -6.421  0.00  0.00     0.167 HD
ATOM     32  C   UNL d   1      31.898 -15.374  -7.508  0.00  0.00     0.056 A 
ATOM     33  C   UNL d   1      31.371 -14.078  -7.394  0.00  0.00    -0.046 A 
ATOM     34  C   UNL d   1      32.234 -12.892  -7.739  0.00  0.00     0.049 C 
ATOM     35  C   UNL d   1      29.465 -12.629  -6.695  0.00  0.00     0.043 C 
BRANCH  30  36
ATOM     36  N   UNL d   1      31.574 -17.780  -7.178  0.00  0.00    -0.363 N 
ATOM     37  C   UNL d   1      31.771 -18.536  -8.437  0.00  0.00     0.150 C 
ATOM     38  C   UNL d   1      30.781 -19.703  -8.584  0.00  0.00     0.187 C 
ATOM     39  O   UNL d   1      30.793 -20.534  -7.417  0.00  0.00    -0.388 OA
ATOM     40  C   UNL d   1      30.404 -19.784  -6.261  0.00  0.00     0.187 C 
ATOM     41  C   UNL d   1      31.398 -18.640  -5.989  0.00  0.00     0.150 C 
ENDBRANCH  30  36
ENDBRANCH   3  24
TORSDOF 11
ENDMDL
MODEL 5
REMARK VINA RESULT:    -8.357      6.869     10.183
REMARK INTER + INTRA:         -14.487
REMARK INTER:                 -11.638
REMARK INTRA:                  -2.848
REMARK CONF_INDEPENDENT:        3.281
REMARK UNBOUND:                -2.848
REMARK  11 active torsions:
REMARK  status: ('A' for Active; 'I' for Inactive)
REMARK    1  A    between atoms: C_2  and  N_3 
REMARK    2  A    between atoms: N_3  and  C_4 
REMARK    3  A    between atoms: N_3  and  C_32 
REMARK    4  A    between atoms: C_4  and  C_5 
REMARK    5  A    between atoms: C_5  and  C_6 
REMARK    6  A    between atoms: C_6  and  N_7 
REMARK       I    between atoms: N_7  and  C_8 
REMARK    7  A    between atoms: C_8  and  C_10 
REMARK    8  A    between atoms: C_10  and  C_11 
REMARK    9  A    between atoms: C_11  and  C_12 
REMARK       I    between atoms: C_12  and  N_14 
REMARK   10  A    between atoms: N_14  and  C_15 
REMARK   11  A    between atoms: C_20  and  N_21 
ROOT
ATOM      1  C   UNL d   1      27.135 -12.185   1.384  0.00  0.00     0.222 C 
ATOM      2  O   UNL d   1      26.616 -11.368   2.135  0.00  0.00    -0.273 OA
ATOM      3  N   UNL d   1      27.894 -13.263   1.832  0.00  0.00    -0.327 N 
ATOM      4  H   UNL d   1      28.505 -13.728   1.169  0.00  0.00     0.169 HD
ENDROOT
BRANCH   1   5
ATOM      5  C   UNL d   1      27.030 -12.063  -0.126  0.00  0.00     0.112 C 
BRANCH   5   6
ATOM      6  C   UNL d   1      28.419 -12.162  -0.782  0.00  0.00     0.112 C 
BRANCH   6   7
ATOM      7  C   UNL d   1      28.573 -13.511  -1.458  0.00  0.00     0.217 C 
ATOM      8  N   UNL d   1      28.422 -13.528  -2.825  0.00  0.00    -0.361 N 
ATOM      9  H   UNL d   1      28.221 -12.674  -3.339  0.00  0.00     0.162 HD
ATOM     10  O   UNL d   1      28.818 -14.529  -0.830  0.00  0.00    -0.274 OA
BRANCH   8  11
ATOM     11  C   UNL d   1      28.560 -14.807  -3.533  0.00  0.00     0.124 C 
BRANCH  11  12
ATOM     12  C   UNL d   1      27.545 -14.893  -4.637  0.00  0.00     0.039 C 
BRANCH  12  13
ATOM     13  C   UNL d   1      26.210 -15.575  -4.404  0.00  0.00     0.124 C 
BRANCH  13  14
ATOM     14  N   UNL d   1      25.424 -15.034  -3.268  0.00  0.00    -0.381 N 
BRANCH  14  15
ATOM     15  C   UNL d   1      24.787 -13.691  -3.141  0.00  0.00     0.118 C 
ATOM     16  C   UNL d   1      25.566 -12.437  -3.517  0.00  0.00     0.026 C 
ENDBRANCH  14  15
BRANCH  14  17
ATOM     17  C   UNL d   1      25.327 -15.857  -2.117  0.00  0.00     0.030 C 
ATOM     18  C   UNL d   1      26.472 -16.238  -1.394  0.00  0.00     0.029 C 
ATOM     19  C   UNL d   1      26.402 -17.086  -0.279  0.00  0.00     0.003 C 
ATOM     20  C   UNL d   1      25.197 -17.679   0.073  0.00  0.00     0.007 C 
ATOM     21  C   UNL d   1      24.036 -17.337  -0.619  0.00  0.00    -0.060 C 
ATOM     22  C   UNL d   1      22.746 -18.042  -0.306  0.00  0.00     0.048 C 
ATOM     23  C   UNL d   1      24.100 -16.367  -1.646  0.00  0.00     0.036 C 
ENDBRANCH  14  17
ENDBRANCH  13  14
ENDBRANCH  12  13
ENDBRANCH  11  12
ENDBRANCH   8  11
ENDBRANCH   6   7
ENDBRANCH   5   6
ENDBRANCH   1   5
BRANCH   3  24
ATOM     24  C   UNL d   1      28.069 -13.531   3.208  0.00  0.00     0.035 C 
ATOM     25  C   UNL d   1      27.921 -14.822   3.716  0.00  0.00     0.032 C 
ATOM     26  C   UNL d   1      28.272 -15.109   5.040  0.00  0.00     0.033 C 
ATOM     27  C   UNL d   1      28.493 -14.066   5.943  0.00  0.00     0.044 A 
ATOM     28  N   UNL d   1      28.608 -14.310   7.263  0.00  0.00    -0.342 N 
ATOM     29  C   UNL d   1      28.516 -12.733   5.476  0.00  0.00    -0.001 A 
ATOM     30  C   UNL d   1      28.650 -13.362   8.213  0.00  0.00     0.104 A 
ATOM     31  H   UNL d   1      28.555 -15.264   7.603  0.00  0.00     0.167 HD
ATOM     32  C   UNL d   1      28.622 -12.030   7.800  0.00  0.00     0.056 A 
ATOM     33  C   UNL d   1      28.582 -11.703   6.436  0.00  0.00    -0.046 A 
ATOM     34  C   UNL d   1      28.531 -10.256   6.021  0.00  0.00     0.049 C 
ATOM     35  C   UNL d   1      28.426 -12.502   4.079  0.00  0.00     0.043 C 
BRANCH  30  36
ATOM     36  N   UNL d   1      28.610 -13.781   9.515  0.00  0.00    -0.363 N 
ATOM     37  C   UNL d   1      28.123 -12.900  10.602  0.00  0.00     0.150 C 
ATOM     38  C   UNL d   1      29.239 -12.505  11.583  0.00  0.00     0.187 C 
ATOM     39  O   UNL d   1      29.935 -13.662  12.061  0.00  0.00    -0.388 OA
ATOM     40  C   UNL d   1      30.547 -14.366  10.974  0.00  0.00     0.187 C 
ATOM     41  C   UNL d   1      29.485 -14.876   9.982  0.00  0.00     0.150 C 
ENDBRANCH  30  36
ENDBRANCH   3  24
TORSDOF 11
ENDMDL
MODEL 6
REMARK VINA RESULT:    -8.273      2.372      3.308
REMARK INTER + INTRA:         -14.534
REMARK INTER:                 -11.555
REMARK INTRA:                  -2.979
REMARK CONF_INDEPENDENT:        3.281
REMARK UNBOUND:                -2.979
REMARK  11 active torsions:
REMARK  status: ('A' for Active; 'I' for Inactive)
REMARK    1  A    between atoms: C_2  and  N_3 
REMARK    2  A    between atoms: N_3  and  C_4 
REMARK    3  A    between atoms: N_3  and  C_32 
REMARK    4  A    between atoms: C_4  and  C_5 
REMARK    5  A    between atoms: C_5  and  C_6 
REMARK    6  A    between atoms: C_6  and  N_7 
REMARK       I    between atoms: N_7  and  C_8 
REMARK    7  A    between atoms: C_8  and  C_10 
REMARK    8  A    between atoms: C_10  and  C_11 
REMARK    9  A    between atoms: C_11  and  C_12 
REMARK       I    between atoms: C_12  and  N_14 
REMARK   10  A    between atoms: N_14  and  C_15 
REMARK   11  A    between atoms: C_20  and  N_21 
ROOT
ATOM      1  C   UNL d   1      28.827 -15.073  -5.786  0.00  0.00     0.222 C 
ATOM      2  O   UNL d   1      27.791 -15.585  -5.379  0.00  0.00    -0.273 OA
ATOM      3  N   UNL d   1      30.085 -15.379  -5.275  0.00  0.00    -0.327 N 
ATOM      4  H   UNL d   1      30.848 -14.737  -5.459  0.00  0.00     0.169 HD
ENDROOT
BRANCH   1   5
ATOM      5  C   UNL d   1      28.821 -14.008  -6.869  0.00  0.00     0.112 C 
BRANCH   5   6
ATOM      6  C   UNL d   1      28.799 -12.599  -6.252  0.00  0.00     0.112 C 
BRANCH   6   7
ATOM      7  C   UNL d   1      27.391 -12.255  -5.804  0.00  0.00     0.217 C 
ATOM      8  N   UNL d   1      26.887 -12.994  -4.759  0.00  0.00    -0.361 N 
ATOM      9  H   UNL d   1      27.441 -13.725  -4.321  0.00  0.00     0.162 HD
ATOM     10  O   UNL d   1      26.737 -11.372  -6.337  0.00  0.00    -0.274 OA
BRANCH   8  11
ATOM     11  C   UNL d   1      25.527 -12.704  -4.284  0.00  0.00     0.124 C 
BRANCH  11  12
ATOM     12  C   UNL d   1      24.800 -13.987  -4.003  0.00  0.00     0.039 C 
BRANCH  12  13
ATOM     13  C   UNL d   1      25.548 -15.198  -3.479  0.00  0.00     0.124 C 
BRANCH  13  14
ATOM     14  N   UNL d   1      25.819 -15.181  -2.020  0.00  0.00    -0.381 N 
BRANCH  14  15
ATOM     15  C   UNL d   1      26.648 -14.212  -1.246  0.00  0.00     0.118 C 
ATOM     16  C   UNL d   1      27.992 -13.747  -1.793  0.00  0.00     0.026 C 
ENDBRANCH  14  15
BRANCH  14  17
ATOM     17  C   UNL d   1      25.299 -16.263  -1.267  0.00  0.00     0.030 C 
ATOM     18  C   UNL d   1      26.140 -17.086  -0.494  0.00  0.00     0.029 C 
ATOM     19  C   UNL d   1      25.651 -18.188   0.223  0.00  0.00     0.003 C 
ATOM     20  C   UNL d   1      24.324 -18.575   0.090  0.00  0.00     0.007 C 
ATOM     21  C   UNL d   1      23.454 -17.794  -0.670  0.00  0.00    -0.060 C 
ATOM     22  C   UNL d   1      22.041 -18.255  -0.895  0.00  0.00     0.048 C 
ATOM     23  C   UNL d   1      23.931 -16.604  -1.266  0.00  0.00     0.036 C 
ENDBRANCH  14  17
ENDBRANCH  13  14
ENDBRANCH  12  13
ENDBRANCH  11  12
ENDBRANCH   8  11
ENDBRANCH   6   7
ENDBRANCH   5   6
ENDBRANCH   1   5
BRANCH   3  24
ATOM     24  C   UNL d   1      30.266 -16.365  -4.278  0.00  0.00     0.035 C 
ATOM     25  C   UNL d   1      30.180 -16.046  -2.923  0.00  0.00     0.032 C 
ATOM     26  C   UNL d   1      30.181 -17.056  -1.953  0.00  0.00     0.033 C 
ATOM     27  C   UNL d   1      30.556 -18.356  -2.304  0.00  0.00     0.044 A 
ATOM     28  N   UNL d   1      30.782 -19.286  -1.356  0.00  0.00    -0.342 N 
ATOM     29  C   UNL d   1      30.780 -18.675  -3.661  0.00  0.00    -0.001 A 
ATOM     30  C   UNL d   1      31.307 -20.500  -1.588  0.00  0.00     0.104 A 
ATOM     31  H   UNL d   1      30.657 -19.046  -0.378  0.00  0.00     0.167 HD
ATOM     32  C   UNL d   1      31.593 -20.839  -2.910  0.00  0.00     0.056 A 
ATOM     33  C   UNL d   1      31.310 -19.947  -3.956  0.00  0.00    -0.046 A 
ATOM     34  C   UNL d   1      31.649 -20.332  -5.372  0.00  0.00     0.049 C 
ATOM     35  C   UNL d   1      30.504 -17.689  -4.644  0.00  0.00     0.043 C 
BRANCH  30  36
ATOM     36  N   UNL d   1      31.618 -21.265  -0.497  0.00  0.00    -0.363 N 
ATOM     37  C   UNL d   1      30.694 -22.304   0.014  0.00  0.00     0.150 C 
ATOM     38  C   UNL d   1      30.123 -21.956   1.398  0.00  0.00     0.187 C 
ATOM     39  O   UNL d   1      31.171 -21.628   2.317  0.00  0.00    -0.388 OA
ATOM     40  C   UNL d   1      31.907 -20.489   1.857  0.00  0.00     0.187 C 
ATOM     41  C   UNL d   1      32.589 -20.784   0.508  0.00  0.00     0.150 C 
ENDBRANCH  30  36
ENDBRANCH   3  24
TORSDOF 11
ENDMDL
MODEL 7
REMARK VINA RESULT:    -8.259      4.761     10.358
REMARK INTER + INTRA:         -14.609
REMARK INTER:                 -11.540
REMARK INTRA:                  -3.068
REMARK CONF_INDEPENDENT:        3.281
REMARK UNBOUND:                -3.068
REMARK  11 active torsions:
REMARK  status: ('A' for Active; 'I' for Inactive)
REMARK    1  A    between atoms: C_2  and  N_3 
REMARK    2  A    between atoms: N_3  and  C_4 
REMARK    3  A    between atoms: N_3  and  C_32 
REMARK    4  A    between atoms: C_4  and  C_5 
REMARK    5  A    between atoms: C_5  and  C_6 
REMARK    6  A    between atoms: C_6  and  N_7 
REMARK       I    between atoms: N_7  and  C_8 
REMARK    7  A    between atoms: C_8  and  C_10 
REMARK    8  A    between atoms: C_10  and  C_11 
REMARK    9  A    between atoms: C_11  and  C_12 
REMARK       I    between atoms: C_12  and  N_14 
REMARK   10  A    between atoms: N_14  and  C_15 
REMARK   11  A    between atoms: C_20  and  N_21 
ROOT
ATOM      1  C   UNL d   1      28.700 -15.172  -6.089  0.00  0.00     0.222 C 
ATOM      2  O   UNL d   1      27.662 -15.279  -5.448  0.00  0.00    -0.273 OA
ATOM      3  N   UNL d   1      29.027 -14.044  -6.835  0.00  0.00    -0.327 N 
ATOM      4  H   UNL d   1      29.749 -14.128  -7.542  0.00  0.00     0.169 HD
ENDROOT
BRANCH   1   5
ATOM      5  C   UNL d   1      29.712 -16.302  -6.164  0.00  0.00     0.112 C 
BRANCH   5   6
ATOM      6  C   UNL d   1      29.905 -16.957  -4.785  0.00  0.00     0.112 C 
BRANCH   6   7
ATOM      7  C   UNL d   1      30.121 -15.887  -3.732  0.00  0.00     0.217 C 
ATOM      8  N   UNL d   1      28.990 -15.398  -3.120  0.00  0.00    -0.361 N 
ATOM      9  H   UNL d   1      28.068 -15.747  -3.370  0.00  0.00     0.162 HD
ATOM     10  O   UNL d   1      31.233 -15.478  -3.438  0.00  0.00    -0.274 OA
BRANCH   8  11
ATOM     11  C   UNL d   1      29.139 -14.359  -2.092  0.00  0.00     0.124 C 
BRANCH  11  12
ATOM     12  C   UNL d   1      28.106 -14.549  -1.019  0.00  0.00     0.039 C 
BRANCH  12  13
ATOM     13  C   UNL d   1      26.654 -14.191  -1.276  0.00  0.00     0.124 C 
BRANCH  13  14
ATOM     14  N   UNL d   1      25.884 -15.209  -2.032  0.00  0.00    -0.381 N 
BRANCH  14  15
ATOM     15  C   UNL d   1      25.531 -15.212  -3.481  0.00  0.00     0.118 C 
ATOM     16  C   UNL d   1      24.838 -14.006  -4.102  0.00  0.00     0.026 C 
ENDBRANCH  14  15
BRANCH  14  17
ATOM     17  C   UNL d   1      25.339 -16.279  -1.278  0.00  0.00     0.030 C 
ATOM     18  C   UNL d   1      26.160 -17.125  -0.511  0.00  0.00     0.029 C 
ATOM     19  C   UNL d   1      25.645 -18.214   0.207  0.00  0.00     0.003 C 
ATOM     20  C   UNL d   1      24.308 -18.565   0.080  0.00  0.00     0.007 C 
ATOM     21  C   UNL d   1      23.456 -17.760  -0.675  0.00  0.00    -0.060 C 
ATOM     22  C   UNL d   1      22.030 -18.182  -0.894  0.00  0.00     0.048 C 
ATOM     23  C   UNL d   1      23.962 -16.582  -1.271  0.00  0.00     0.036 C 
ENDBRANCH  14  17
ENDBRANCH  13  14
ENDBRANCH  12  13
ENDBRANCH  11  12
ENDBRANCH   8  11
ENDBRANCH   6   7
ENDBRANCH   5   6
ENDBRANCH   1   5
BRANCH   3  24
ATOM     24  C   UNL d   1      28.202 -12.896  -6.853  0.00  0.00     0.035 C 
ATOM     25  C   UNL d   1      28.033 -12.148  -8.018  0.00  0.00     0.032 C 
ATOM     26  C   UNL d   1      27.079 -11.125  -8.073  0.00  0.00     0.033 C 
ATOM     27  C   UNL d   1      26.497 -10.653  -6.894  0.00  0.00     0.044 A 
ATOM     28  N   UNL d   1      25.753  -9.529  -6.895  0.00  0.00    -0.342 N 
ATOM     29  C   UNL d   1      26.758 -11.314  -5.674  0.00  0.00    -0.001 A 
ATOM     30  C   UNL d   1      25.301  -8.912  -5.792  0.00  0.00     0.104 A 
ATOM     31  H   UNL d   1      25.596  -9.033  -7.766  0.00  0.00     0.167 HD
ATOM     32  C   UNL d   1      25.581  -9.502  -4.559  0.00  0.00     0.056 A 
ATOM     33  C   UNL d   1      26.285 -10.714  -4.489  0.00  0.00    -0.046 A 
ATOM     34  C   UNL d   1      26.591 -11.318  -3.143  0.00  0.00     0.049 C 
ATOM     35  C   UNL d   1      27.516 -12.513  -5.701  0.00  0.00     0.043 C 
BRANCH  30  36
ATOM     36  N   UNL d   1      24.695  -7.697  -5.960  0.00  0.00    -0.363 N 
ATOM     37  C   UNL d   1      25.192  -6.478  -5.281  0.00  0.00     0.150 C 
ATOM     38  C   UNL d   1      24.206  -5.947  -4.228  0.00  0.00     0.187 C 
ATOM     39  O   UNL d   1      22.896  -5.789  -4.787  0.00  0.00    -0.388 OA
ATOM     40  C   UNL d   1      22.393  -7.047  -5.252  0.00  0.00     0.187 C 
ATOM     41  C   UNL d   1      23.280  -7.612  -6.377  0.00  0.00     0.150 C 
ENDBRANCH  30  36
ENDBRANCH   3  24
TORSDOF 11
ENDMDL
MODEL 8
REMARK VINA RESULT:    -8.034      4.833      8.220
REMARK INTER + INTRA:         -14.786
REMARK INTER:                 -11.315
REMARK INTRA:                  -3.470
REMARK CONF_INDEPENDENT:        3.281
REMARK UNBOUND:                -3.470
REMARK  11 active torsions:
REMARK  status: ('A' for Active; 'I' for Inactive)
REMARK    1  A    between atoms: C_2  and  N_3 
REMARK    2  A    between atoms: N_3  and  C_4 
REMARK    3  A    between atoms: N_3  and  C_32 
REMARK    4  A    between atoms: C_4  and  C_5 
REMARK    5  A    between atoms: C_5  and  C_6 
REMARK    6  A    between atoms: C_6  and  N_7 
REMARK       I    between atoms: N_7  and  C_8 
REMARK    7  A    between atoms: C_8  and  C_10 
REMARK    8  A    between atoms: C_10  and  C_11 
REMARK    9  A    between atoms: C_11  and  C_12 
REMARK       I    between atoms: C_12  and  N_14 
REMARK   10  A    between atoms: N_14  and  C_15 
REMARK   11  A    between atoms: C_20  and  N_21 
ROOT
ATOM      1  C   UNL d   1      29.726 -15.927  -1.962  0.00  0.00     0.222 C 
ATOM      2  O   UNL d   1      28.616 -16.180  -1.511  0.00  0.00    -0.273 OA
ATOM      3  N   UNL d   1      30.735 -15.322  -1.218  0.00  0.00    -0.327 N 
ATOM      4  H   UNL d   1      31.513 -14.902  -1.715  0.00  0.00     0.169 HD
ENDROOT
BRANCH   1   5
ATOM      5  C   UNL d   1      30.087 -16.214  -3.409  0.00  0.00     0.112 C 
BRANCH   5   6
ATOM      6  C   UNL d   1      29.770 -15.002  -4.304  0.00  0.00     0.112 C 
BRANCH   6   7
ATOM      7  C   UNL d   1      28.427 -15.199  -4.981  0.00  0.00     0.217 C 
ATOM      8  N   UNL d   1      27.347 -15.380  -4.148  0.00  0.00    -0.361 N 
ATOM      9  H   UNL d   1      27.459 -15.377  -3.138  0.00  0.00     0.162 HD
ATOM     10  O   UNL d   1      28.305 -15.198  -6.195  0.00  0.00    -0.274 OA
BRANCH   8  11
ATOM     11  C   UNL d   1      26.021 -15.577  -4.749  0.00  0.00     0.124 C 
BRANCH  11  12
ATOM     12  C   UNL d   1      25.155 -14.379  -4.481  0.00  0.00     0.039 C 
BRANCH  12  13
ATOM     13  C   UNL d   1      24.565 -14.148  -3.103  0.00  0.00     0.124 C 
BRANCH  13  14
ATOM     14  N   UNL d   1      25.420 -14.595  -1.975  0.00  0.00    -0.381 N 
BRANCH  14  15
ATOM     15  C   UNL d   1      26.660 -13.956  -1.446  0.00  0.00     0.118 C 
ATOM     16  C   UNL d   1      27.207 -12.692  -2.098  0.00  0.00     0.026 C 
ENDBRANCH  14  15
BRANCH  14  17
ATOM     17  C   UNL d   1      25.072 -15.828  -1.368  0.00  0.00     0.030 C 
ATOM     18  C   UNL d   1      23.736 -16.264  -1.313  0.00  0.00     0.029 C 
ATOM     19  C   UNL d   1      23.366 -17.459  -0.678  0.00  0.00     0.003 C 
ATOM     20  C   UNL d   1      24.309 -18.193   0.030  0.00  0.00     0.007 C 
ATOM     21  C   UNL d   1      25.645 -17.797   0.010  0.00  0.00    -0.060 C 
ATOM     22  C   UNL d   1      26.654 -18.532   0.848  0.00  0.00     0.048 C 
ATOM     23  C   UNL d   1      26.023 -16.671  -0.758  0.00  0.00     0.036 C 
ENDBRANCH  14  17
ENDBRANCH  13  14
ENDBRANCH  12  13
ENDBRANCH  11  12
ENDBRANCH   8  11
ENDBRANCH   6   7
ENDBRANCH   5   6
ENDBRANCH   1   5
BRANCH   3  24
ATOM     24  C   UNL d   1      30.568 -15.010   0.151  0.00  0.00     0.035 C 
ATOM     25  C   UNL d   1      31.569 -15.288   1.082  0.00  0.00     0.032 C 
ATOM     26  C   UNL d   1      31.470 -14.815   2.395  0.00  0.00     0.033 C 
ATOM     27  C   UNL d   1      30.252 -14.317   2.864  0.00  0.00     0.044 A 
ATOM     28  N   UNL d   1      30.069 -14.068   4.176  0.00  0.00    -0.342 N 
ATOM     29  C   UNL d   1      29.175 -14.150   1.967  0.00  0.00    -0.001 A 
ATOM     30  C   UNL d   1      28.889 -13.755   4.736  0.00  0.00     0.104 A 
ATOM     31  H   UNL d   1      30.831 -14.224   4.826  0.00  0.00     0.167 HD
ATOM     32  C   UNL d   1      27.785 -13.630   3.893  0.00  0.00     0.056 A 
ATOM     33  C   UNL d   1      27.920 -13.799   2.506  0.00  0.00    -0.046 A 
ATOM     34  C   UNL d   1      26.706 -13.679   1.622  0.00  0.00     0.049 C 
ATOM     35  C   UNL d   1      29.400 -14.386   0.586  0.00  0.00     0.043 C 
BRANCH  30  36
ATOM     36  N   UNL d   1      28.845 -13.688   6.102  0.00  0.00    -0.363 N 
ATOM     37  C   UNL d   1      28.141 -12.591   6.805  0.00  0.00     0.150 C 
ATOM     38  C   UNL d   1      29.104 -11.670   7.572  0.00  0.00     0.187 C 
ATOM     39  O   UNL d   1      29.967 -12.429   8.427  0.00  0.00    -0.388 OA
ATOM     40  C   UNL d   1      30.763 -13.339   7.659  0.00  0.00     0.187 C 
ATOM     41  C   UNL d   1      29.874 -14.359   6.923  0.00  0.00     0.150 C 
ENDBRANCH  30  36
ENDBRANCH   3  24
TORSDOF 11
ENDMDL
MODEL 9
REMARK VINA RESULT:    -7.031      4.378      7.128
REMARK INTER + INTRA:         -14.486
REMARK INTER:                 -10.312
REMARK INTRA:                  -4.174
REMARK CONF_INDEPENDENT:        3.281
REMARK UNBOUND:                -4.174
REMARK  11 active torsions:
REMARK  status: ('A' for Active; 'I' for Inactive)
REMARK    1  A    between atoms: C_2  and  N_3 
REMARK    2  A    between atoms: N_3  and  C_4 
REMARK    3  A    between atoms: N_3  and  C_32 
REMARK    4  A    between atoms: C_4  and  C_5 
REMARK    5  A    between atoms: C_5  and  C_6 
REMARK    6  A    between atoms: C_6  and  N_7 
REMARK       I    between atoms: N_7  and  C_8 
REMARK    7  A    between atoms: C_8  and  C_10 
REMARK    8  A    between atoms: C_10  and  C_11 
REMARK    9  A    between atoms: C_11  and  C_12 
REMARK       I    between atoms: C_12  and  N_14 
REMARK   10  A    between atoms: N_14  and  C_15 
REMARK   11  A    between atoms: C_20  and  N_21 
ROOT
ATOM      1  C   UNL d   1      30.726 -17.200  -4.509  0.00  0.00     0.222 C 
ATOM      2  O   UNL d   1      29.711 -17.817  -4.210  0.00  0.00    -0.273 OA
ATOM      3  N   UNL d   1      31.288 -16.214  -3.704  0.00  0.00    -0.327 N 
ATOM      4  H   UNL d   1      31.949 -15.569  -4.124  0.00  0.00     0.169 HD
ENDROOT
BRANCH   1   5
ATOM      5  C   UNL d   1      31.441 -17.429  -5.829  0.00  0.00     0.112 C 
BRANCH   5   6
ATOM      6  C   UNL d   1      30.863 -16.525  -6.931  0.00  0.00     0.112 C 
BRANCH   6   7
ATOM      7  C   UNL d   1      30.175 -15.326  -6.305  0.00  0.00     0.217 C 
ATOM      8  N   UNL d   1      28.820 -15.223  -6.514  0.00  0.00    -0.361 N 
ATOM      9  H   UNL d   1      28.320 -15.922  -7.058  0.00  0.00     0.162 HD
ATOM     10  O   UNL d   1      30.786 -14.495  -5.651  0.00  0.00    -0.274 OA
BRANCH   8  11
ATOM     11  C   UNL d   1      28.102 -14.082  -5.931  0.00  0.00     0.124 C 
BRANCH  11  12
ATOM     12  C   UNL d   1      27.720 -14.388  -4.511  0.00  0.00     0.039 C 
BRANCH  12  13
ATOM     13  C   UNL d   1      26.774 -15.531  -4.197  0.00  0.00     0.124 C 
BRANCH  13  14
ATOM     14  N   UNL d   1      25.745 -15.226  -3.173  0.00  0.00    -0.381 N 
BRANCH  14  15
ATOM     15  C   UNL d   1      24.796 -14.076  -3.131  0.00  0.00     0.118 C 
ATOM     16  C   UNL d   1      25.158 -12.760  -3.807  0.00  0.00     0.026 C 
ENDBRANCH  14  15
BRANCH  14  17
ATOM     17  C   UNL d   1      25.703 -16.082  -2.044  0.00  0.00     0.030 C 
ATOM     18  C   UNL d   1      26.879 -16.457  -1.367  0.00  0.00     0.029 C 
ATOM     19  C   UNL d   1      26.863 -17.337  -0.276  0.00  0.00     0.003 C 
ATOM     20  C   UNL d   1      25.683 -17.968   0.096  0.00  0.00     0.007 C 
ATOM     21  C   UNL d   1      24.493 -17.633  -0.549  0.00  0.00    -0.060 C 
ATOM     22  C   UNL d   1      23.230 -18.377  -0.217  0.00  0.00     0.048 C 
ATOM     23  C   UNL d   1      24.503 -16.633  -1.550  0.00  0.00     0.036 C 
ENDBRANCH  14  17
ENDBRANCH  13  14
ENDBRANCH  12  13
ENDBRANCH  11  12
ENDBRANCH   8  11
ENDBRANCH   6   7
ENDBRANCH   5   6
ENDBRANCH   1   5
BRANCH   3  24
ATOM     24  C   UNL d   1      30.757 -15.895  -2.434  0.00  0.00     0.035 C 
ATOM     25  C   UNL d   1      30.891 -16.769  -1.355  0.00  0.00     0.032 C 
ATOM     26  C   UNL d   1      30.522 -16.368  -0.065  0.00  0.00     0.033 C 
ATOM     27  C   UNL d   1      29.755 -15.213   0.112  0.00  0.00     0.044 A 
ATOM     28  N   UNL d   1      29.201 -14.931   1.307  0.00  0.00    -0.342 N 
ATOM     29  C   UNL d   1      29.491 -14.376  -0.994  0.00  0.00    -0.001 A 
ATOM     30  C   UNL d   1      28.317 -13.945   1.524  0.00  0.00     0.104 A 
ATOM     31  H   UNL d   1      29.361 -15.553   2.092  0.00  0.00     0.167 HD
ATOM     32  C   UNL d   1      27.985 -13.124   0.446  0.00  0.00     0.056 A 
ATOM     33  C   UNL d   1      28.584 -13.312  -0.809  0.00  0.00    -0.046 A 
ATOM     34  C   UNL d   1      28.191 -12.424  -1.960  0.00  0.00     0.049 C 
ATOM     35  C   UNL d   1      30.111 -14.675  -2.235  0.00  0.00     0.043 C 
BRANCH  30  36
ATOM     36  N   UNL d   1      27.731 -13.892   2.759  0.00  0.00    -0.363 N 
ATOM     37  C   UNL d   1      27.064 -12.664   3.253  0.00  0.00     0.150 C 
ATOM     38  C   UNL d   1      27.806 -12.029   4.440  0.00  0.00     0.187 C 
ATOM     39  O   UNL d   1      28.049 -12.995   5.470  0.00  0.00    -0.388 OA
ATOM     40  C   UNL d   1      28.865 -14.063   4.976  0.00  0.00     0.187 C 
ATOM     41  C   UNL d   1      28.155 -14.814   3.834  0.00  0.00     0.150 C 
ENDBRANCH  30  36
ENDBRANCH   3  24
TORSDOF 11
ENDMDL
