MODEL 1
REMARK VINA RESULT:    -8.929      0.000      0.000
REMARK INTER + INTRA:         -10.500
REMARK INTER:                  -9.823
REMARK INTRA:                  -0.677
REMARK CONF_INDEPENDENT:        0.895
REMARK UNBOUND:                -0.677
REMARK  3 active torsions:
REMARK  status: ('A' for Active; 'I' for Inactive)
REMARK       I    between atoms: C_2  and  N_3 
REMARK    1  A    between atoms: C_2  and  C_12 
REMARK    2  A    between atoms: N_3  and  N_4 
REMARK       I    between atoms: N_4  and  C_5 
REMARK    3  A    between atoms: C_5  and  C_7 
ROOT
ATOM      1  O   UNL d   1      22.540 -16.334  -0.060  0.00  0.00    -0.264 OA
ATOM      2  C   UNL d   1      23.321 -16.922  -0.821  0.00  0.00     0.293 C 
ATOM      3  N   UNL d   1      23.258 -18.312  -0.959  0.00  0.00    -0.261 N 
ATOM      4  H   UNL d   1      23.947 -18.846  -1.486  0.00  0.00     0.190 HD
ENDROOT
BRANCH   2   5
ATOM      5  C   UNL d   1      24.310 -16.239  -1.657  0.00  0.00     0.146 A 
ATOM      6  C   UNL d   1      25.632 -16.549  -1.931  0.00  0.00     0.057 A 
ATOM      7  C   UNL d   1      26.117 -15.605  -2.876  0.00  0.00     0.001 A 
ATOM      8  C   UNL d   1      27.336 -15.409  -3.557  0.00  0.00     0.014 A 
ATOM      9  C   UNL d   1      25.062 -14.734  -3.123  0.00  0.00     0.086 A 
ATOM     10  C   UNL d   1      27.457 -14.338  -4.451  0.00  0.00     0.001 A 
ATOM     11  C   UNL d   1      26.386 -13.471  -4.670  0.00  0.00     0.003 A 
ATOM     12  C   UNL d   1      25.160 -13.649  -4.005  0.00  0.00     0.038 A 
ATOM     13  O   UNL d   1      23.961 -15.123  -2.397  0.00  0.00    -0.304 OA
ENDBRANCH   2   5
BRANCH   3  14
ATOM     14  N   UNL d   1      22.266 -19.076  -0.257  0.00  0.00    -0.262 N 
ATOM     15  C   UNL d   1      20.910 -18.822  -0.474  0.00  0.00     0.277 C 
ATOM     16  O   UNL d   1      20.564 -17.941  -1.269  0.00  0.00    -0.265 OA
ATOM     17  H   UNL d   1      22.600 -19.861   0.297  0.00  0.00     0.190 HD
BRANCH  15  18
ATOM     18  C   UNL d   1      19.964 -19.636   0.294  0.00  0.00     0.074 A 
ATOM     19  C   UNL d   1      18.931 -20.450  -0.145  0.00  0.00     0.025 A 
ATOM     20  C   UNL d   1      18.257 -21.128   0.921  0.00  0.00     0.009 A 
ATOM     21  C   UNL d   1      18.781 -20.803   2.151  0.00  0.00     0.050 A 
ATOM     22  S   UNL d   1      20.105 -19.725   2.009  0.00  0.00    -0.097 SA
ENDBRANCH  15  18
ENDBRANCH   3  14
TORSDOF 3
ENDMDL
MODEL 2
REMARK VINA RESULT:    -8.482      1.108      1.149
REMARK INTER + INTRA:         -11.075
REMARK INTER:                  -9.377
REMARK INTRA:                  -1.698
REMARK CONF_INDEPENDENT:        0.895
REMARK UNBOUND:                -1.698
REMARK  3 active torsions:
REMARK  status: ('A' for Active; 'I' for Inactive)
REMARK       I    between atoms: C_2  and  N_3 
REMARK    1  A    between atoms: C_2  and  C_12 
REMARK    2  A    between atoms: N_3  and  N_4 
REMARK       I    between atoms: N_4  and  C_5 
REMARK    3  A    between atoms: C_5  and  C_7 
ROOT
ATOM      1  O   UNL d   1      24.732 -18.572   0.606  0.00  0.00    -0.264 OA
ATOM      2  C   UNL d   1      24.331 -18.012  -0.424  0.00  0.00     0.293 C 
ATOM      3  N   UNL d   1      23.005 -18.168  -0.839  0.00  0.00    -0.261 N 
ATOM      4  H   UNL d   1      22.661 -17.819  -1.732  0.00  0.00     0.190 HD
ENDROOT
BRANCH   2   5
ATOM      5  C   UNL d   1      25.159 -17.125  -1.243  0.00  0.00     0.146 A 
ATOM      6  C   UNL d   1      26.499 -16.788  -1.141  0.00  0.00     0.057 A 
ATOM      7  C   UNL d   1      26.826 -15.956  -2.246  0.00  0.00     0.001 A 
ATOM      8  C   UNL d   1      28.001 -15.332  -2.711  0.00  0.00     0.014 A 
ATOM      9  C   UNL d   1      25.651 -15.800  -2.970  0.00  0.00     0.086 A 
ATOM     10  C   UNL d   1      27.951 -14.563  -3.881  0.00  0.00     0.001 A 
ATOM     11  C   UNL d   1      26.754 -14.412  -4.581  0.00  0.00     0.003 A 
ATOM     12  C   UNL d   1      25.570 -15.027  -4.137  0.00  0.00     0.038 A 
ATOM     13  O   UNL d   1      24.641 -16.518  -2.374  0.00  0.00    -0.304 OA
ENDBRANCH   2   5
BRANCH   3  14
ATOM     14  N   UNL d   1      22.078 -18.942  -0.062  0.00  0.00    -0.262 N 
ATOM     15  C   UNL d   1      20.713 -18.886  -0.348  0.00  0.00     0.277 C 
ATOM     16  O   UNL d   1      20.302 -18.171  -1.270  0.00  0.00    -0.265 OA
ATOM     17  H   UNL d   1      22.477 -19.598   0.607  0.00  0.00     0.190 HD
BRANCH  15  18
ATOM     18  C   UNL d   1      19.835 -19.695   0.503  0.00  0.00     0.074 A 
ATOM     19  C   UNL d   1      18.796 -20.544   0.154  0.00  0.00     0.025 A 
ATOM     20  C   UNL d   1      18.205 -21.201   1.280  0.00  0.00     0.009 A 
ATOM     21  C   UNL d   1      18.796 -20.825   2.465  0.00  0.00     0.050 A 
ATOM     22  S   UNL d   1      20.084 -19.724   2.207  0.00  0.00    -0.097 SA
ENDBRANCH  15  18
ENDBRANCH   3  14
TORSDOF 3
ENDMDL
MODEL 3
REMARK VINA RESULT:    -8.043      1.329      1.810
REMARK INTER + INTRA:         -10.371
REMARK INTER:                  -8.938
REMARK INTRA:                  -1.433
REMARK CONF_INDEPENDENT:        0.895
REMARK UNBOUND:                -1.433
REMARK  3 active torsions:
REMARK  status: ('A' for Active; 'I' for Inactive)
REMARK       I    between atoms: C_2  and  N_3 
REMARK    1  A    between atoms: C_2  and  C_12 
REMARK    2  A    between atoms: N_3  and  N_4 
REMARK       I    between atoms: N_4  and  C_5 
REMARK    3  A    between atoms: C_5  and  C_7 
ROOT
ATOM      1  O   UNL d   1      24.497 -17.962   0.872  0.00  0.00    -0.264 OA
ATOM      2  C   UNL d   1      24.224 -17.780  -0.322  0.00  0.00     0.293 C 
ATOM      3  N   UNL d   1      22.998 -18.210  -0.838  0.00  0.00    -0.261 N 
ATOM      4  H   UNL d   1      22.776 -18.180  -1.832  0.00  0.00     0.190 HD
ENDROOT
BRANCH   2   5
ATOM      5  C   UNL d   1      25.103 -17.078  -1.259  0.00  0.00     0.146 A 
ATOM      6  C   UNL d   1      24.808 -16.266  -2.342  0.00  0.00     0.057 A 
ATOM      7  C   UNL d   1      26.033 -15.764  -2.860  0.00  0.00     0.001 A 
ATOM      8  C   UNL d   1      26.390 -14.887  -3.904  0.00  0.00     0.014 A 
ATOM      9  C   UNL d   1      27.036 -16.319  -2.075  0.00  0.00     0.086 A 
ATOM     10  C   UNL d   1      27.744 -14.608  -4.131  0.00  0.00     0.001 A 
ATOM     11  C   UNL d   1      28.732 -15.189  -3.336  0.00  0.00     0.003 A 
ATOM     12  C   UNL d   1      28.399 -16.065  -2.288  0.00  0.00     0.038 A 
ATOM     13  O   UNL d   1      26.478 -17.104  -1.095  0.00  0.00    -0.304 OA
ENDBRANCH   2   5
BRANCH   3  14
ATOM     14  N   UNL d   1      22.020 -18.828   0.011  0.00  0.00    -0.262 N 
ATOM     15  C   UNL d   1      20.861 -19.374  -0.544  0.00  0.00     0.277 C 
ATOM     16  O   UNL d   1      20.676 -19.325  -1.765  0.00  0.00    -0.265 OA
ATOM     17  H   UNL d   1      22.271 -18.943   0.991  0.00  0.00     0.190 HD
BRANCH  15  18
ATOM     18  C   UNL d   1      19.908 -19.973   0.396  0.00  0.00     0.074 A 
ATOM     19  C   UNL d   1      18.806 -20.778   0.151  0.00  0.00     0.025 A 
ATOM     20  C   UNL d   1      18.148 -21.209   1.347  0.00  0.00     0.009 A 
ATOM     21  C   UNL d   1      18.754 -20.711   2.478  0.00  0.00     0.050 A 
ATOM     22  S   UNL d   1      20.133 -19.769   2.092  0.00  0.00    -0.097 SA
ENDBRANCH  15  18
ENDBRANCH   3  14
TORSDOF 3
ENDMDL
MODEL 4
REMARK VINA RESULT:    -7.493      3.027      8.366
REMARK INTER + INTRA:          -9.886
REMARK INTER:                  -8.388
REMARK INTRA:                  -1.498
REMARK CONF_INDEPENDENT:        0.895
REMARK UNBOUND:                -1.498
REMARK  3 active torsions:
REMARK  status: ('A' for Active; 'I' for Inactive)
REMARK       I    between atoms: C_2  and  N_3 
REMARK    1  A    between atoms: C_2  and  C_12 
REMARK    2  A    between atoms: N_3  and  N_4 
REMARK       I    between atoms: N_4  and  C_5 
REMARK    3  A    between atoms: C_5  and  C_7 
ROOT
ATOM      1  O   UNL d   1      25.573 -17.900  -0.800  0.00  0.00    -0.264 OA
ATOM      2  C   UNL d   1      24.440 -17.545  -1.154  0.00  0.00     0.293 C 
ATOM      3  N   UNL d   1      24.283 -16.522  -2.094  0.00  0.00    -0.261 N 
ATOM      4  H   UNL d   1      23.376 -16.125  -2.332  0.00  0.00     0.190 HD
ENDROOT
BRANCH   2   5
ATOM      5  C   UNL d   1      23.206 -18.175  -0.680  0.00  0.00     0.146 A 
ATOM      6  C   UNL d   1      22.719 -18.358   0.604  0.00  0.00     0.057 A 
ATOM      7  C   UNL d   1      21.429 -18.947   0.504  0.00  0.00     0.001 A 
ATOM      8  C   UNL d   1      20.435 -19.337   1.424  0.00  0.00     0.014 A 
ATOM      9  C   UNL d   1      21.193 -19.122  -0.855  0.00  0.00     0.086 A 
ATOM     10  C   UNL d   1      19.244 -19.900   0.948  0.00  0.00     0.001 A 
ATOM     11  C   UNL d   1      19.038 -20.077  -0.420  0.00  0.00     0.003 A 
ATOM     12  C   UNL d   1      20.015 -19.693  -1.357  0.00  0.00     0.038 A 
ATOM     13  O   UNL d   1      22.260 -18.643  -1.576  0.00  0.00    -0.304 OA
ENDBRANCH   2   5
BRANCH   3  14
ATOM     14  N   UNL d   1      25.427 -15.896  -2.695  0.00  0.00    -0.262 N 
ATOM     15  C   UNL d   1      25.264 -14.744  -3.467  0.00  0.00     0.277 C 
ATOM     16  O   UNL d   1      24.137 -14.264  -3.633  0.00  0.00    -0.265 OA
ATOM     17  H   UNL d   1      26.339 -16.264  -2.435  0.00  0.00     0.190 HD
BRANCH  15  18
ATOM     18  C   UNL d   1      26.481 -14.177  -4.056  0.00  0.00     0.074 A 
ATOM     19  C   UNL d   1      26.964 -12.879  -4.017  0.00  0.00     0.025 A 
ATOM     20  C   UNL d   1      28.226 -12.730  -4.678  0.00  0.00     0.009 A 
ATOM     21  C   UNL d   1      28.669 -13.915  -5.219  0.00  0.00     0.050 A 
ATOM     22  S   UNL d   1      27.587 -15.203  -4.888  0.00  0.00    -0.097 SA
ENDBRANCH  15  18
ENDBRANCH   3  14
TORSDOF 3
ENDMDL
MODEL 5
REMARK VINA RESULT:    -6.991      3.736      8.427
REMARK INTER + INTRA:          -9.459
REMARK INTER:                  -7.886
REMARK INTRA:                  -1.573
REMARK CONF_INDEPENDENT:        0.895
REMARK UNBOUND:                -1.573
REMARK  3 active torsions:
REMARK  status: ('A' for Active; 'I' for Inactive)
REMARK       I    between atoms: C_2  and  N_3 
REMARK    1  A    between atoms: C_2  and  C_12 
REMARK    2  A    between atoms: N_3  and  N_4 
REMARK       I    between atoms: N_4  and  C_5 
REMARK    3  A    between atoms: C_5  and  C_7 
ROOT
ATOM      1  O   UNL d   1      23.277 -17.230  -1.768  0.00  0.00    -0.264 OA
ATOM      2  C   UNL d   1      23.182 -17.929  -0.749  0.00  0.00     0.293 C 
ATOM      3  N   UNL d   1      24.280 -18.090   0.100  0.00  0.00    -0.261 N 
ATOM      4  H   UNL d   1      24.281 -18.739   0.885  0.00  0.00     0.190 HD
ENDROOT
BRANCH   2   5
ATOM      5  C   UNL d   1      21.942 -18.583  -0.326  0.00  0.00     0.146 A 
ATOM      6  C   UNL d   1      20.861 -19.038  -1.064  0.00  0.00     0.057 A 
ATOM      7  C   UNL d   1      19.960 -19.678  -0.171  0.00  0.00     0.001 A 
ATOM      8  C   UNL d   1      18.730 -20.353  -0.308  0.00  0.00     0.014 A 
ATOM      9  C   UNL d   1      20.526 -19.564   1.093  0.00  0.00     0.086 A 
ATOM     10  C   UNL d   1      18.107 -20.879   0.831  0.00  0.00     0.001 A 
ATOM     11  C   UNL d   1      18.691 -20.738   2.090  0.00  0.00     0.003 A 
ATOM     12  C   UNL d   1      19.918 -20.071   2.250  0.00  0.00     0.038 A 
ATOM     13  O   UNL d   1      21.734 -18.914   1.002  0.00  0.00    -0.304 OA
ENDBRANCH   2   5
BRANCH   3  14
ATOM     14  N   UNL d   1      25.521 -17.419  -0.168  0.00  0.00    -0.262 N 
ATOM     15  C   UNL d   1      26.657 -17.729   0.583  0.00  0.00     0.277 C 
ATOM     16  O   UNL d   1      26.594 -18.581   1.477  0.00  0.00    -0.265 OA
ATOM     17  H   UNL d   1      25.546 -16.813  -0.985  0.00  0.00     0.190 HD
BRANCH  15  18
ATOM     18  C   UNL d   1      27.877 -16.987   0.254  0.00  0.00     0.074 A 
ATOM     19  C   UNL d   1      28.254 -15.699   0.601  0.00  0.00     0.025 A 
ATOM     20  C   UNL d   1      29.559 -15.349   0.126  0.00  0.00     0.009 A 
ATOM     21  C   UNL d   1      30.141 -16.372  -0.585  0.00  0.00     0.050 A 
ATOM     22  S   UNL d   1      29.135 -17.758  -0.636  0.00  0.00    -0.097 SA
ENDBRANCH  15  18
ENDBRANCH   3  14
TORSDOF 3
ENDMDL
MODEL 6
REMARK VINA RESULT:    -6.602      5.077      9.134
REMARK INTER + INTRA:          -8.925
REMARK INTER:                  -7.497
REMARK INTRA:                  -1.428
REMARK CONF_INDEPENDENT:        0.895
REMARK UNBOUND:                -1.428
REMARK  3 active torsions:
REMARK  status: ('A' for Active; 'I' for Inactive)
REMARK       I    between atoms: C_2  and  N_3 
REMARK    1  A    between atoms: C_2  and  C_12 
REMARK    2  A    between atoms: N_3  and  N_4 
REMARK       I    between atoms: N_4  and  C_5 
REMARK    3  A    between atoms: C_5  and  C_7 
ROOT
ATOM      1  O   UNL d   1      24.623 -14.077  -4.645  0.00  0.00    -0.264 OA
ATOM      2  C   UNL d   1      25.163 -13.924  -3.540  0.00  0.00     0.293 C 
ATOM      3  N   UNL d   1      25.526 -12.646  -3.105  0.00  0.00    -0.261 N 
ATOM      4  H   UNL d   1      26.068 -12.484  -2.258  0.00  0.00     0.190 HD
ENDROOT
BRANCH   2   5
ATOM      5  C   UNL d   1      25.414 -15.017  -2.600  0.00  0.00     0.146 A 
ATOM      6  C   UNL d   1      26.545 -15.338  -1.867  0.00  0.00     0.057 A 
ATOM      7  C   UNL d   1      26.230 -16.448  -1.037  0.00  0.00     0.001 A 
ATOM      8  C   UNL d   1      26.923 -17.198  -0.067  0.00  0.00     0.014 A 
ATOM      9  C   UNL d   1      24.909 -16.775  -1.321  0.00  0.00     0.086 A 
ATOM     10  C   UNL d   1      26.271 -18.258   0.576  0.00  0.00     0.001 A 
ATOM     11  C   UNL d   1      24.949 -18.574   0.261  0.00  0.00     0.003 A 
ATOM     12  C   UNL d   1      24.236 -17.838  -0.702  0.00  0.00     0.038 A 
ATOM     13  O   UNL d   1      24.407 -15.902  -2.257  0.00  0.00    -0.304 OA
ENDBRANCH   2   5
BRANCH   3  14
ATOM     14  N   UNL d   1      25.243 -11.489  -3.907  0.00  0.00    -0.262 N 
ATOM     15  C   UNL d   1      25.679 -10.230  -3.490  0.00  0.00     0.277 C 
ATOM     16  O   UNL d   1      26.308 -10.111  -2.432  0.00  0.00    -0.265 OA
ATOM     17  H   UNL d   1      24.824 -11.656  -4.819  0.00  0.00     0.190 HD
BRANCH  15  18
ATOM     18  C   UNL d   1      25.335  -9.101  -4.359  0.00  0.00     0.074 A 
ATOM     19  C   UNL d   1      25.164  -7.760  -4.048  0.00  0.00     0.025 A 
ATOM     20  C   UNL d   1      24.879  -6.950  -5.194  0.00  0.00     0.009 A 
ATOM     21  C   UNL d   1      24.824  -7.693  -6.351  0.00  0.00     0.050 A 
ATOM     22  S   UNL d   1      25.161  -9.347  -6.056  0.00  0.00    -0.097 SA
ENDBRANCH  15  18
ENDBRANCH   3  14
TORSDOF 3
ENDMDL
MODEL 7
REMARK VINA RESULT:    -6.300      2.764      3.133
REMARK INTER + INTRA:          -8.641
REMARK INTER:                  -7.195
REMARK INTRA:                  -1.446
REMARK CONF_INDEPENDENT:        0.895
REMARK UNBOUND:                -1.446
REMARK  3 active torsions:
REMARK  status: ('A' for Active; 'I' for Inactive)
REMARK       I    between atoms: C_2  and  N_3 
REMARK    1  A    between atoms: C_2  and  C_12 
REMARK    2  A    between atoms: N_3  and  N_4 
REMARK       I    between atoms: N_4  and  C_5 
REMARK    3  A    between atoms: C_5  and  C_7 
ROOT
ATOM      1  O   UNL d   1      26.048 -19.030   0.247  0.00  0.00    -0.264 OA
ATOM      2  C   UNL d   1      25.797 -17.858  -0.062  0.00  0.00     0.293 C 
ATOM      3  N   UNL d   1      24.471 -17.430  -0.184  0.00  0.00    -0.261 N 
ATOM      4  H   UNL d   1      24.219 -16.510  -0.541  0.00  0.00     0.190 HD
ENDROOT
BRANCH   2   5
ATOM      5  C   UNL d   1      26.823 -16.834  -0.268  0.00  0.00     0.146 A 
ATOM      6  C   UNL d   1      28.023 -16.882  -0.958  0.00  0.00     0.057 A 
ATOM      7  C   UNL d   1      28.600 -15.583  -0.924  0.00  0.00     0.001 A 
ATOM      8  C   UNL d   1      29.765 -14.994  -1.455  0.00  0.00     0.014 A 
ATOM      9  C   UNL d   1      27.726 -14.795  -0.185  0.00  0.00     0.086 A 
ATOM     10  C   UNL d   1      30.018 -13.638  -1.215  0.00  0.00     0.001 A 
ATOM     11  C   UNL d   1      29.131 -12.873  -0.458  0.00  0.00     0.003 A 
ATOM     12  C   UNL d   1      27.961 -13.438   0.080  0.00  0.00     0.038 A 
ATOM     13  O   UNL d   1      26.641 -15.545   0.203  0.00  0.00    -0.304 OA
ENDBRANCH   2   5
BRANCH   3  14
ATOM     14  N   UNL d   1      23.382 -18.325   0.085  0.00  0.00    -0.262 N 
ATOM     15  C   UNL d   1      22.087 -17.987  -0.312  0.00  0.00     0.277 C 
ATOM     16  O   UNL d   1      21.878 -16.916  -0.895  0.00  0.00    -0.265 OA
ATOM     17  H   UNL d   1      23.624 -19.239   0.463  0.00  0.00     0.190 HD
BRANCH  15  18
ATOM     18  C   UNL d   1      21.032 -18.950   0.015  0.00  0.00     0.074 A 
ATOM     19  C   UNL d   1      20.623 -19.434   1.248  0.00  0.00     0.025 A 
ATOM     20  C   UNL d   1      19.513 -20.334   1.158  0.00  0.00     0.009 A 
ATOM     21  C   UNL d   1      19.111 -20.528  -0.143  0.00  0.00     0.050 A 
ATOM     22  S   UNL d   1      20.040 -19.593  -1.238  0.00  0.00    -0.097 SA
ENDBRANCH  15  18
ENDBRANCH   3  14
TORSDOF 3
ENDMDL
MODEL 8
REMARK VINA RESULT:    -6.042      3.407      5.438
REMARK INTER + INTRA:          -8.351
REMARK INTER:                  -6.937
REMARK INTRA:                  -1.414
REMARK CONF_INDEPENDENT:        0.895
REMARK UNBOUND:                -1.414
REMARK  3 active torsions:
REMARK  status: ('A' for Active; 'I' for Inactive)
REMARK       I    between atoms: C_2  and  N_3 
REMARK    1  A    between atoms: C_2  and  C_12 
REMARK    2  A    between atoms: N_3  and  N_4 
REMARK       I    between atoms: N_4  and  C_5 
REMARK    3  A    between atoms: C_5  and  C_7 
ROOT
ATOM      1  O   UNL d   1      25.118 -14.480  -5.019  0.00  0.00    -0.264 OA
ATOM      2  C   UNL d   1      26.260 -14.838  -4.697  0.00  0.00     0.293 C 
ATOM      3  N   UNL d   1      26.456 -15.634  -3.565  0.00  0.00    -0.261 N 
ATOM      4  H   UNL d   1      27.380 -15.859  -3.201  0.00  0.00     0.190 HD
ENDROOT
BRANCH   2   5
ATOM      5  C   UNL d   1      27.460 -14.517  -5.471  0.00  0.00     0.146 A 
ATOM      6  C   UNL d   1      27.932 -13.306  -5.950  0.00  0.00     0.057 A 
ATOM      7  C   UNL d   1      29.193 -13.538  -6.563  0.00  0.00     0.001 A 
ATOM      8  C   UNL d   1      30.164 -12.729  -7.188  0.00  0.00     0.014 A 
ATOM      9  C   UNL d   1      29.428 -14.903  -6.452  0.00  0.00     0.086 A 
ATOM     10  C   UNL d   1      31.329 -13.321  -7.690  0.00  0.00     0.001 A 
ATOM     11  C   UNL d   1      31.533 -14.697  -7.577  0.00  0.00     0.003 A 
ATOM     12  C   UNL d   1      30.580 -15.523  -6.955  0.00  0.00     0.038 A 
ATOM     13  O   UNL d   1      28.387 -15.499  -5.778  0.00  0.00    -0.304 OA
ENDBRANCH   2   5
BRANCH   3  14
ATOM     14  N   UNL d   1      25.340 -16.084  -2.782  0.00  0.00    -0.262 N 
ATOM     15  C   UNL d   1      25.558 -16.851  -1.635  0.00  0.00     0.277 C 
ATOM     16  O   UNL d   1      26.710 -17.141  -1.294  0.00  0.00    -0.265 OA
ATOM     17  H   UNL d   1      24.424 -15.724  -3.041  0.00  0.00     0.190 HD
BRANCH  15  18
ATOM     18  C   UNL d   1      24.364 -17.282  -0.903  0.00  0.00     0.074 A 
ATOM     19  C   UNL d   1      23.053 -16.841  -1.003  0.00  0.00     0.025 A 
ATOM     20  C   UNL d   1      22.154 -17.552  -0.144  0.00  0.00     0.009 A 
ATOM     21  C   UNL d   1      22.802 -18.510   0.602  0.00  0.00     0.050 A 
ATOM     22  S   UNL d   1      24.474 -18.575   0.230  0.00  0.00    -0.097 SA
ENDBRANCH  15  18
ENDBRANCH   3  14
TORSDOF 3
ENDMDL
