MODEL 1
REMARK VINA RESULT:    -9.063      0.000      0.000
REMARK INTER + INTRA:         -15.606
REMARK INTER:                 -12.642
REMARK INTRA:                  -2.964
REMARK CONF_INDEPENDENT:        3.580
REMARK UNBOUND:                -2.964
REMARK  12 active torsions:
REMARK  status: ('A' for Active; 'I' for Inactive)
REMARK    1  A    between atoms: C_2  and  C_3 
REMARK    2  A    between atoms: C_4  and  C_3 
REMARK    3  A    between atoms: C_4  and  N_13 
REMARK    4  A    between atoms: C_4  and  C_5 
REMARK       I    between atoms: C_5  and  N_7 
REMARK    5  A    between atoms: N_7  and  C_8 
REMARK    6  A    between atoms: C_8  and  C_9 
REMARK    7  A    between atoms: C_9  and  C_10 
REMARK       I    between atoms: N_13  and  C_14 
REMARK    8  A    between atoms: N_13  and  C_25 
REMARK    9  A    between atoms: C_14  and  C_16 
REMARK   10  A    between atoms: C_19  and  C_20 
REMARK       I    between atoms: C_20  and  N_21 
REMARK   11  A    between atoms: C_23  and  N_24 
REMARK   12  A    between atoms: C_28  and  C_29 
ROOT
ATOM      1  N   UNL d   1      25.626 -15.608  -1.721  0.00  0.00    -0.299 N 
ATOM      2  C   UNL d   1      25.376 -14.649  -2.785  0.00  0.00     0.270 C 
ATOM      3  O   UNL d   1      24.255 -14.528  -3.284  0.00  0.00    -0.266 OA
ENDROOT
BRANCH   1   4
ATOM      4  C   UNL d   1      26.906 -15.657  -0.808  0.00  0.00     0.185 C 
BRANCH   4   5
ATOM      5  C   UNL d   1      26.984 -14.789   0.508  0.00  0.00     0.241 C 
ATOM      6  O   UNL d   1      26.297 -13.770   0.617  0.00  0.00    -0.271 OA
ATOM      7  N   UNL d   1      27.848 -15.218   1.534  0.00  0.00    -0.359 N 
ATOM      8  H   UNL d   1      28.548 -15.889   1.264  0.00  0.00     0.162 HD
BRANCH   7   9
ATOM      9  C   UNL d   1      28.218 -14.226   2.561  0.00  0.00     0.123 C 
BRANCH   9  10
ATOM     10  C   UNL d   1      27.130 -13.693   3.576  0.00  0.00     0.023 C 
BRANCH  10  11
ATOM     11  C   UNL d   1      27.417 -13.931   5.104  0.00  0.00    -0.021 C 
ATOM     12  C   UNL d   1      28.246 -15.185   5.288  0.00  0.00     0.009 C 
ATOM     13  C   UNL d   1      27.870 -12.713   5.896  0.00  0.00     0.009 C 
ENDBRANCH  10  11
ENDBRANCH   9  10
ENDBRANCH   7   9
ENDBRANCH   4   5
BRANCH   4  14
ATOM     14  C   UNL d   1      27.340 -17.006  -0.119  0.00  0.00     0.035 C 
BRANCH  14  15
ATOM     15  C   UNL d   1      28.641 -17.597  -0.522  0.00  0.00    -0.002 C 
ATOM     16  C   UNL d   1      29.552 -17.067  -1.567  0.00  0.00     0.005 C 
ENDBRANCH  14  15
ENDBRANCH   4  14
ENDBRANCH   1   4
BRANCH   1  17
ATOM     17  C   UNL d   1      24.436 -16.441  -1.364  0.00  0.00     0.038 C 
ATOM     18  C   UNL d   1      23.165 -15.995  -1.047  0.00  0.00     0.030 C 
ATOM     19  C   UNL d   1      22.170 -16.891  -0.523  0.00  0.00     0.009 C 
ATOM     20  C   UNL d   1      22.440 -18.250  -0.261  0.00  0.00    -0.058 C 
ATOM     21  C   UNL d   1      23.705 -18.669  -0.523  0.00  0.00     0.009 C 
ATOM     22  C   UNL d   1      24.482 -17.806  -1.267  0.00  0.00     0.030 C 
BRANCH  20  23
ATOM     23  C   UNL d   1      21.398 -19.285   0.082  0.00  0.00     0.034 C 
ATOM     24  C   UNL d   1      20.111 -19.212  -0.767  0.00  0.00     0.010 C 
ENDBRANCH  20  23
ENDBRANCH   1  17
BRANCH   2  25
ATOM     25  C   UNL d   1      26.450 -13.871  -3.360  0.00  0.00     0.120 C 
ATOM     26  S   UNL d   1      28.073 -14.402  -3.324  0.00  0.00     0.020 SA
ATOM     27  N   UNL d   1      28.726 -13.158  -4.220  0.00  0.00    -0.203 NA
ATOM     28  C   UNL d   1      27.783 -12.230  -4.372  0.00  0.00     0.160 C 
ATOM     29  C   UNL d   1      26.428 -12.594  -3.858  0.00  0.00     0.085 C 
BRANCH  28  30
ATOM     30  C   UNL d   1      28.064 -10.946  -5.043  0.00  0.00     0.271 C 
ATOM     31  N   UNL d   1      29.394 -10.574  -5.334  0.00  0.00    -0.365 N 
ATOM     32  H   UNL d   1      30.158 -10.716  -4.698  0.00  0.00     0.159 HD
ATOM     33  H   UNL d   1      29.549  -9.785  -5.955  0.00  0.00     0.159 HD
ATOM     34  O   UNL d   1      27.132 -10.302  -5.432  0.00  0.00    -0.266 OA
ENDBRANCH  28  30
BRANCH  29  35
ATOM     35  N   UNL d   1      25.229 -11.924  -3.951  0.00  0.00    -0.396 N 
ATOM     36  H   UNL d   1      25.143 -11.167  -4.622  0.00  0.00     0.156 HD
ATOM     37  H   UNL d   1      24.361 -12.461  -3.953  0.00  0.00     0.156 HD
ENDBRANCH  29  35
ENDBRANCH   2  25
TORSDOF 12
ENDMDL
MODEL 2
REMARK VINA RESULT:    -8.540      1.199      1.576
REMARK INTER + INTRA:         -15.652
REMARK INTER:                 -12.120
REMARK INTRA:                  -3.532
REMARK CONF_INDEPENDENT:        3.580
REMARK UNBOUND:                -3.532
REMARK  12 active torsions:
REMARK  status: ('A' for Active; 'I' for Inactive)
REMARK    1  A    between atoms: C_2  and  C_3 
REMARK    2  A    between atoms: C_4  and  C_3 
REMARK    3  A    between atoms: C_4  and  N_13 
REMARK    4  A    between atoms: C_4  and  C_5 
REMARK       I    between atoms: C_5  and  N_7 
REMARK    5  A    between atoms: N_7  and  C_8 
REMARK    6  A    between atoms: C_8  and  C_9 
REMARK    7  A    between atoms: C_9  and  C_10 
REMARK       I    between atoms: N_13  and  C_14 
REMARK    8  A    between atoms: N_13  and  C_25 
REMARK    9  A    between atoms: C_14  and  C_16 
REMARK   10  A    between atoms: C_19  and  C_20 
REMARK       I    between atoms: C_20  and  N_21 
REMARK   11  A    between atoms: C_23  and  N_24 
REMARK   12  A    between atoms: C_28  and  C_29 
ROOT
ATOM      1  N   UNL d   1      25.579 -15.790  -2.387  0.00  0.00    -0.299 N 
ATOM      2  C   UNL d   1      25.214 -14.743  -3.328  0.00  0.00     0.270 C 
ATOM      3  O   UNL d   1      24.032 -14.450  -3.528  0.00  0.00    -0.266 OA
ENDROOT
BRANCH   1   4
ATOM      4  C   UNL d   1      27.023 -16.057  -1.823  0.00  0.00     0.185 C 
BRANCH   4   5
ATOM      5  C   UNL d   1      27.630 -15.126  -0.703  0.00  0.00     0.241 C 
ATOM      6  O   UNL d   1      28.838 -15.168  -0.451  0.00  0.00    -0.271 OA
ATOM      7  N   UNL d   1      26.759 -14.257  -0.019  0.00  0.00    -0.359 N 
ATOM      8  H   UNL d   1      25.778 -14.471  -0.098  0.00  0.00     0.162 HD
BRANCH   7   9
ATOM      9  C   UNL d   1      27.231 -13.699   1.263  0.00  0.00     0.123 C 
BRANCH   9  10
ATOM     10  C   UNL d   1      27.781 -14.662   2.390  0.00  0.00     0.023 C 
BRANCH  10  11
ATOM     11  C   UNL d   1      28.332 -13.975   3.693  0.00  0.00    -0.021 C 
ATOM     12  C   UNL d   1      27.690 -12.616   3.876  0.00  0.00     0.009 C 
ATOM     13  C   UNL d   1      28.396 -14.852   4.934  0.00  0.00     0.009 C 
ENDBRANCH  10  11
ENDBRANCH   9  10
ENDBRANCH   7   9
ENDBRANCH   4   5
BRANCH   4  14
ATOM     14  C   UNL d   1      27.350 -17.409  -1.082  0.00  0.00     0.035 C 
BRANCH  14  15
ATOM     15  C   UNL d   1      27.042 -17.491   0.369  0.00  0.00    -0.002 C 
ATOM     16  C   UNL d   1      25.889 -18.200   0.976  0.00  0.00     0.005 C 
ENDBRANCH  14  15
ENDBRANCH   4  14
ENDBRANCH   1   4
BRANCH   1  17
ATOM     17  C   UNL d   1      24.408 -16.485  -1.769  0.00  0.00     0.038 C 
ATOM     18  C   UNL d   1      23.484 -15.950  -0.888  0.00  0.00     0.030 C 
ATOM     19  C   UNL d   1      22.529 -16.785  -0.212  0.00  0.00     0.009 C 
ATOM     20  C   UNL d   1      22.508 -18.186  -0.366  0.00  0.00    -0.058 C 
ATOM     21  C   UNL d   1      23.452 -18.712  -1.189  0.00  0.00     0.009 C 
ATOM     22  C   UNL d   1      24.127 -17.808  -1.984  0.00  0.00     0.030 C 
BRANCH  20  23
ATOM     23  C   UNL d   1      21.413 -19.093   0.138  0.00  0.00     0.034 C 
ATOM     24  C   UNL d   1      20.224 -19.270  -0.830  0.00  0.00     0.010 C 
ENDBRANCH  20  23
ENDBRANCH   1  17
BRANCH   2  25
ATOM     25  C   UNL d   1      26.213 -14.074  -4.130  0.00  0.00     0.120 C 
ATOM     26  S   UNL d   1      27.644 -14.858  -4.634  0.00  0.00     0.020 SA
ATOM     27  N   UNL d   1      28.248 -13.621  -5.572  0.00  0.00    -0.203 NA
ATOM     28  C   UNL d   1      27.501 -12.541  -5.349  0.00  0.00     0.160 C 
ATOM     29  C   UNL d   1      26.302 -12.752  -4.483  0.00  0.00     0.085 C 
BRANCH  28  30
ATOM     30  C   UNL d   1      27.827 -11.237  -5.957  0.00  0.00     0.271 C 
ATOM     31  N   UNL d   1      28.896 -11.129  -6.872  0.00  0.00    -0.365 N 
ATOM     32  H   UNL d   1      29.777 -11.594  -6.748  0.00  0.00     0.159 HD
ATOM     33  H   UNL d   1      28.983 -10.273  -7.413  0.00  0.00     0.159 HD
ATOM     34  O   UNL d   1      27.089 -10.319  -5.742  0.00  0.00    -0.266 OA
ENDBRANCH  28  30
BRANCH  29  35
ATOM     35  N   UNL d   1      25.281 -11.892  -4.149  0.00  0.00    -0.396 N 
ATOM     36  H   UNL d   1      25.156 -11.046  -4.695  0.00  0.00     0.156 HD
ATOM     37  H   UNL d   1      24.361 -12.277  -3.930  0.00  0.00     0.156 HD
ENDBRANCH  29  35
ENDBRANCH   2  25
TORSDOF 12
ENDMDL
MODEL 3
REMARK VINA RESULT:    -8.428      1.457      1.847
REMARK INTER + INTRA:         -14.754
REMARK INTER:                 -12.008
REMARK INTRA:                  -2.746
REMARK CONF_INDEPENDENT:        3.580
REMARK UNBOUND:                -2.746
REMARK  12 active torsions:
REMARK  status: ('A' for Active; 'I' for Inactive)
REMARK    1  A    between atoms: C_2  and  C_3 
REMARK    2  A    between atoms: C_4  and  C_3 
REMARK    3  A    between atoms: C_4  and  N_13 
REMARK    4  A    between atoms: C_4  and  C_5 
REMARK       I    between atoms: C_5  and  N_7 
REMARK    5  A    between atoms: N_7  and  C_8 
REMARK    6  A    between atoms: C_8  and  C_9 
REMARK    7  A    between atoms: C_9  and  C_10 
REMARK       I    between atoms: N_13  and  C_14 
REMARK    8  A    between atoms: N_13  and  C_25 
REMARK    9  A    between atoms: C_14  and  C_16 
REMARK   10  A    between atoms: C_19  and  C_20 
REMARK       I    between atoms: C_20  and  N_21 
REMARK   11  A    between atoms: C_23  and  N_24 
REMARK   12  A    between atoms: C_28  and  C_29 
ROOT
ATOM      1  N   UNL d   1      26.141 -15.883  -1.319  0.00  0.00    -0.299 N 
ATOM      2  C   UNL d   1      25.853 -15.252  -2.597  0.00  0.00     0.270 C 
ATOM      3  O   UNL d   1      24.761 -15.404  -3.151  0.00  0.00    -0.266 OA
ENDROOT
BRANCH   1   4
ATOM      4  C   UNL d   1      27.352 -15.540  -0.375  0.00  0.00     0.185 C 
BRANCH   4   5
ATOM      5  C   UNL d   1      27.117 -14.768   0.980  0.00  0.00     0.241 C 
ATOM      6  O   UNL d   1      26.328 -13.819   1.022  0.00  0.00    -0.271 OA
ATOM      7  N   UNL d   1      27.822 -15.198   2.120  0.00  0.00    -0.359 N 
ATOM      8  H   UNL d   1      28.619 -15.788   1.943  0.00  0.00     0.162 HD
BRANCH   7   9
ATOM      9  C   UNL d   1      27.912 -14.257   3.253  0.00  0.00     0.123 C 
BRANCH   9  10
ATOM     10  C   UNL d   1      28.478 -14.747   4.645  0.00  0.00     0.023 C 
BRANCH  10  11
ATOM     11  C   UNL d   1      28.939 -13.627   5.648  0.00  0.00    -0.021 C 
ATOM     12  C   UNL d   1      27.766 -12.745   6.020  0.00  0.00     0.009 C 
ATOM     13  C   UNL d   1      29.818 -14.085   6.803  0.00  0.00     0.009 C 
ENDBRANCH  10  11
ENDBRANCH   9  10
ENDBRANCH   7   9
ENDBRANCH   4   5
BRANCH   4  14
ATOM     14  C   UNL d   1      28.215 -16.694   0.262  0.00  0.00     0.035 C 
BRANCH  14  15
ATOM     15  C   UNL d   1      29.329 -17.249  -0.548  0.00  0.00    -0.002 C 
ATOM     16  C   UNL d   1      29.514 -17.073  -2.010  0.00  0.00     0.005 C 
ENDBRANCH  14  15
ENDBRANCH   4  14
ENDBRANCH   1   4
BRANCH   1  17
ATOM     17  C   UNL d   1      25.036 -16.754  -0.811  0.00  0.00     0.038 C 
ATOM     18  C   UNL d   1      25.122 -18.082  -0.433  0.00  0.00     0.030 C 
ATOM     19  C   UNL d   1      23.942 -18.857  -0.159  0.00  0.00     0.009 C 
ATOM     20  C   UNL d   1      22.642 -18.330  -0.303  0.00  0.00    -0.058 C 
ATOM     21  C   UNL d   1      22.562 -17.042  -0.728  0.00  0.00     0.009 C 
ATOM     22  C   UNL d   1      23.741 -16.325  -0.695  0.00  0.00     0.030 C 
BRANCH  20  23
ATOM     23  C   UNL d   1      21.379 -19.009   0.166  0.00  0.00     0.034 C 
ATOM     24  C   UNL d   1      20.269 -19.116  -0.900  0.00  0.00     0.010 C 
ENDBRANCH  20  23
ENDBRANCH   1  17
BRANCH   2  25
ATOM     25  C   UNL d   1      26.864 -14.502  -3.307  0.00  0.00     0.120 C 
ATOM     26  S   UNL d   1      27.755 -13.251  -2.560  0.00  0.00     0.020 SA
ATOM     27  N   UNL d   1      28.772 -12.920  -3.838  0.00  0.00    -0.203 NA
ATOM     28  C   UNL d   1      28.320 -13.587  -4.898  0.00  0.00     0.160 C 
ATOM     29  C   UNL d   1      27.178 -14.515  -4.642  0.00  0.00     0.085 C 
BRANCH  28  30
ATOM     30  C   UNL d   1      28.944 -13.437  -6.227  0.00  0.00     0.271 C 
ATOM     31  N   UNL d   1      30.117 -12.667  -6.378  0.00  0.00    -0.365 N 
ATOM     32  H   UNL d   1      30.264 -11.788  -5.913  0.00  0.00     0.159 HD
ATOM     33  H   UNL d   1      30.627 -12.730  -7.255  0.00  0.00     0.159 HD
ATOM     34  O   UNL d   1      28.496 -14.081  -7.132  0.00  0.00    -0.266 OA
ENDBRANCH  28  30
BRANCH  29  35
ATOM     35  N   UNL d   1      26.556 -15.415  -5.476  0.00  0.00    -0.396 N 
ATOM     36  H   UNL d   1      25.589 -15.661  -5.295  0.00  0.00     0.156 HD
ATOM     37  H   UNL d   1      26.687 -15.328  -6.485  0.00  0.00     0.156 HD
ENDBRANCH  29  35
ENDBRANCH   2  25
TORSDOF 12
ENDMDL
MODEL 4
REMARK VINA RESULT:    -8.273      2.843      5.928
REMARK INTER + INTRA:         -14.785
REMARK INTER:                 -11.853
REMARK INTRA:                  -2.933
REMARK CONF_INDEPENDENT:        3.580
REMARK UNBOUND:                -2.933
REMARK  12 active torsions:
REMARK  status: ('A' for Active; 'I' for Inactive)
REMARK    1  A    between atoms: C_2  and  C_3 
REMARK    2  A    between atoms: C_4  and  C_3 
REMARK    3  A    between atoms: C_4  and  N_13 
REMARK    4  A    between atoms: C_4  and  C_5 
REMARK       I    between atoms: C_5  and  N_7 
REMARK    5  A    between atoms: N_7  and  C_8 
REMARK    6  A    between atoms: C_8  and  C_9 
REMARK    7  A    between atoms: C_9  and  C_10 
REMARK       I    between atoms: N_13  and  C_14 
REMARK    8  A    between atoms: N_13  and  C_25 
REMARK    9  A    between atoms: C_14  and  C_16 
REMARK   10  A    between atoms: C_19  and  C_20 
REMARK       I    between atoms: C_20  and  N_21 
REMARK   11  A    between atoms: C_23  and  N_24 
REMARK   12  A    between atoms: C_28  and  C_29 
ROOT
ATOM      1  N   UNL d   1      25.852 -16.323  -1.423  0.00  0.00    -0.299 N 
ATOM      2  C   UNL d   1      26.807 -16.408  -0.330  0.00  0.00     0.270 C 
ATOM      3  O   UNL d   1      26.534 -17.015   0.709  0.00  0.00    -0.266 OA
ENDROOT
BRANCH   1   4
ATOM      4  C   UNL d   1      26.170 -15.849  -2.889  0.00  0.00     0.185 C 
BRANCH   4   5
ATOM      5  C   UNL d   1      25.587 -14.488  -3.435  0.00  0.00     0.241 C 
ATOM      6  O   UNL d   1      24.776 -14.492  -4.365  0.00  0.00    -0.271 OA
ATOM      7  N   UNL d   1      26.016 -13.292  -2.827  0.00  0.00    -0.359 N 
ATOM      8  H   UNL d   1      26.854 -13.359  -2.273  0.00  0.00     0.162 HD
BRANCH   7   9
ATOM      9  C   UNL d   1      25.795 -12.040  -3.575  0.00  0.00     0.123 C 
BRANCH   9  10
ATOM     10  C   UNL d   1      25.898 -12.031  -5.152  0.00  0.00     0.023 C 
BRANCH  10  11
ATOM     11  C   UNL d   1      26.386 -10.691  -5.817  0.00  0.00    -0.021 C 
ATOM     12  C   UNL d   1      27.027 -10.979  -7.158  0.00  0.00     0.009 C 
ATOM     13  C   UNL d   1      25.399  -9.533  -5.786  0.00  0.00     0.009 C 
ENDBRANCH  10  11
ENDBRANCH   9  10
ENDBRANCH   7   9
ENDBRANCH   4   5
BRANCH   4  14
ATOM     14  C   UNL d   1      27.657 -15.556  -3.325  0.00  0.00     0.035 C 
BRANCH  14  15
ATOM     15  C   UNL d   1      27.900 -15.203  -4.746  0.00  0.00    -0.002 C 
ATOM     16  C   UNL d   1      28.790 -14.120  -5.234  0.00  0.00     0.005 C 
ENDBRANCH  14  15
ENDBRANCH   4  14
ENDBRANCH   1   4
BRANCH   1  17
ATOM     17  C   UNL d   1      24.535 -16.970  -1.129  0.00  0.00     0.038 C 
ATOM     18  C   UNL d   1      23.305 -16.349  -1.009  0.00  0.00     0.030 C 
ATOM     19  C   UNL d   1      22.155 -17.062  -0.521  0.00  0.00     0.009 C 
ATOM     20  C   UNL d   1      22.223 -18.404  -0.096  0.00  0.00    -0.058 C 
ATOM     21  C   UNL d   1      23.446 -18.992  -0.164  0.00  0.00     0.009 C 
ATOM     22  C   UNL d   1      24.399 -18.312  -0.893  0.00  0.00     0.030 C 
BRANCH  20  23
ATOM     23  C   UNL d   1      21.029 -19.270   0.222  0.00  0.00     0.034 C 
ATOM     24  C   UNL d   1      20.000 -19.395  -0.922  0.00  0.00     0.010 C 
ENDBRANCH  20  23
ENDBRANCH   1  17
BRANCH   2  25
ATOM     25  C   UNL d   1      28.069 -15.707  -0.382  0.00  0.00     0.120 C 
ATOM     26  S   UNL d   1      28.165 -14.033  -0.707  0.00  0.00     0.020 SA
ATOM     27  N   UNL d   1      29.810 -13.867  -0.504  0.00  0.00    -0.203 NA
ATOM     28  C   UNL d   1      30.330 -15.089  -0.403  0.00  0.00     0.160 C 
ATOM     29  C   UNL d   1      29.345 -16.211  -0.353  0.00  0.00     0.085 C 
BRANCH  28  30
ATOM     30  C   UNL d   1      31.788 -15.302  -0.308  0.00  0.00     0.271 C 
ATOM     31  N   UNL d   1      32.665 -14.197  -0.275  0.00  0.00    -0.365 N 
ATOM     32  H   UNL d   1      32.551 -13.384  -0.855  0.00  0.00     0.159 HD
ATOM     33  H   UNL d   1      33.636 -14.360  -0.025  0.00  0.00     0.159 HD
ATOM     34  O   UNL d   1      32.180 -16.421  -0.140  0.00  0.00    -0.266 OA
ENDBRANCH  28  30
BRANCH  29  35
ATOM     35  N   UNL d   1      29.537 -17.558  -0.146  0.00  0.00    -0.396 N 
ATOM     36  H   UNL d   1      30.436 -17.876   0.198  0.00  0.00     0.156 HD
ATOM     37  H   UNL d   1      28.802 -18.097   0.316  0.00  0.00     0.156 HD
ENDBRANCH  29  35
ENDBRANCH   2  25
TORSDOF 12
ENDMDL
MODEL 5
REMARK VINA RESULT:    -8.243      3.154      6.070
REMARK INTER + INTRA:         -15.452
REMARK INTER:                 -11.822
REMARK INTRA:                  -3.630
REMARK CONF_INDEPENDENT:        3.580
REMARK UNBOUND:                -3.630
REMARK  12 active torsions:
REMARK  status: ('A' for Active; 'I' for Inactive)
REMARK    1  A    between atoms: C_2  and  C_3 
REMARK    2  A    between atoms: C_4  and  C_3 
REMARK    3  A    between atoms: C_4  and  N_13 
REMARK    4  A    between atoms: C_4  and  C_5 
REMARK       I    between atoms: C_5  and  N_7 
REMARK    5  A    between atoms: N_7  and  C_8 
REMARK    6  A    between atoms: C_8  and  C_9 
REMARK    7  A    between atoms: C_9  and  C_10 
REMARK       I    between atoms: N_13  and  C_14 
REMARK    8  A    between atoms: N_13  and  C_25 
REMARK    9  A    between atoms: C_14  and  C_16 
REMARK   10  A    between atoms: C_19  and  C_20 
REMARK       I    between atoms: C_20  and  N_21 
REMARK   11  A    between atoms: C_23  and  N_24 
REMARK   12  A    between atoms: C_28  and  C_29 
ROOT
ATOM      1  N   UNL d   1      25.825 -16.188  -1.392  0.00  0.00    -0.299 N 
ATOM      2  C   UNL d   1      26.941 -16.818  -0.704  0.00  0.00     0.270 C 
ATOM      3  O   UNL d   1      26.785 -17.852  -0.050  0.00  0.00    -0.266 OA
ENDROOT
BRANCH   1   4
ATOM      4  C   UNL d   1      25.934 -15.061  -2.484  0.00  0.00     0.185 C 
BRANCH   4   5
ATOM      5  C   UNL d   1      26.627 -15.355  -3.870  0.00  0.00     0.241 C 
ATOM      6  O   UNL d   1      25.993 -15.909  -4.773  0.00  0.00    -0.271 OA
ATOM      7  N   UNL d   1      27.969 -14.962  -4.038  0.00  0.00    -0.359 N 
ATOM      8  H   UNL d   1      28.476 -14.765  -3.190  0.00  0.00     0.162 HD
BRANCH   7   9
ATOM      9  C   UNL d   1      28.719 -15.579  -5.149  0.00  0.00     0.123 C 
BRANCH   9  10
ATOM     10  C   UNL d   1      30.165 -16.165  -4.898  0.00  0.00     0.023 C 
BRANCH  10  11
ATOM     11  C   UNL d   1      30.264 -17.718  -4.672  0.00  0.00    -0.021 C 
ATOM     12  C   UNL d   1      30.626 -18.411  -5.969  0.00  0.00     0.009 C 
ATOM     13  C   UNL d   1      31.038 -18.166  -3.441  0.00  0.00     0.009 C 
ENDBRANCH  10  11
ENDBRANCH   9  10
ENDBRANCH   7   9
ENDBRANCH   4   5
BRANCH   4  14
ATOM     14  C   UNL d   1      24.632 -14.425  -3.103  0.00  0.00     0.035 C 
BRANCH  14  15
ATOM     15  C   UNL d   1      24.805 -13.370  -4.134  0.00  0.00    -0.002 C 
ATOM     16  C   UNL d   1      25.586 -12.118  -3.976  0.00  0.00     0.005 C 
ENDBRANCH  14  15
ENDBRANCH   4  14
ENDBRANCH   1   4
BRANCH   1  17
ATOM     17  C   UNL d   1      24.513 -16.871  -1.168  0.00  0.00     0.038 C 
ATOM     18  C   UNL d   1      23.294 -16.275  -0.897  0.00  0.00     0.030 C 
ATOM     19  C   UNL d   1      22.154 -17.057  -0.499  0.00  0.00     0.009 C 
ATOM     20  C   UNL d   1      22.222 -18.453  -0.317  0.00  0.00    -0.058 C 
ATOM     21  C   UNL d   1      23.436 -19.026  -0.531  0.00  0.00     0.009 C 
ATOM     22  C   UNL d   1      24.371 -18.233  -1.164  0.00  0.00     0.030 C 
BRANCH  20  23
ATOM     23  C   UNL d   1      21.031 -19.356  -0.112  0.00  0.00     0.034 C 
ATOM     24  C   UNL d   1      19.995 -19.325  -1.255  0.00  0.00     0.010 C 
ENDBRANCH  20  23
ENDBRANCH   1  17
BRANCH   2  25
ATOM     25  C   UNL d   1      28.250 -16.207  -0.685  0.00  0.00     0.120 C 
ATOM     26  S   UNL d   1      28.470 -14.528  -0.908  0.00  0.00     0.020 SA
ATOM     27  N   UNL d   1      30.116 -14.491  -0.657  0.00  0.00    -0.203 NA
ATOM     28  C   UNL d   1      30.548 -15.750  -0.616  0.00  0.00     0.160 C 
ATOM     29  C   UNL d   1      29.486 -16.800  -0.655  0.00  0.00     0.085 C 
BRANCH  28  30
ATOM     30  C   UNL d   1      31.984 -16.071  -0.499  0.00  0.00     0.271 C 
ATOM     31  N   UNL d   1      32.940 -15.034  -0.445  0.00  0.00    -0.365 N 
ATOM     32  H   UNL d   1      32.895 -14.211  -1.020  0.00  0.00     0.159 HD
ATOM     33  H   UNL d   1      33.892 -15.269  -0.180  0.00  0.00     0.159 HD
ATOM     34  O   UNL d   1      32.290 -17.216  -0.334  0.00  0.00    -0.266 OA
ENDBRANCH  28  30
BRANCH  29  35
ATOM     35  N   UNL d   1      29.578 -18.167  -0.523  0.00  0.00    -0.396 N 
ATOM     36  H   UNL d   1      30.428 -18.564  -0.138  0.00  0.00     0.156 HD
ATOM     37  H   UNL d   1      28.780 -18.683  -0.151  0.00  0.00     0.156 HD
ENDBRANCH  29  35
ENDBRANCH   2  25
TORSDOF 12
ENDMDL
MODEL 6
REMARK VINA RESULT:    -8.083      3.128      6.287
REMARK INTER + INTRA:         -15.030
REMARK INTER:                 -11.663
REMARK INTRA:                  -3.368
REMARK CONF_INDEPENDENT:        3.580
REMARK UNBOUND:                -3.368
REMARK  12 active torsions:
REMARK  status: ('A' for Active; 'I' for Inactive)
REMARK    1  A    between atoms: C_2  and  C_3 
REMARK    2  A    between atoms: C_4  and  C_3 
REMARK    3  A    between atoms: C_4  and  N_13 
REMARK    4  A    between atoms: C_4  and  C_5 
REMARK       I    between atoms: C_5  and  N_7 
REMARK    5  A    between atoms: N_7  and  C_8 
REMARK    6  A    between atoms: C_8  and  C_9 
REMARK    7  A    between atoms: C_9  and  C_10 
REMARK       I    between atoms: N_13  and  C_14 
REMARK    8  A    between atoms: N_13  and  C_25 
REMARK    9  A    between atoms: C_14  and  C_16 
REMARK   10  A    between atoms: C_19  and  C_20 
REMARK       I    between atoms: C_20  and  N_21 
REMARK   11  A    between atoms: C_23  and  N_24 
REMARK   12  A    between atoms: C_28  and  C_29 
ROOT
ATOM      1  N   UNL d   1      25.850 -16.209  -1.308  0.00  0.00    -0.299 N 
ATOM      2  C   UNL d   1      26.947 -16.821  -0.576  0.00  0.00     0.270 C 
ATOM      3  O   UNL d   1      26.775 -17.840   0.098  0.00  0.00    -0.266 OA
ENDROOT
BRANCH   1   4
ATOM      4  C   UNL d   1      25.989 -15.107  -2.422  0.00  0.00     0.185 C 
BRANCH   4   5
ATOM      5  C   UNL d   1      26.786 -15.406  -3.750  0.00  0.00     0.241 C 
ATOM      6  O   UNL d   1      26.179 -15.724  -4.777  0.00  0.00    -0.271 OA
ATOM      7  N   UNL d   1      28.189 -15.294  -3.721  0.00  0.00    -0.359 N 
ATOM      8  H   UNL d   1      28.608 -15.291  -2.805  0.00  0.00     0.162 HD
BRANCH   7   9
ATOM      9  C   UNL d   1      28.941 -15.947  -4.809  0.00  0.00     0.123 C 
BRANCH   9  10
ATOM     10  C   UNL d   1      29.989 -15.119  -5.654  0.00  0.00     0.023 C 
BRANCH  10  11
ATOM     11  C   UNL d   1      29.405 -14.176  -6.770  0.00  0.00    -0.021 C 
ATOM     12  C   UNL d   1      28.310 -13.304  -6.193  0.00  0.00     0.009 C 
ATOM     13  C   UNL d   1      30.426 -13.468  -7.648  0.00  0.00     0.009 C 
ENDBRANCH  10  11
ENDBRANCH   9  10
ENDBRANCH   7   9
ENDBRANCH   4   5
BRANCH   4  14
ATOM     14  C   UNL d   1      24.707 -14.542  -3.145  0.00  0.00     0.035 C 
BRANCH  14  15
ATOM     15  C   UNL d   1      24.821 -13.221  -3.814  0.00  0.00    -0.002 C 
ATOM     16  C   UNL d   1      25.971 -12.288  -3.711  0.00  0.00     0.005 C 
ENDBRANCH  14  15
ENDBRANCH   4  14
ENDBRANCH   1   4
BRANCH   1  17
ATOM     17  C   UNL d   1      24.533 -16.887  -1.104  0.00  0.00     0.038 C 
ATOM     18  C   UNL d   1      23.302 -16.287  -0.910  0.00  0.00     0.030 C 
ATOM     19  C   UNL d   1      22.150 -17.056  -0.521  0.00  0.00     0.009 C 
ATOM     20  C   UNL d   1      22.217 -18.442  -0.271  0.00  0.00    -0.058 C 
ATOM     21  C   UNL d   1      23.440 -19.016  -0.410  0.00  0.00     0.009 C 
ATOM     22  C   UNL d   1      24.396 -18.248  -1.042  0.00  0.00     0.030 C 
BRANCH  20  23
ATOM     23  C   UNL d   1      21.022 -19.340  -0.072  0.00  0.00     0.034 C 
ATOM     24  C   UNL d   1      19.776 -18.950  -0.895  0.00  0.00     0.010 C 
ENDBRANCH  20  23
ENDBRANCH   1  17
BRANCH   2  25
ATOM     25  C   UNL d   1      28.255 -16.208  -0.535  0.00  0.00     0.120 C 
ATOM     26  S   UNL d   1      28.468 -14.517  -0.652  0.00  0.00     0.020 SA
ATOM     27  N   UNL d   1      30.117 -14.490  -0.422  0.00  0.00    -0.203 NA
ATOM     28  C   UNL d   1      30.553 -15.748  -0.468  0.00  0.00     0.160 C 
ATOM     29  C   UNL d   1      29.493 -16.797  -0.560  0.00  0.00     0.085 C 
BRANCH  28  30
ATOM     30  C   UNL d   1      31.991 -16.071  -0.391  0.00  0.00     0.271 C 
ATOM     31  N   UNL d   1      32.932 -15.055  -0.116  0.00  0.00    -0.365 N 
ATOM     32  H   UNL d   1      32.885 -14.136  -0.519  0.00  0.00     0.159 HD
ATOM     33  H   UNL d   1      33.883 -15.329   0.113  0.00  0.00     0.159 HD
ATOM     34  O   UNL d   1      32.310 -17.223  -0.449  0.00  0.00    -0.266 OA
ENDBRANCH  28  30
BRANCH  29  35
ATOM     35  N   UNL d   1      29.591 -18.169  -0.518  0.00  0.00    -0.396 N 
ATOM     36  H   UNL d   1      30.443 -18.588  -0.162  0.00  0.00     0.156 HD
ATOM     37  H   UNL d   1      28.795 -18.712  -0.178  0.00  0.00     0.156 HD
ENDBRANCH  29  35
ENDBRANCH   2  25
TORSDOF 12
ENDMDL
MODEL 7
REMARK VINA RESULT:    -7.824      1.658      2.159
REMARK INTER + INTRA:         -14.837
REMARK INTER:                 -11.403
REMARK INTRA:                  -3.434
REMARK CONF_INDEPENDENT:        3.580
REMARK UNBOUND:                -3.434
REMARK  12 active torsions:
REMARK  status: ('A' for Active; 'I' for Inactive)
REMARK    1  A    between atoms: C_2  and  C_3 
REMARK    2  A    between atoms: C_4  and  C_3 
REMARK    3  A    between atoms: C_4  and  N_13 
REMARK    4  A    between atoms: C_4  and  C_5 
REMARK       I    between atoms: C_5  and  N_7 
REMARK    5  A    between atoms: N_7  and  C_8 
REMARK    6  A    between atoms: C_8  and  C_9 
REMARK    7  A    between atoms: C_9  and  C_10 
REMARK       I    between atoms: N_13  and  C_14 
REMARK    8  A    between atoms: N_13  and  C_25 
REMARK    9  A    between atoms: C_14  and  C_16 
REMARK   10  A    between atoms: C_19  and  C_20 
REMARK       I    between atoms: C_20  and  N_21 
REMARK   11  A    between atoms: C_23  and  N_24 
REMARK   12  A    between atoms: C_28  and  C_29 
ROOT
ATOM      1  N   UNL d   1      25.614 -15.746  -2.326  0.00  0.00    -0.299 N 
ATOM      2  C   UNL d   1      25.251 -14.705  -3.273  0.00  0.00     0.270 C 
ATOM      3  O   UNL d   1      24.069 -14.450  -3.520  0.00  0.00    -0.266 OA
ENDROOT
BRANCH   1   4
ATOM      4  C   UNL d   1      27.042 -15.969  -1.705  0.00  0.00     0.185 C 
BRANCH   4   5
ATOM      5  C   UNL d   1      27.588 -15.000  -0.586  0.00  0.00     0.241 C 
ATOM      6  O   UNL d   1      28.803 -14.812  -0.470  0.00  0.00    -0.271 OA
ATOM      7  N   UNL d   1      26.655 -14.365   0.255  0.00  0.00    -0.359 N 
ATOM      8  H   UNL d   1      25.731 -14.767   0.265  0.00  0.00     0.162 HD
BRANCH   7   9
ATOM      9  C   UNL d   1      27.162 -13.798   1.519  0.00  0.00     0.123 C 
BRANCH   9  10
ATOM     10  C   UNL d   1      28.191 -12.598   1.491  0.00  0.00     0.023 C 
BRANCH  10  11
ATOM     11  C   UNL d   1      27.594 -11.168   1.218  0.00  0.00    -0.021 C 
ATOM     12  C   UNL d   1      27.458 -10.937  -0.273  0.00  0.00     0.009 C 
ATOM     13  C   UNL d   1      26.393 -10.773   2.064  0.00  0.00     0.009 C 
ENDBRANCH  10  11
ENDBRANCH   9  10
ENDBRANCH   7   9
ENDBRANCH   4   5
BRANCH   4  14
ATOM     14  C   UNL d   1      27.371 -17.296  -0.922  0.00  0.00     0.035 C 
BRANCH  14  15
ATOM     15  C   UNL d   1      27.012 -17.353   0.518  0.00  0.00    -0.002 C 
ATOM     16  C   UNL d   1      26.650 -18.575   1.278  0.00  0.00     0.005 C 
ENDBRANCH  14  15
ENDBRANCH   4  14
ENDBRANCH   1   4
BRANCH   1  17
ATOM     17  C   UNL d   1      24.443 -16.486  -1.761  0.00  0.00     0.038 C 
ATOM     18  C   UNL d   1      23.272 -15.946  -1.259  0.00  0.00     0.030 C 
ATOM     19  C   UNL d   1      22.316 -16.759  -0.558  0.00  0.00     0.009 C 
ATOM     20  C   UNL d   1      22.532 -18.129  -0.303  0.00  0.00    -0.058 C 
ATOM     21  C   UNL d   1      23.708 -18.642  -0.751  0.00  0.00     0.009 C 
ATOM     22  C   UNL d   1      24.413 -17.849  -1.633  0.00  0.00     0.030 C 
BRANCH  20  23
ATOM     23  C   UNL d   1      21.492 -19.082   0.229  0.00  0.00     0.034 C 
ATOM     24  C   UNL d   1      20.305 -19.340  -0.723  0.00  0.00     0.010 C 
ENDBRANCH  20  23
ENDBRANCH   1  17
BRANCH   2  25
ATOM     25  C   UNL d   1      26.258 -13.995  -4.029  0.00  0.00     0.120 C 
ATOM     26  S   UNL d   1      27.735 -14.725  -4.480  0.00  0.00     0.020 SA
ATOM     27  N   UNL d   1      28.334 -13.460  -5.383  0.00  0.00    -0.203 NA
ATOM     28  C   UNL d   1      27.541 -12.409  -5.183  0.00  0.00     0.160 C 
ATOM     29  C   UNL d   1      26.315 -12.668  -4.369  0.00  0.00     0.085 C 
BRANCH  28  30
ATOM     30  C   UNL d   1      27.846 -11.089  -5.769  0.00  0.00     0.271 C 
ATOM     31  N   UNL d   1      28.883 -10.957  -6.717  0.00  0.00    -0.365 N 
ATOM     32  H   UNL d   1      29.768 -11.425  -6.636  0.00  0.00     0.159 HD
ATOM     33  H   UNL d   1      28.951 -10.087  -7.239  0.00  0.00     0.159 HD
ATOM     34  O   UNL d   1      27.116 -10.177  -5.505  0.00  0.00    -0.266 OA
ENDBRANCH  28  30
BRANCH  29  35
ATOM     35  N   UNL d   1      25.252 -11.846  -4.071  0.00  0.00    -0.396 N 
ATOM     36  H   UNL d   1      25.106 -11.014  -4.633  0.00  0.00     0.156 HD
ATOM     37  H   UNL d   1      24.344 -12.266  -3.868  0.00  0.00     0.156 HD
ENDBRANCH  29  35
ENDBRANCH   2  25
TORSDOF 12
ENDMDL
MODEL 8
REMARK VINA RESULT:    -7.792      1.580      2.029
REMARK INTER + INTRA:         -14.371
REMARK INTER:                 -11.372
REMARK INTRA:                  -2.999
REMARK CONF_INDEPENDENT:        3.580
REMARK UNBOUND:                -2.999
REMARK  12 active torsions:
REMARK  status: ('A' for Active; 'I' for Inactive)
REMARK    1  A    between atoms: C_2  and  C_3 
REMARK    2  A    between atoms: C_4  and  C_3 
REMARK    3  A    between atoms: C_4  and  N_13 
REMARK    4  A    between atoms: C_4  and  C_5 
REMARK       I    between atoms: C_5  and  N_7 
REMARK    5  A    between atoms: N_7  and  C_8 
REMARK    6  A    between atoms: C_8  and  C_9 
REMARK    7  A    between atoms: C_9  and  C_10 
REMARK       I    between atoms: N_13  and  C_14 
REMARK    8  A    between atoms: N_13  and  C_25 
REMARK    9  A    between atoms: C_14  and  C_16 
REMARK   10  A    between atoms: C_19  and  C_20 
REMARK       I    between atoms: C_20  and  N_21 
REMARK   11  A    between atoms: C_23  and  N_24 
REMARK   12  A    between atoms: C_28  and  C_29 
ROOT
ATOM      1  N   UNL d   1      26.544 -14.866  -2.563  0.00  0.00    -0.299 N 
ATOM      2  C   UNL d   1      26.111 -14.796  -3.949  0.00  0.00     0.270 C 
ATOM      3  O   UNL d   1      25.156 -15.464  -4.353  0.00  0.00    -0.266 OA
ENDROOT
BRANCH   1   4
ATOM      4  C   UNL d   1      27.533 -13.868  -1.856  0.00  0.00     0.185 C 
BRANCH   4   5
ATOM      5  C   UNL d   1      27.272 -13.398  -0.373  0.00  0.00     0.241 C 
ATOM      6  O   UNL d   1      27.222 -12.194  -0.105  0.00  0.00    -0.271 OA
ATOM      7  N   UNL d   1      27.095 -14.386   0.615  0.00  0.00    -0.359 N 
ATOM      8  H   UNL d   1      27.406 -15.311   0.368  0.00  0.00     0.162 HD
BRANCH   7   9
ATOM      9  C   UNL d   1      27.252 -13.970   2.021  0.00  0.00     0.123 C 
BRANCH   9  10
ATOM     10  C   UNL d   1      28.580 -14.315   2.805  0.00  0.00     0.023 C 
BRANCH  10  11
ATOM     11  C   UNL d   1      28.419 -14.706   4.321  0.00  0.00    -0.021 C 
ATOM     12  C   UNL d   1      29.757 -14.622   5.024  0.00  0.00     0.009 C 
ATOM     13  C   UNL d   1      27.244 -14.075   5.052  0.00  0.00     0.009 C 
ENDBRANCH  10  11
ENDBRANCH   9  10
ENDBRANCH   7   9
ENDBRANCH   4   5
BRANCH   4  14
ATOM     14  C   UNL d   1      29.038 -14.273  -1.618  0.00  0.00     0.035 C 
BRANCH  14  15
ATOM     15  C   UNL d   1      29.568 -15.430  -2.382  0.00  0.00    -0.002 C 
ATOM     16  C   UNL d   1      29.416 -16.860  -2.016  0.00  0.00     0.005 C 
ENDBRANCH  14  15
ENDBRANCH   4  14
ENDBRANCH   1   4
BRANCH   1  17
ATOM     17  C   UNL d   1      25.777 -15.850  -1.737  0.00  0.00     0.038 C 
ATOM     18  C   UNL d   1      26.271 -16.971  -1.094  0.00  0.00     0.030 C 
ATOM     19  C   UNL d   1      25.389 -17.942  -0.506  0.00  0.00     0.009 C 
ATOM     20  C   UNL d   1      23.985 -17.837  -0.590  0.00  0.00    -0.058 C 
ATOM     21  C   UNL d   1      23.506 -16.763  -1.271  0.00  0.00     0.009 C 
ATOM     22  C   UNL d   1      24.423 -15.770  -1.549  0.00  0.00     0.030 C 
BRANCH  20  23
ATOM     23  C   UNL d   1      23.008 -18.693   0.177  0.00  0.00     0.034 C 
ATOM     24  C   UNL d   1      21.633 -18.868  -0.501  0.00  0.00     0.010 C 
ENDBRANCH  20  23
ENDBRANCH   1  17
BRANCH   2  25
ATOM     25  C   UNL d   1      26.838 -14.014  -4.922  0.00  0.00     0.120 C 
ATOM     26  S   UNL d   1      28.295 -14.565  -5.622  0.00  0.00     0.020 SA
ATOM     27  N   UNL d   1      28.515 -13.303  -6.686  0.00  0.00    -0.203 NA
ATOM     28  C   UNL d   1      27.625 -12.359  -6.384  0.00  0.00     0.160 C 
ATOM     29  C   UNL d   1      26.629 -12.721  -5.331  0.00  0.00     0.085 C 
BRANCH  28  30
ATOM     30  C   UNL d   1      27.611 -11.059  -7.082  0.00  0.00     0.271 C 
ATOM     31  N   UNL d   1      28.519 -10.809  -8.134  0.00  0.00    -0.365 N 
ATOM     32  H   UNL d   1      29.483 -11.089  -8.109  0.00  0.00     0.159 HD
ATOM     33  H   UNL d   1      28.369  -9.989  -8.715  0.00  0.00     0.159 HD
ATOM     34  O   UNL d   1      26.739 -10.286  -6.808  0.00  0.00    -0.266 OA
ENDBRANCH  28  30
BRANCH  29  35
ATOM     35  N   UNL d   1      25.530 -12.034  -4.869  0.00  0.00    -0.396 N 
ATOM     36  H   UNL d   1      25.296 -11.144  -5.295  0.00  0.00     0.156 HD
ATOM     37  H   UNL d   1      24.666 -12.547  -4.689  0.00  0.00     0.156 HD
ENDBRANCH  29  35
ENDBRANCH   2  25
TORSDOF 12
ENDMDL
MODEL 9
REMARK VINA RESULT:    -7.438      2.144      4.730
REMARK INTER + INTRA:         -14.668
REMARK INTER:                 -11.018
REMARK INTRA:                  -3.650
REMARK CONF_INDEPENDENT:        3.580
REMARK UNBOUND:                -3.650
REMARK  12 active torsions:
REMARK  status: ('A' for Active; 'I' for Inactive)
REMARK    1  A    between atoms: C_2  and  C_3 
REMARK    2  A    between atoms: C_4  and  C_3 
REMARK    3  A    between atoms: C_4  and  N_13 
REMARK    4  A    between atoms: C_4  and  C_5 
REMARK       I    between atoms: C_5  and  N_7 
REMARK    5  A    between atoms: N_7  and  C_8 
REMARK    6  A    between atoms: C_8  and  C_9 
REMARK    7  A    between atoms: C_9  and  C_10 
REMARK       I    between atoms: N_13  and  C_14 
REMARK    8  A    between atoms: N_13  and  C_25 
REMARK    9  A    between atoms: C_14  and  C_16 
REMARK   10  A    between atoms: C_19  and  C_20 
REMARK       I    between atoms: C_20  and  N_21 
REMARK   11  A    between atoms: C_23  and  N_24 
REMARK   12  A    between atoms: C_28  and  C_29 
ROOT
ATOM      1  N   UNL d   1      25.574 -15.853  -1.663  0.00  0.00    -0.299 N 
ATOM      2  C   UNL d   1      25.002 -14.878  -2.577  0.00  0.00     0.270 C 
ATOM      3  O   UNL d   1      23.785 -14.822  -2.770  0.00  0.00    -0.266 OA
ENDROOT
BRANCH   1   4
ATOM      4  C   UNL d   1      27.045 -15.839  -1.106  0.00  0.00     0.185 C 
BRANCH   4   5
ATOM      5  C   UNL d   1      28.245 -16.340  -2.000  0.00  0.00     0.241 C 
ATOM      6  O   UNL d   1      28.150 -16.318  -3.230  0.00  0.00    -0.271 OA
ATOM      7  N   UNL d   1      29.408 -16.799  -1.352  0.00  0.00    -0.359 N 
ATOM      8  H   UNL d   1      29.304 -17.026  -0.376  0.00  0.00     0.162 HD
BRANCH   7   9
ATOM      9  C   UNL d   1      30.342 -17.621  -2.145  0.00  0.00     0.123 C 
BRANCH   9  10
ATOM     10  C   UNL d   1      30.898 -17.080  -3.522  0.00  0.00     0.023 C 
BRANCH  10  11
ATOM     11  C   UNL d   1      30.221 -17.647  -4.824  0.00  0.00    -0.021 C 
ATOM     12  C   UNL d   1      30.071 -16.547  -5.854  0.00  0.00     0.009 C 
ATOM     13  C   UNL d   1      30.768 -18.970  -5.340  0.00  0.00     0.009 C 
ENDBRANCH  10  11
ENDBRANCH   9  10
ENDBRANCH   7   9
ENDBRANCH   4   5
BRANCH   4  14
ATOM     14  C   UNL d   1      27.727 -14.479  -0.695  0.00  0.00     0.035 C 
BRANCH  14  15
ATOM     15  C   UNL d   1      27.343 -13.883   0.609  0.00  0.00    -0.002 C 
ATOM     16  C   UNL d   1      27.780 -14.355   1.946  0.00  0.00     0.005 C 
ENDBRANCH  14  15
ENDBRANCH   4  14
ENDBRANCH   1   4
BRANCH   1  17
ATOM     17  C   UNL d   1      24.569 -16.784  -1.064  0.00  0.00     0.038 C 
ATOM     18  C   UNL d   1      24.690 -18.152  -0.895  0.00  0.00     0.030 C 
ATOM     19  C   UNL d   1      23.566 -18.956  -0.495  0.00  0.00     0.009 C 
ATOM     20  C   UNL d   1      22.280 -18.412  -0.299  0.00  0.00    -0.058 C 
ATOM     21  C   UNL d   1      22.155 -17.078  -0.520  0.00  0.00     0.009 C 
ATOM     22  C   UNL d   1      23.337 -16.374  -0.631  0.00  0.00     0.030 C 
BRANCH  20  23
ATOM     23  C   UNL d   1      21.118 -19.147   0.321  0.00  0.00     0.034 C 
ATOM     24  C   UNL d   1      19.909 -19.350  -0.615  0.00  0.00     0.010 C 
ENDBRANCH  20  23
ENDBRANCH   1  17
BRANCH   2  25
ATOM     25  C   UNL d   1      25.843 -14.002  -3.361  0.00  0.00     0.120 C 
ATOM     26  S   UNL d   1      25.905 -12.318  -3.083  0.00  0.00     0.020 SA
ATOM     27  N   UNL d   1      27.095 -11.960  -4.192  0.00  0.00    -0.203 NA
ATOM     28  C   UNL d   1      27.307 -13.051  -4.925  0.00  0.00     0.160 C 
ATOM     29  C   UNL d   1      26.571 -14.276  -4.490  0.00  0.00     0.085 C 
BRANCH  28  30
ATOM     30  C   UNL d   1      28.241 -13.045  -6.067  0.00  0.00     0.271 C 
ATOM     31  N   UNL d   1      28.962 -11.874  -6.387  0.00  0.00    -0.365 N 
ATOM     32  H   UNL d   1      28.559 -10.955  -6.367  0.00  0.00     0.159 HD
ATOM     33  H   UNL d   1      29.728 -11.946  -7.052  0.00  0.00     0.159 HD
ATOM     34  O   UNL d   1      28.451 -14.083  -6.625  0.00  0.00    -0.266 OA
ENDBRANCH  28  30
BRANCH  29  35
ATOM     35  N   UNL d   1      26.643 -15.571  -4.951  0.00  0.00    -0.396 N 
ATOM     36  H   UNL d   1      27.504 -15.888  -5.385  0.00  0.00     0.156 HD
ATOM     37  H   UNL d   1      26.275 -16.325  -4.369  0.00  0.00     0.156 HD
ENDBRANCH  29  35
ENDBRANCH   2  25
TORSDOF 12
ENDMDL
