MODEL 1
REMARK VINA RESULT:   -10.599      0.000      0.000
REMARK INTER + INTRA:         -14.850
REMARK INTER:                 -12.687
REMARK INTRA:                  -2.163
REMARK CONF_INDEPENDENT:        2.088
REMARK UNBOUND:                -2.163
REMARK  7 active torsions:
REMARK  status: ('A' for Active; 'I' for Inactive)
REMARK    1  A    between atoms: C_2  and  C_25 
REMARK    2  A    between atoms: N_3  and  N_4 
REMARK       I    between atoms: N_4  and  C_5 
REMARK    3  A    between atoms: C_5  and  C_7 
REMARK    4  A    between atoms: C_8  and  C_9 
REMARK    5  A    between atoms: C_9  and  N_10 
REMARK    6  A    between atoms: N_18  and  C_19 
REMARK    7  A    between atoms: C_23  and  N_24 
ROOT
ATOM      1  C   UNL d   1      25.514 -16.993  -0.626  0.00  0.00     0.153 C 
ATOM      2  C   UNL d   1      26.651 -17.585  -0.037  0.00  0.00     0.112 C 
ATOM      3  N   UNL d   1      26.217 -18.473   0.912  0.00  0.00    -0.160 NA
ATOM      4  N   UNL d   1      24.894 -18.420   0.971  0.00  0.00     0.012 NA
ATOM      5  N   UNL d   1      24.440 -17.621  -0.022  0.00  0.00    -0.207 N 
ENDROOT
BRANCH   1   6
ATOM      6  C   UNL d   1      25.280 -16.082  -1.735  0.00  0.00     0.292 C 
ATOM      7  N   UNL d   1      25.539 -14.714  -1.540  0.00  0.00    -0.241 N 
ATOM      8  H   UNL d   1      25.671 -14.337  -0.612  0.00  0.00     0.192 HD
ATOM      9  O   UNL d   1      24.780 -16.511  -2.763  0.00  0.00    -0.264 OA
BRANCH   7  10
ATOM     10  N   UNL d   1      25.525 -13.856  -2.637  0.00  0.00    -0.176 NA
ATOM     11  C   UNL d   1      26.543 -13.116  -2.986  0.00  0.00     0.062 C 
ATOM     12  C   UNL d   1      27.797 -13.019  -2.153  0.00  0.00     0.073 C 
BRANCH  11  13
ATOM     13  C   UNL d   1      26.504 -12.243  -4.256  0.00  0.00     0.001 A 
ATOM     14  C   UNL d   1      25.726 -11.064  -4.248  0.00  0.00     0.014 A 
ATOM     15  C   UNL d   1      25.601 -10.259  -5.390  0.00  0.00     0.002 A 
ATOM     16  C   UNL d   1      26.256 -10.609  -6.566  0.00  0.00     0.012 A 
ATOM     17  C   UNL d   1      27.068 -11.748  -6.609  0.00  0.00    -0.025 A 
ATOM     18  C   UNL d   1      27.749 -12.062  -7.798  0.00  0.00     0.012 A 
ATOM     19  C   UNL d   1      27.198 -12.583  -5.454  0.00  0.00    -0.014 A 
ATOM     20  C   UNL d   1      28.563 -13.189  -7.876  0.00  0.00     0.001 A 
ATOM     21  C   UNL d   1      28.692 -14.019  -6.772  0.00  0.00     0.001 A 
ATOM     22  C   UNL d   1      28.011 -13.726  -5.590  0.00  0.00     0.013 A 
ENDBRANCH  11  13
ENDBRANCH   7  10
ENDBRANCH   1   6
BRANCH   2  23
ATOM     23  C   UNL d   1      28.164 -17.439  -0.209  0.00  0.00     0.297 C 
BRANCH  23  24
ATOM     24  N   UNL d   1      28.822 -16.326   0.599  0.00  0.00    -0.066 N 
ATOM     25  C   UNL d   1      29.816 -15.597  -0.279  0.00  0.00     0.235 C 
ATOM     26  C   UNL d   1      30.175 -14.219   0.255  0.00  0.00     0.028 C 
ATOM     27  C   UNL d   1      29.040 -13.424   0.872  0.00  0.00     0.003 C 
ATOM     28  C   UNL d   1      28.293 -14.230   1.906  0.00  0.00     0.028 C 
ATOM     29  C   UNL d   1      27.763 -15.528   1.334  0.00  0.00     0.235 C 
ATOM     30  H   UNL d   1      29.398 -16.763   1.332  0.00  0.00     0.280 HD
ENDBRANCH  23  24
ENDBRANCH   2  23
BRANCH   5  31
ATOM     31  C   UNL d   1      23.088 -17.456  -0.392  0.00  0.00     0.225 A 
ATOM     32  N   UNL d   1      22.679 -16.290  -0.887  0.00  0.00    -0.081 NA
ATOM     33  O   UNL d   1      21.348 -16.538  -1.248  0.00  0.00    -0.103 OA
ATOM     34  N   UNL d   1      20.989 -17.857  -0.984  0.00  0.00    -0.083 NA
ATOM     35  C   UNL d   1      22.064 -18.423  -0.443  0.00  0.00     0.201 A 
BRANCH  35  36
ATOM     36  N   UNL d   1      22.106 -19.688   0.012  0.00  0.00    -0.379 N 
ATOM     37  H   UNL d   1      22.993 -20.184   0.027  0.00  0.00     0.158 HD
ATOM     38  H   UNL d   1      21.408 -20.140   0.602  0.00  0.00     0.158 HD
ENDBRANCH  35  36
ENDBRANCH   5  31
TORSDOF 7
ENDMDL
MODEL 2
REMARK VINA RESULT:   -10.206      0.682      2.132
REMARK INTER + INTRA:         -14.471
REMARK INTER:                 -12.294
REMARK INTRA:                  -2.178
REMARK CONF_INDEPENDENT:        2.088
REMARK UNBOUND:                -2.178
REMARK  7 active torsions:
REMARK  status: ('A' for Active; 'I' for Inactive)
REMARK    1  A    between atoms: C_2  and  C_25 
REMARK    2  A    between atoms: N_3  and  N_4 
REMARK       I    between atoms: N_4  and  C_5 
REMARK    3  A    between atoms: C_5  and  C_7 
REMARK    4  A    between atoms: C_8  and  C_9 
REMARK    5  A    between atoms: C_9  and  N_10 
REMARK    6  A    between atoms: N_18  and  C_19 
REMARK    7  A    between atoms: C_23  and  N_24 
ROOT
ATOM      1  C   UNL d   1      25.753 -16.956  -0.640  0.00  0.00     0.153 C 
ATOM      2  C   UNL d   1      26.890 -17.541  -0.044  0.00  0.00     0.112 C 
ATOM      3  N   UNL d   1      26.457 -18.397   0.934  0.00  0.00    -0.160 NA
ATOM      4  N   UNL d   1      25.135 -18.331   1.003  0.00  0.00     0.012 NA
ATOM      5  N   UNL d   1      24.679 -17.556  -0.007  0.00  0.00    -0.207 N 
ENDROOT
BRANCH   1   6
ATOM      6  C   UNL d   1      25.517 -16.076  -1.772  0.00  0.00     0.292 C 
ATOM      7  N   UNL d   1      25.856 -14.718  -1.643  0.00  0.00    -0.241 N 
ATOM      8  H   UNL d   1      26.050 -14.314  -0.738  0.00  0.00     0.192 HD
ATOM      9  O   UNL d   1      24.948 -16.514  -2.760  0.00  0.00    -0.264 OA
BRANCH   7  10
ATOM     10  N   UNL d   1      25.836 -13.901  -2.771  0.00  0.00    -0.176 NA
ATOM     11  C   UNL d   1      26.882 -13.248  -3.206  0.00  0.00     0.062 C 
ATOM     12  C   UNL d   1      28.186 -13.211  -2.450  0.00  0.00     0.073 C 
BRANCH  11  13
ATOM     13  C   UNL d   1      26.828 -12.421  -4.506  0.00  0.00     0.001 A 
ATOM     14  C   UNL d   1      27.370 -12.973  -5.688  0.00  0.00     0.014 A 
ATOM     15  C   UNL d   1      27.406 -12.249  -6.888  0.00  0.00     0.002 A 
ATOM     16  C   UNL d   1      26.895 -10.956  -6.939  0.00  0.00     0.012 A 
ATOM     17  C   UNL d   1      26.313 -10.383  -5.802  0.00  0.00    -0.025 A 
ATOM     18  C   UNL d   1      25.770  -9.089  -5.887  0.00  0.00     0.012 A 
ATOM     19  C   UNL d   1      26.277 -11.108  -4.568  0.00  0.00    -0.014 A 
ATOM     20  C   UNL d   1      25.187  -8.488  -4.775  0.00  0.00     0.001 A 
ATOM     21  C   UNL d   1      25.155  -9.167  -3.566  0.00  0.00     0.001 A 
ATOM     22  C   UNL d   1      25.701 -10.447  -3.465  0.00  0.00     0.013 A 
ENDBRANCH  11  13
ENDBRANCH   7  10
ENDBRANCH   1   6
BRANCH   2  23
ATOM     23  C   UNL d   1      28.402 -17.414  -0.235  0.00  0.00     0.297 C 
BRANCH  23  24
ATOM     24  N   UNL d   1      29.082 -16.299   0.552  0.00  0.00    -0.066 N 
ATOM     25  C   UNL d   1      30.188 -15.701  -0.290  0.00  0.00     0.235 C 
ATOM     26  C   UNL d   1      30.610 -14.320   0.186  0.00  0.00     0.028 C 
ATOM     27  C   UNL d   1      29.495 -13.408   0.664  0.00  0.00     0.003 C 
ATOM     28  C   UNL d   1      28.618 -14.090   1.685  0.00  0.00     0.028 C 
ATOM     29  C   UNL d   1      28.035 -15.382   1.154  0.00  0.00     0.235 C 
ATOM     30  H   UNL d   1      29.570 -16.726   1.352  0.00  0.00     0.280 HD
ENDBRANCH  23  24
ENDBRANCH   2  23
BRANCH   5  31
ATOM     31  C   UNL d   1      23.325 -17.389  -0.370  0.00  0.00     0.225 A 
ATOM     32  N   UNL d   1      22.914 -16.222  -0.860  0.00  0.00    -0.081 NA
ATOM     33  O   UNL d   1      21.581 -16.469  -1.214  0.00  0.00    -0.103 OA
ATOM     34  N   UNL d   1      21.222 -17.788  -0.951  0.00  0.00    -0.083 NA
ATOM     35  C   UNL d   1      22.300 -18.356  -0.418  0.00  0.00     0.201 A 
BRANCH  35  36
ATOM     36  N   UNL d   1      22.344 -19.622   0.034  0.00  0.00    -0.379 N 
ATOM     37  H   UNL d   1      23.245 -20.054   0.225  0.00  0.00     0.158 HD
ATOM     38  H   UNL d   1      21.577 -20.132   0.472  0.00  0.00     0.158 HD
ENDBRANCH  35  36
ENDBRANCH   5  31
TORSDOF 7
ENDMDL
MODEL 3
REMARK VINA RESULT:    -9.775      1.778      3.165
REMARK INTER + INTRA:         -14.161
REMARK INTER:                 -11.863
REMARK INTRA:                  -2.298
REMARK CONF_INDEPENDENT:        2.088
REMARK UNBOUND:                -2.298
REMARK  7 active torsions:
REMARK  status: ('A' for Active; 'I' for Inactive)
REMARK    1  A    between atoms: C_2  and  C_25 
REMARK    2  A    between atoms: N_3  and  N_4 
REMARK       I    between atoms: N_4  and  C_5 
REMARK    3  A    between atoms: C_5  and  C_7 
REMARK    4  A    between atoms: C_8  and  C_9 
REMARK    5  A    between atoms: C_9  and  N_10 
REMARK    6  A    between atoms: N_18  and  C_19 
REMARK    7  A    between atoms: C_23  and  N_24 
ROOT
ATOM      1  C   UNL d   1      26.205 -16.529  -1.021  0.00  0.00     0.153 C 
ATOM      2  C   UNL d   1      27.458 -17.078  -0.676  0.00  0.00     0.112 C 
ATOM      3  N   UNL d   1      27.242 -18.070   0.244  0.00  0.00    -0.160 NA
ATOM      4  N   UNL d   1      25.945 -18.123   0.516  0.00  0.00     0.012 NA
ATOM      5  N   UNL d   1      25.286 -17.283  -0.314  0.00  0.00    -0.207 N 
ENDROOT
BRANCH   1   6
ATOM      6  C   UNL d   1      25.736 -15.552  -1.990  0.00  0.00     0.292 C 
ATOM      7  N   UNL d   1      25.745 -14.195  -1.627  0.00  0.00    -0.241 N 
ATOM      8  H   UNL d   1      25.862 -13.915  -0.663  0.00  0.00     0.192 HD
ATOM      9  O   UNL d   1      25.262 -15.941  -3.047  0.00  0.00    -0.264 OA
BRANCH   7  10
ATOM     10  N   UNL d   1      25.502 -13.228  -2.600  0.00  0.00    -0.176 NA
ATOM     11  C   UNL d   1      26.435 -12.467  -3.108  0.00  0.00     0.062 C 
ATOM     12  C   UNL d   1      27.853 -12.469  -2.593  0.00  0.00     0.073 C 
BRANCH  11  13
ATOM     13  C   UNL d   1      26.127 -11.467  -4.241  0.00  0.00     0.001 A 
ATOM     14  C   UNL d   1      26.079 -11.939  -5.571  0.00  0.00     0.014 A 
ATOM     15  C   UNL d   1      25.863 -11.070  -6.651  0.00  0.00     0.002 A 
ATOM     16  C   UNL d   1      25.683  -9.709  -6.428  0.00  0.00     0.012 A 
ATOM     17  C   UNL d   1      25.686  -9.203  -5.122  0.00  0.00    -0.025 A 
ATOM     18  C   UNL d   1      25.466  -7.829  -4.918  0.00  0.00     0.012 A 
ATOM     19  C   UNL d   1      25.913 -10.076  -4.011  0.00  0.00    -0.014 A 
ATOM     20  C   UNL d   1      25.464  -7.292  -3.634  0.00  0.00     0.001 A 
ATOM     21  C   UNL d   1      25.697  -8.119  -2.545  0.00  0.00     0.001 A 
ATOM     22  C   UNL d   1      25.929  -9.481  -2.734  0.00  0.00     0.013 A 
ENDBRANCH  11  13
ENDBRANCH   7  10
ENDBRANCH   1   6
BRANCH   2  23
ATOM     23  C   UNL d   1      28.909 -16.804  -1.072  0.00  0.00     0.297 C 
BRANCH  23  24
ATOM     24  N   UNL d   1      29.973 -17.474  -0.209  0.00  0.00    -0.066 N 
ATOM     25  C   UNL d   1      30.555 -18.650  -0.964  0.00  0.00     0.235 C 
ATOM     26  C   UNL d   1      31.904 -19.091  -0.420  0.00  0.00     0.028 C 
ATOM     27  C   UNL d   1      32.842 -17.984   0.022  0.00  0.00     0.003 C 
ATOM     28  C   UNL d   1      32.163 -17.022   0.967  0.00  0.00     0.028 C 
ATOM     29  C   UNL d   1      30.910 -16.426   0.360  0.00  0.00     0.235 C 
ATOM     30  H   UNL d   1      29.504 -17.897   0.604  0.00  0.00     0.280 HD
ENDBRANCH  23  24
ENDBRANCH   2  23
BRANCH   5  31
ATOM     31  C   UNL d   1      23.884 -17.192  -0.449  0.00  0.00     0.225 A 
ATOM     32  N   UNL d   1      23.326 -16.020  -0.743  0.00  0.00    -0.081 NA
ATOM     33  O   UNL d   1      21.973 -16.338  -0.918  0.00  0.00    -0.103 OA
ATOM     34  N   UNL d   1      21.746 -17.702  -0.747  0.00  0.00    -0.083 NA
ATOM     35  C   UNL d   1      22.929 -18.229  -0.446  0.00  0.00     0.201 A 
BRANCH  35  36
ATOM     36  N   UNL d   1      23.126 -19.525  -0.145  0.00  0.00    -0.379 N 
ATOM     37  H   UNL d   1      24.073 -19.868  -0.008  0.00  0.00     0.158 HD
ATOM     38  H   UNL d   1      22.430 -20.169   0.231  0.00  0.00     0.158 HD
ENDBRANCH  35  36
ENDBRANCH   5  31
TORSDOF 7
ENDMDL
MODEL 4
REMARK VINA RESULT:    -9.635      3.611      5.832
REMARK INTER + INTRA:         -14.054
REMARK INTER:                 -11.723
REMARK INTRA:                  -2.331
REMARK CONF_INDEPENDENT:        2.088
REMARK UNBOUND:                -2.331
REMARK  7 active torsions:
REMARK  status: ('A' for Active; 'I' for Inactive)
REMARK    1  A    between atoms: C_2  and  C_25 
REMARK    2  A    between atoms: N_3  and  N_4 
REMARK       I    between atoms: N_4  and  C_5 
REMARK    3  A    between atoms: C_5  and  C_7 
REMARK    4  A    between atoms: C_8  and  C_9 
REMARK    5  A    between atoms: C_9  and  N_10 
REMARK    6  A    between atoms: N_18  and  C_19 
REMARK    7  A    between atoms: C_23  and  N_24 
ROOT
ATOM      1  C   UNL d   1      28.248 -14.230  -0.983  0.00  0.00     0.153 C 
ATOM      2  C   UNL d   1      28.321 -13.854   0.374  0.00  0.00     0.112 C 
ATOM      3  N   UNL d   1      27.077 -13.430   0.760  0.00  0.00    -0.160 NA
ATOM      4  N   UNL d   1      26.267 -13.477  -0.288  0.00  0.00     0.012 NA
ATOM      5  N   UNL d   1      26.917 -14.061  -1.321  0.00  0.00    -0.207 N 
ENDROOT
BRANCH   1   6
ATOM      6  C   UNL d   1      29.155 -14.849  -1.935  0.00  0.00     0.292 C 
ATOM      7  N   UNL d   1      28.805 -16.100  -2.473  0.00  0.00    -0.241 N 
ATOM      8  H   UNL d   1      28.069 -16.656  -2.062  0.00  0.00     0.192 HD
ATOM      9  O   UNL d   1      30.230 -14.318  -2.167  0.00  0.00    -0.264 OA
BRANCH   7  10
ATOM     10  N   UNL d   1      29.545 -16.614  -3.536  0.00  0.00    -0.176 NA
ATOM     11  C   UNL d   1      29.467 -16.154  -4.757  0.00  0.00     0.062 C 
ATOM     12  C   UNL d   1      28.467 -15.101  -5.164  0.00  0.00     0.073 C 
BRANCH  11  13
ATOM     13  C   UNL d   1      30.366 -16.706  -5.881  0.00  0.00     0.001 A 
ATOM     14  C   UNL d   1      30.936 -15.801  -6.804  0.00  0.00     0.014 A 
ATOM     15  C   UNL d   1      31.713 -16.245  -7.883  0.00  0.00     0.002 A 
ATOM     16  C   UNL d   1      31.947 -17.604  -8.064  0.00  0.00     0.012 A 
ATOM     17  C   UNL d   1      31.433 -18.535  -7.152  0.00  0.00    -0.025 A 
ATOM     18  C   UNL d   1      31.712 -19.901  -7.335  0.00  0.00     0.012 A 
ATOM     19  C   UNL d   1      30.631 -18.097  -6.051  0.00  0.00    -0.014 A 
ATOM     20  C   UNL d   1      31.216 -20.853  -6.449  0.00  0.00     0.001 A 
ATOM     21  C   UNL d   1      30.424 -20.451  -5.383  0.00  0.00     0.001 A 
ATOM     22  C   UNL d   1      30.129 -19.100  -5.197  0.00  0.00     0.013 A 
ENDBRANCH  11  13
ENDBRANCH   7  10
ENDBRANCH   1   6
BRANCH   2  23
ATOM     23  C   UNL d   1      29.428 -13.804   1.429  0.00  0.00     0.297 C 
BRANCH  23  24
ATOM     24  N   UNL d   1      29.127 -14.515   2.744  0.00  0.00    -0.066 N 
ATOM     25  C   UNL d   1      30.351 -14.451   3.632  0.00  0.00     0.235 C 
ATOM     26  C   UNL d   1      30.030 -14.701   5.098  0.00  0.00     0.028 C 
ATOM     27  C   UNL d   1      28.735 -14.099   5.610  0.00  0.00     0.003 C 
ATOM     28  C   UNL d   1      27.565 -14.459   4.728  0.00  0.00     0.028 C 
ATOM     29  C   UNL d   1      27.794 -14.043   3.290  0.00  0.00     0.235 C 
ATOM     30  H   UNL d   1      29.006 -15.517   2.544  0.00  0.00     0.280 HD
ENDBRANCH  23  24
ENDBRANCH   2  23
BRANCH   5  31
ATOM     31  C   UNL d   1      26.334 -14.447  -2.548  0.00  0.00     0.225 A 
ATOM     32  N   UNL d   1      26.263 -15.737  -2.866  0.00  0.00    -0.081 NA
ATOM     33  O   UNL d   1      25.529 -15.739  -4.059  0.00  0.00    -0.103 OA
ATOM     34  N   UNL d   1      25.153 -14.449  -4.425  0.00  0.00    -0.083 NA
ATOM     35  C   UNL d   1      25.661 -13.647  -3.493  0.00  0.00     0.201 A 
BRANCH  35  36
ATOM     36  N   UNL d   1      25.570 -12.305  -3.518  0.00  0.00    -0.379 N 
ATOM     37  H   UNL d   1      24.780 -11.866  -3.983  0.00  0.00     0.158 HD
ATOM     38  H   UNL d   1      26.054 -11.657  -2.897  0.00  0.00     0.158 HD
ENDBRANCH  35  36
ENDBRANCH   5  31
TORSDOF 7
ENDMDL
MODEL 5
REMARK VINA RESULT:    -9.347      3.226      8.871
REMARK INTER + INTRA:         -14.105
REMARK INTER:                 -11.435
REMARK INTRA:                  -2.671
REMARK CONF_INDEPENDENT:        2.088
REMARK UNBOUND:                -2.671
REMARK  7 active torsions:
REMARK  status: ('A' for Active; 'I' for Inactive)
REMARK    1  A    between atoms: C_2  and  C_25 
REMARK    2  A    between atoms: N_3  and  N_4 
REMARK       I    between atoms: N_4  and  C_5 
REMARK    3  A    between atoms: C_5  and  C_7 
REMARK    4  A    between atoms: C_8  and  C_9 
REMARK    5  A    between atoms: C_9  and  N_10 
REMARK    6  A    between atoms: N_18  and  C_19 
REMARK    7  A    between atoms: C_23  and  N_24 
ROOT
ATOM      1  C   UNL d   1      26.305 -11.483  -4.423  0.00  0.00     0.153 C 
ATOM      2  C   UNL d   1      25.874 -10.167  -4.692  0.00  0.00     0.112 C 
ATOM      3  N   UNL d   1      26.352  -9.813  -5.926  0.00  0.00    -0.160 NA
ATOM      4  N   UNL d   1      27.086 -10.810  -6.401  0.00  0.00     0.012 NA
ATOM      5  N   UNL d   1      26.982 -11.870  -5.566  0.00  0.00    -0.207 N 
ENDROOT
BRANCH   1   6
ATOM      6  C   UNL d   1      26.059 -12.457  -3.373  0.00  0.00     0.292 C 
ATOM      7  N   UNL d   1      25.336 -13.618  -3.696  0.00  0.00    -0.241 N 
ATOM      8  H   UNL d   1      24.816 -13.684  -4.559  0.00  0.00     0.192 HD
ATOM      9  O   UNL d   1      26.400 -12.199  -2.228  0.00  0.00    -0.264 OA
BRANCH   7  10
ATOM     10  N   UNL d   1      25.268 -14.658  -2.770  0.00  0.00    -0.176 NA
ATOM     11  C   UNL d   1      26.309 -15.348  -2.385  0.00  0.00     0.062 C 
ATOM     12  C   UNL d   1      27.673 -15.174  -3.006  0.00  0.00     0.073 C 
BRANCH  11  13
ATOM     13  C   UNL d   1      26.193 -16.435  -1.298  0.00  0.00     0.001 A 
ATOM     14  C   UNL d   1      27.374 -16.949  -0.720  0.00  0.00     0.014 A 
ATOM     15  C   UNL d   1      27.339 -17.980   0.230  0.00  0.00     0.002 A 
ATOM     16  C   UNL d   1      26.121 -18.520   0.631  0.00  0.00     0.012 A 
ATOM     17  C   UNL d   1      24.922 -18.015   0.112  0.00  0.00    -0.025 A 
ATOM     18  C   UNL d   1      23.701 -18.551   0.559  0.00  0.00     0.012 A 
ATOM     19  C   UNL d   1      24.944 -16.968  -0.864  0.00  0.00    -0.014 A 
ATOM     20  C   UNL d   1      22.491 -18.075   0.062  0.00  0.00     0.001 A 
ATOM     21  C   UNL d   1      22.490 -17.071  -0.895  0.00  0.00     0.001 A 
ATOM     22  C   UNL d   1      23.695 -16.539  -1.356  0.00  0.00     0.013 A 
ENDBRANCH  11  13
ENDBRANCH   7  10
ENDBRANCH   1   6
BRANCH   2  23
ATOM     23  C   UNL d   1      25.058  -9.116  -3.937  0.00  0.00     0.297 C 
BRANCH  23  24
ATOM     24  N   UNL d   1      24.659  -7.881  -4.738  0.00  0.00    -0.066 N 
ATOM     25  C   UNL d   1      23.297  -8.112  -5.358  0.00  0.00     0.235 C 
ATOM     26  C   UNL d   1      22.611  -6.819  -5.771  0.00  0.00     0.028 C 
ATOM     27  C   UNL d   1      22.787  -5.639  -4.833  0.00  0.00     0.003 C 
ATOM     28  C   UNL d   1      24.240  -5.402  -4.501  0.00  0.00     0.028 C 
ATOM     29  C   UNL d   1      24.891  -6.634  -3.908  0.00  0.00     0.235 C 
ATOM     30  H   UNL d   1      25.297  -7.803  -5.542  0.00  0.00     0.280 HD
ENDBRANCH  23  24
ENDBRANCH   2  23
BRANCH   5  31
ATOM     31  C   UNL d   1      27.474 -13.168  -5.819  0.00  0.00     0.225 A 
ATOM     32  N   UNL d   1      26.655 -14.213  -5.726  0.00  0.00    -0.081 NA
ATOM     33  O   UNL d   1      27.445 -15.286  -6.160  0.00  0.00    -0.103 OA
ATOM     34  N   UNL d   1      28.719 -14.861  -6.527  0.00  0.00    -0.083 NA
ATOM     35  C   UNL d   1      28.741 -13.550  -6.306  0.00  0.00     0.201 A 
BRANCH  35  36
ATOM     36  N   UNL d   1      29.823 -12.771  -6.480  0.00  0.00    -0.379 N 
ATOM     37  H   UNL d   1      30.591 -12.827  -5.816  0.00  0.00     0.158 HD
ATOM     38  H   UNL d   1      30.102 -12.312  -7.346  0.00  0.00     0.158 HD
ENDBRANCH  35  36
ENDBRANCH   5  31
TORSDOF 7
ENDMDL
MODEL 6
REMARK VINA RESULT:    -9.263      2.720      7.599
REMARK INTER + INTRA:         -13.864
REMARK INTER:                 -11.351
REMARK INTRA:                  -2.514
REMARK CONF_INDEPENDENT:        2.088
REMARK UNBOUND:                -2.514
REMARK  7 active torsions:
REMARK  status: ('A' for Active; 'I' for Inactive)
REMARK    1  A    between atoms: C_2  and  C_25 
REMARK    2  A    between atoms: N_3  and  N_4 
REMARK       I    between atoms: N_4  and  C_5 
REMARK    3  A    between atoms: C_5  and  C_7 
REMARK    4  A    between atoms: C_8  and  C_9 
REMARK    5  A    between atoms: C_9  and  N_10 
REMARK    6  A    between atoms: N_18  and  C_19 
REMARK    7  A    between atoms: C_23  and  N_24 
ROOT
ATOM      1  C   UNL d   1      26.374 -14.643  -2.129  0.00  0.00     0.153 C 
ATOM      2  C   UNL d   1      26.270 -14.032  -3.395  0.00  0.00     0.112 C 
ATOM      3  N   UNL d   1      25.500 -14.839  -4.190  0.00  0.00    -0.160 NA
ATOM      4  N   UNL d   1      25.171 -15.924  -3.503  0.00  0.00     0.012 NA
ATOM      5  N   UNL d   1      25.590 -15.780  -2.224  0.00  0.00    -0.207 N 
ENDROOT
BRANCH   1   6
ATOM      6  C   UNL d   1      26.938 -14.269  -0.843  0.00  0.00     0.292 C 
ATOM      7  N   UNL d   1      26.280 -13.282  -0.088  0.00  0.00    -0.241 N 
ATOM      8  H   UNL d   1      25.572 -12.695  -0.504  0.00  0.00     0.192 HD
ATOM      9  O   UNL d   1      28.008 -14.747  -0.499  0.00  0.00    -0.264 OA
BRANCH   7  10
ATOM     10  N   UNL d   1      26.676 -13.056   1.229  0.00  0.00    -0.176 NA
ATOM     11  C   UNL d   1      27.140 -11.911   1.655  0.00  0.00     0.062 C 
ATOM     12  C   UNL d   1      27.417 -10.754   0.729  0.00  0.00     0.073 C 
BRANCH  11  13
ATOM     13  C   UNL d   1      27.488 -11.690   3.140  0.00  0.00     0.001 A 
ATOM     14  C   UNL d   1      27.494 -10.373   3.650  0.00  0.00     0.014 A 
ATOM     15  C   UNL d   1      27.860 -10.099   4.976  0.00  0.00     0.002 A 
ATOM     16  C   UNL d   1      28.225 -11.136   5.828  0.00  0.00     0.012 A 
ATOM     17  C   UNL d   1      28.197 -12.461   5.376  0.00  0.00    -0.025 A 
ATOM     18  C   UNL d   1      28.535 -13.497   6.266  0.00  0.00     0.012 A 
ATOM     19  C   UNL d   1      27.833 -12.755   4.024  0.00  0.00    -0.014 A 
ATOM     20  C   UNL d   1      28.521 -14.825   5.851  0.00  0.00     0.001 A 
ATOM     21  C   UNL d   1      28.185 -15.130   4.540  0.00  0.00     0.001 A 
ATOM     22  C   UNL d   1      27.860 -14.111   3.643  0.00  0.00     0.013 A 
ENDBRANCH  11  13
ENDBRANCH   7  10
ENDBRANCH   1   6
BRANCH   2  23
ATOM     23  C   UNL d   1      26.818 -12.752  -4.031  0.00  0.00     0.297 C 
BRANCH  23  24
ATOM     24  N   UNL d   1      25.785 -11.683  -4.372  0.00  0.00    -0.066 N 
ATOM     25  C   UNL d   1      25.781 -10.633  -3.283  0.00  0.00     0.235 C 
ATOM     26  C   UNL d   1      25.155  -9.322  -3.731  0.00  0.00     0.028 C 
ATOM     27  C   UNL d   1      25.459  -8.886  -5.152  0.00  0.00     0.003 C 
ATOM     28  C   UNL d   1      25.182  -9.988  -6.145  0.00  0.00     0.028 C 
ATOM     29  C   UNL d   1      25.951 -11.250  -5.815  0.00  0.00     0.235 C 
ATOM     30  H   UNL d   1      24.851 -12.114  -4.318  0.00  0.00     0.280 HD
ENDBRANCH  23  24
ENDBRANCH   2  23
BRANCH   5  31
ATOM     31  C   UNL d   1      25.274 -16.642  -1.152  0.00  0.00     0.225 A 
ATOM     32  N   UNL d   1      23.999 -16.883  -0.856  0.00  0.00    -0.081 NA
ATOM     33  O   UNL d   1      24.078 -17.855   0.151  0.00  0.00    -0.103 OA
ATOM     34  N   UNL d   1      25.400 -18.196   0.425  0.00  0.00    -0.083 NA
ATOM     35  C   UNL d   1      26.142 -17.436  -0.376  0.00  0.00     0.201 A 
BRANCH  35  36
ATOM     36  N   UNL d   1      27.487 -17.421  -0.373  0.00  0.00    -0.379 N 
ATOM     37  H   UNL d   1      27.978 -16.589  -0.690  0.00  0.00     0.158 HD
ATOM     38  H   UNL d   1      28.095 -18.043   0.159  0.00  0.00     0.158 HD
ENDBRANCH  35  36
ENDBRANCH   5  31
TORSDOF 7
ENDMDL
MODEL 7
REMARK VINA RESULT:    -8.685      4.742      7.382
REMARK INTER + INTRA:         -13.706
REMARK INTER:                 -10.773
REMARK INTRA:                  -2.933
REMARK CONF_INDEPENDENT:        2.088
REMARK UNBOUND:                -2.933
REMARK  7 active torsions:
REMARK  status: ('A' for Active; 'I' for Inactive)
REMARK    1  A    between atoms: C_2  and  C_25 
REMARK    2  A    between atoms: N_3  and  N_4 
REMARK       I    between atoms: N_4  and  C_5 
REMARK    3  A    between atoms: C_5  and  C_7 
REMARK    4  A    between atoms: C_8  and  C_9 
REMARK    5  A    between atoms: C_9  and  N_10 
REMARK    6  A    between atoms: N_18  and  C_19 
REMARK    7  A    between atoms: C_23  and  N_24 
ROOT
ATOM      1  C   UNL d   1      28.916 -10.689   3.029  0.00  0.00     0.153 C 
ATOM      2  C   UNL d   1      29.896 -10.675   4.043  0.00  0.00     0.112 C 
ATOM      3  N   UNL d   1      29.720  -9.535   4.781  0.00  0.00    -0.160 NA
ATOM      4  N   UNL d   1      28.730  -8.831   4.250  0.00  0.00     0.012 NA
ATOM      5  N   UNL d   1      28.155  -9.556   3.263  0.00  0.00    -0.207 N 
ENDROOT
BRANCH   1   6
ATOM      6  C   UNL d   1      28.494 -11.636   2.011  0.00  0.00     0.292 C 
ATOM      7  N   UNL d   1      27.160 -12.079   2.024  0.00  0.00    -0.241 N 
ATOM      8  H   UNL d   1      26.568 -11.924   2.828  0.00  0.00     0.192 HD
ATOM      9  O   UNL d   1      29.324 -12.091   1.239  0.00  0.00    -0.264 OA
BRANCH   7  10
ATOM     10  N   UNL d   1      26.677 -12.817   0.945  0.00  0.00    -0.176 NA
ATOM     11  C   UNL d   1      26.903 -14.094   0.788  0.00  0.00     0.062 C 
ATOM     12  C   UNL d   1      27.824 -14.872   1.695  0.00  0.00     0.073 C 
BRANCH  11  13
ATOM     13  C   UNL d   1      26.280 -14.882  -0.382  0.00  0.00     0.001 A 
ATOM     14  C   UNL d   1      25.804 -16.190  -0.145  0.00  0.00     0.014 A 
ATOM     15  C   UNL d   1      25.281 -16.980  -1.179  0.00  0.00     0.002 A 
ATOM     16  C   UNL d   1      25.214 -16.479  -2.475  0.00  0.00     0.012 A 
ATOM     17  C   UNL d   1      25.640 -15.173  -2.749  0.00  0.00    -0.025 A 
ATOM     18  C   UNL d   1      25.530 -14.676  -4.059  0.00  0.00     0.012 A 
ATOM     19  C   UNL d   1      26.183 -14.359  -1.705  0.00  0.00    -0.014 A 
ATOM     20  C   UNL d   1      25.945 -13.384  -4.367  0.00  0.00     0.001 A 
ATOM     21  C   UNL d   1      26.488 -12.583  -3.373  0.00  0.00     0.001 A 
ATOM     22  C   UNL d   1      26.615 -13.069  -2.071  0.00  0.00     0.013 A 
ENDBRANCH  11  13
ENDBRANCH   7  10
ENDBRANCH   1   6
BRANCH   2  23
ATOM     23  C   UNL d   1      31.048 -11.595   4.452  0.00  0.00     0.297 C 
BRANCH  23  24
ATOM     24  N   UNL d   1      30.649 -12.904   5.124  0.00  0.00    -0.066 N 
ATOM     25  C   UNL d   1      29.921 -12.598   6.415  0.00  0.00     0.235 C 
ATOM     26  C   UNL d   1      29.090 -13.769   6.915  0.00  0.00     0.028 C 
ATOM     27  C   UNL d   1      28.367 -14.578   5.855  0.00  0.00     0.003 C 
ATOM     28  C   UNL d   1      29.300 -15.007   4.749  0.00  0.00     0.028 C 
ATOM     29  C   UNL d   1      29.997 -13.824   4.110  0.00  0.00     0.235 C 
ATOM     30  H   UNL d   1      31.510 -13.384   5.421  0.00  0.00     0.280 HD
ENDBRANCH  23  24
ENDBRANCH   2  23
BRANCH   5  31
ATOM     31  C   UNL d   1      26.965  -9.222   2.582  0.00  0.00     0.225 A 
ATOM     32  N   UNL d   1      25.840  -9.875   2.863  0.00  0.00    -0.081 NA
ATOM     33  O   UNL d   1      24.874  -9.200   2.105  0.00  0.00    -0.103 OA
ATOM     34  N   UNL d   1      25.434  -8.138   1.399  0.00  0.00    -0.083 NA
ATOM     35  C   UNL d   1      26.732  -8.159   1.686  0.00  0.00     0.201 A 
BRANCH  35  36
ATOM     36  N   UNL d   1      27.639  -7.323   1.150  0.00  0.00    -0.379 N 
ATOM     37  H   UNL d   1      28.542  -7.207   1.604  0.00  0.00     0.158 HD
ATOM     38  H   UNL d   1      27.650  -6.982   0.189  0.00  0.00     0.158 HD
ENDBRANCH  35  36
ENDBRANCH   5  31
TORSDOF 7
ENDMDL
MODEL 8
REMARK VINA RESULT:    -8.624      3.193      7.948
REMARK INTER + INTRA:         -13.707
REMARK INTER:                 -10.712
REMARK INTRA:                  -2.994
REMARK CONF_INDEPENDENT:        2.088
REMARK UNBOUND:                -2.994
REMARK  7 active torsions:
REMARK  status: ('A' for Active; 'I' for Inactive)
REMARK    1  A    between atoms: C_2  and  C_25 
REMARK    2  A    between atoms: N_3  and  N_4 
REMARK       I    between atoms: N_4  and  C_5 
REMARK    3  A    between atoms: C_5  and  C_7 
REMARK    4  A    between atoms: C_8  and  C_9 
REMARK    5  A    between atoms: C_9  and  N_10 
REMARK    6  A    between atoms: N_18  and  C_19 
REMARK    7  A    between atoms: C_23  and  N_24 
ROOT
ATOM      1  C   UNL d   1      27.957 -13.894  -4.458  0.00  0.00     0.153 C 
ATOM      2  C   UNL d   1      28.720 -13.922  -5.644  0.00  0.00     0.112 C 
ATOM      3  N   UNL d   1      28.246 -14.945  -6.423  0.00  0.00    -0.160 NA
ATOM      4  N   UNL d   1      27.281 -15.570  -5.764  0.00  0.00     0.012 NA
ATOM      5  N   UNL d   1      27.011 -14.889  -4.627  0.00  0.00    -0.207 N 
ENDROOT
BRANCH   1   6
ATOM      6  C   UNL d   1      27.874 -13.015  -3.303  0.00  0.00     0.292 C 
ATOM      7  N   UNL d   1      27.423 -13.555  -2.086  0.00  0.00    -0.241 N 
ATOM      8  H   UNL d   1      26.965 -14.455  -2.054  0.00  0.00     0.192 HD
ATOM      9  O   UNL d   1      28.104 -11.824  -3.441  0.00  0.00    -0.264 OA
BRANCH   7  10
ATOM     10  N   UNL d   1      27.532 -12.796  -0.922  0.00  0.00    -0.176 NA
ATOM     11  C   UNL d   1      27.083 -13.191   0.240  0.00  0.00     0.062 C 
ATOM     12  C   UNL d   1      26.280 -14.456   0.411  0.00  0.00     0.073 C 
BRANCH  11  13
ATOM     13  C   UNL d   1      27.300 -12.348   1.512  0.00  0.00     0.001 A 
ATOM     14  C   UNL d   1      27.162 -10.945   1.431  0.00  0.00     0.014 A 
ATOM     15  C   UNL d   1      27.405 -10.118   2.538  0.00  0.00     0.002 A 
ATOM     16  C   UNL d   1      27.785 -10.673   3.755  0.00  0.00     0.012 A 
ATOM     17  C   UNL d   1      27.897 -12.063   3.891  0.00  0.00    -0.025 A 
ATOM     18  C   UNL d   1      28.247 -12.604   5.141  0.00  0.00     0.012 A 
ATOM     19  C   UNL d   1      27.660 -12.918   2.768  0.00  0.00    -0.014 A 
ATOM     20  C   UNL d   1      28.370 -13.980   5.311  0.00  0.00     0.001 A 
ATOM     21  C   UNL d   1      28.159 -14.826   4.232  0.00  0.00     0.001 A 
ATOM     22  C   UNL d   1      27.823 -14.301   2.983  0.00  0.00     0.013 A 
ENDBRANCH  11  13
ENDBRANCH   7  10
ENDBRANCH   1   6
BRANCH   2  23
ATOM     23  C   UNL d   1      29.896 -13.117  -6.198  0.00  0.00     0.297 C 
BRANCH  23  24
ATOM     24  N   UNL d   1      30.274 -13.399  -7.648  0.00  0.00    -0.066 N 
ATOM     25  C   UNL d   1      29.794 -12.256  -8.516  0.00  0.00     0.235 C 
ATOM     26  C   UNL d   1      30.502 -12.200  -9.861  0.00  0.00     0.028 C 
ATOM     27  C   UNL d   1      31.984 -12.525  -9.851  0.00  0.00     0.003 C 
ATOM     28  C   UNL d   1      32.264 -13.828  -9.143  0.00  0.00     0.028 C 
ATOM     29  C   UNL d   1      31.726 -13.828  -7.727  0.00  0.00     0.235 C 
ATOM     30  H   UNL d   1      29.727 -14.212  -7.967  0.00  0.00     0.280 HD
ENDBRANCH  23  24
ENDBRANCH   2  23
BRANCH   5  31
ATOM     31  C   UNL d   1      25.932 -15.142  -3.752  0.00  0.00     0.225 A 
ATOM     32  N   UNL d   1      26.011 -16.147  -2.884  0.00  0.00    -0.081 NA
ATOM     33  O   UNL d   1      24.843 -16.011  -2.122  0.00  0.00    -0.103 OA
ATOM     34  N   UNL d   1      24.094 -14.911  -2.533  0.00  0.00    -0.083 NA
ATOM     35  C   UNL d   1      24.764 -14.379  -3.551  0.00  0.00     0.201 A 
BRANCH  35  36
ATOM     36  N   UNL d   1      24.337 -13.325  -4.270  0.00  0.00    -0.379 N 
ATOM     37  H   UNL d   1      23.646 -13.467  -5.002  0.00  0.00     0.158 HD
ATOM     38  H   UNL d   1      24.415 -12.344  -4.005  0.00  0.00     0.158 HD
ENDBRANCH  35  36
ENDBRANCH   5  31
TORSDOF 7
ENDMDL
MODEL 9
REMARK VINA RESULT:    -8.384      3.138      5.089
REMARK INTER + INTRA:         -13.807
REMARK INTER:                 -10.472
REMARK INTRA:                  -3.335
REMARK CONF_INDEPENDENT:        2.088
REMARK UNBOUND:                -3.335
REMARK  7 active torsions:
REMARK  status: ('A' for Active; 'I' for Inactive)
REMARK    1  A    between atoms: C_2  and  C_25 
REMARK    2  A    between atoms: N_3  and  N_4 
REMARK       I    between atoms: N_4  and  C_5 
REMARK    3  A    between atoms: C_5  and  C_7 
REMARK    4  A    between atoms: C_8  and  C_9 
REMARK    5  A    between atoms: C_9  and  N_10 
REMARK    6  A    between atoms: N_18  and  C_19 
REMARK    7  A    between atoms: C_23  and  N_24 
ROOT
ATOM      1  C   UNL d   1      27.182 -14.017  -1.116  0.00  0.00     0.153 C 
ATOM      2  C   UNL d   1      27.661 -14.428   0.145  0.00  0.00     0.112 C 
ATOM      3  N   UNL d   1      27.730 -15.796   0.142  0.00  0.00    -0.160 NA
ATOM      4  N   UNL d   1      27.277 -16.243  -1.021  0.00  0.00     0.012 NA
ATOM      5  N   UNL d   1      27.046 -15.189  -1.838  0.00  0.00    -0.207 N 
ENDROOT
BRANCH   1   6
ATOM      6  C   UNL d   1      26.988 -12.739  -1.782  0.00  0.00     0.292 C 
ATOM      7  N   UNL d   1      25.847 -12.574  -2.586  0.00  0.00    -0.241 N 
ATOM      8  H   UNL d   1      25.294 -13.368  -2.874  0.00  0.00     0.192 HD
ATOM      9  O   UNL d   1      27.860 -11.887  -1.703  0.00  0.00    -0.264 OA
BRANCH   7  10
ATOM     10  N   UNL d   1      25.530 -11.303  -3.063  0.00  0.00    -0.176 NA
ATOM     11  C   UNL d   1      25.909 -10.857  -4.232  0.00  0.00     0.062 C 
ATOM     12  C   UNL d   1      26.843 -11.629  -5.130  0.00  0.00     0.073 C 
BRANCH  11  13
ATOM     13  C   UNL d   1      25.464  -9.473  -4.745  0.00  0.00     0.001 A 
ATOM     14  C   UNL d   1      25.155  -9.322  -6.115  0.00  0.00     0.014 A 
ATOM     15  C   UNL d   1      24.802  -8.077  -6.655  0.00  0.00     0.002 A 
ATOM     16  C   UNL d   1      24.742  -6.953  -5.839  0.00  0.00     0.012 A 
ATOM     17  C   UNL d   1      25.003  -7.063  -4.467  0.00  0.00    -0.025 A 
ATOM     18  C   UNL d   1      24.902  -5.920  -3.655  0.00  0.00     0.012 A 
ATOM     19  C   UNL d   1      25.373  -8.326  -3.904  0.00  0.00    -0.014 A 
ATOM     20  C   UNL d   1      25.157  -5.993  -2.289  0.00  0.00     0.001 A 
ATOM     21  C   UNL d   1      25.530  -7.205  -1.725  0.00  0.00     0.001 A 
ATOM     22  C   UNL d   1      25.647  -8.344  -2.522  0.00  0.00     0.013 A 
ENDBRANCH  11  13
ENDBRANCH   7  10
ENDBRANCH   1   6
BRANCH   2  23
ATOM     23  C   UNL d   1      28.073 -13.717   1.435  0.00  0.00     0.297 C 
BRANCH  23  24
ATOM     24  N   UNL d   1      28.644 -14.606   2.534  0.00  0.00    -0.066 N 
ATOM     25  C   UNL d   1      30.132 -14.357   2.650  0.00  0.00     0.235 C 
ATOM     26  C   UNL d   1      30.706 -14.821   3.980  0.00  0.00     0.028 C 
ATOM     27  C   UNL d   1      29.838 -14.584   5.202  0.00  0.00     0.003 C 
ATOM     28  C   UNL d   1      28.437 -15.109   5.001  0.00  0.00     0.028 C 
ATOM     29  C   UNL d   1      27.780 -14.508   3.776  0.00  0.00     0.235 C 
ATOM     30  H   UNL d   1      28.570 -15.585   2.222  0.00  0.00     0.280 HD
ENDBRANCH  23  24
ENDBRANCH   2  23
BRANCH   5  31
ATOM     31  C   UNL d   1      26.725 -15.267  -3.210  0.00  0.00     0.225 A 
ATOM     32  N   UNL d   1      25.450 -15.226  -3.591  0.00  0.00    -0.081 NA
ATOM     33  O   UNL d   1      25.530 -15.198  -4.990  0.00  0.00    -0.103 OA
ATOM     34  N   UNL d   1      26.853 -15.200  -5.423  0.00  0.00    -0.083 NA
ATOM     35  C   UNL d   1      27.594 -15.253  -4.320  0.00  0.00     0.201 A 
BRANCH  35  36
ATOM     36  N   UNL d   1      28.937 -15.333  -4.312  0.00  0.00    -0.379 N 
ATOM     37  H   UNL d   1      29.417 -15.586  -3.452  0.00  0.00     0.158 HD
ATOM     38  H   UNL d   1      29.539 -15.434  -5.129  0.00  0.00     0.158 HD
ENDBRANCH  35  36
ENDBRANCH   5  31
TORSDOF 7
ENDMDL
