MODEL 1
REMARK VINA RESULT:    -9.730      0.000      0.000
REMARK INTER + INTRA:         -14.966
REMARK INTER:                 -12.713
REMARK INTRA:                  -2.253
REMARK CONF_INDEPENDENT:        2.983
REMARK UNBOUND:                -2.253
REMARK  10 active torsions:
REMARK  status: ('A' for Active; 'I' for Inactive)
REMARK    1  A    between atoms: C_2  and  N_3 
REMARK    2  A    between atoms: C_4  and  S_5 
REMARK    3  A    between atoms: S_5  and  C_6 
REMARK    4  A    between atoms: C_6  and  C_7 
REMARK       I    between atoms: C_7  and  N_9 
REMARK    5  A    between atoms: N_9  and  C_10 
REMARK    6  A    between atoms: C_18  and  CA_19 
REMARK    7  A    between atoms: CA_19  and  C_20 
REMARK    8  A    between atoms: CA_19  and  N_22 
REMARK    9  A    between atoms: C_20  and  O_21 
REMARK       I    between atoms: N_22  and  C_23 
REMARK   10  A    between atoms: C_23  and  C_25 
ROOT
ATOM      1  N   UNL d   1      26.541 -16.734  -0.722  0.00  0.00    -0.310 N 
ATOM      2  C   UNL d   1      25.929 -17.805  -0.107  0.00  0.00     0.192 A 
ATOM      3  N   UNL d   1      26.865 -18.675   0.209  0.00  0.00    -0.122 NA
ATOM      4  N   UNL d   1      28.088 -18.162  -0.134  0.00  0.00    -0.132 NA
ATOM      5  C   UNL d   1      27.922 -16.978  -0.698  0.00  0.00     0.155 A 
ENDROOT
BRANCH   5   6
ATOM      6  CA  UNL d   1      29.110 -16.146  -1.255  0.00  0.00     0.180 C 
BRANCH   6   7
ATOM      7  C   UNL d   1      30.281 -16.160  -0.230  0.00  0.00     0.197 C 
BRANCH   7   8
ATOM      8  O   UNL d   1      30.822 -17.453   0.028  0.00  0.00    -0.398 OA
ATOM      9  H   UNL d   1      30.151 -17.973   0.505  0.00  0.00     0.209 HD
ENDBRANCH   7   8
ENDBRANCH   6   7
BRANCH   6  10
ATOM     10  N   UNL d   1      29.568 -16.546  -2.599  0.00  0.00    -0.343 N 
ATOM     11  C   UNL d   1      28.962 -16.324  -3.808  0.00  0.00     0.254 C 
ATOM     12  O   UNL d   1      27.862 -15.802  -3.946  0.00  0.00    -0.268 OA
ATOM     13  H   UNL d   1      30.488 -16.903  -2.711  0.00  0.00     0.163 HD
BRANCH  11  14
ATOM     14  C   UNL d   1      29.810 -16.650  -5.008  0.00  0.00     0.053 A 
ATOM     15  C   UNL d   1      30.440 -17.905  -5.044  0.00  0.00     0.019 A 
ATOM     16  C   UNL d   1      31.203 -18.294  -6.154  0.00  0.00     0.001 A 
ATOM     17  C   UNL d   1      31.338 -17.439  -7.246  0.00  0.00     0.002 A 
ATOM     18  C   UNL d   1      30.727 -16.187  -7.221  0.00  0.00     0.025 A 
ATOM     19  C   UNL d   1      29.979 -15.786  -6.104  0.00  0.00     0.049 A 
ATOM     20 CL   UNL d   1      29.339 -14.181  -6.144  0.00  0.00    -0.083 Cl
ENDBRANCH  11  14
ENDBRANCH   6  10
ENDBRANCH   5   6
BRANCH   1  21
ATOM     21  C   UNL d   1      25.929 -15.589  -1.333  0.00  0.00     0.128 C 
ATOM     22  C   UNL d   1      25.239 -15.939  -2.648  0.00  0.00     0.027 C 
ENDBRANCH   1  21
BRANCH   2  23
ATOM     23  S   UNL d   1      24.257 -18.160   0.246  0.00  0.00    -0.081 SA
BRANCH  23  24
ATOM     24  C   UNL d   1      23.102 -17.526  -0.996  0.00  0.00     0.185 C 
BRANCH  24  25
ATOM     25  C   UNL d   1      21.631 -17.904  -0.711  0.00  0.00     0.227 C 
ATOM     26  O   UNL d   1      20.680 -17.366  -1.270  0.00  0.00    -0.273 OA
ATOM     27  N   UNL d   1      21.441 -18.908   0.248  0.00  0.00    -0.356 N 
ATOM     28  H   UNL d   1      22.237 -19.408   0.622  0.00  0.00     0.162 HD
BRANCH  27  29
ATOM     29  C   UNL d   1      20.088 -19.368   0.641  0.00  0.00     0.084 C 
ATOM     30  C   UNL d   1      19.431 -20.272  -0.431  0.00  0.00     0.025 C 
ATOM     31  C   UNL d   1      18.068 -20.824   0.017  0.00  0.00     0.002 C 
ATOM     32  C   UNL d   1      18.161 -21.550   1.356  0.00  0.00     0.000 C 
ATOM     33  C   UNL d   1      18.765 -20.640   2.412  0.00  0.00     0.002 C 
ATOM     34  C   UNL d   1      20.132 -20.122   1.980  0.00  0.00     0.025 C 
ENDBRANCH  27  29
ENDBRANCH  24  25
ENDBRANCH  23  24
ENDBRANCH   2  23
TORSDOF 10
ENDMDL
MODEL 2
REMARK VINA RESULT:    -9.628      2.068      2.693
REMARK INTER + INTRA:         -14.648
REMARK INTER:                 -12.611
REMARK INTRA:                  -2.037
REMARK CONF_INDEPENDENT:        2.983
REMARK UNBOUND:                -2.037
REMARK  10 active torsions:
REMARK  status: ('A' for Active; 'I' for Inactive)
REMARK    1  A    between atoms: C_2  and  N_3 
REMARK    2  A    between atoms: C_4  and  S_5 
REMARK    3  A    between atoms: S_5  and  C_6 
REMARK    4  A    between atoms: C_6  and  C_7 
REMARK       I    between atoms: C_7  and  N_9 
REMARK    5  A    between atoms: N_9  and  C_10 
REMARK    6  A    between atoms: C_18  and  CA_19 
REMARK    7  A    between atoms: CA_19  and  C_20 
REMARK    8  A    between atoms: CA_19  and  N_22 
REMARK    9  A    between atoms: C_20  and  O_21 
REMARK       I    between atoms: N_22  and  C_23 
REMARK   10  A    between atoms: C_23  and  C_25 
ROOT
ATOM      1  N   UNL d   1      25.844 -15.435  -1.644  0.00  0.00    -0.310 N 
ATOM      2  C   UNL d   1      24.602 -15.936  -1.318  0.00  0.00     0.192 A 
ATOM      3  N   UNL d   1      23.710 -15.310  -2.055  0.00  0.00    -0.122 NA
ATOM      4  N   UNL d   1      24.355 -14.452  -2.906  0.00  0.00    -0.132 NA
ATOM      5  C   UNL d   1      25.657 -14.511  -2.682  0.00  0.00     0.155 A 
ENDROOT
BRANCH   5   6
ATOM      6  CA  UNL d   1      26.674 -13.618  -3.443  0.00  0.00     0.180 C 
BRANCH   6   7
ATOM      7  C   UNL d   1      27.212 -12.512  -2.490  0.00  0.00     0.197 C 
BRANCH   7   8
ATOM      8  O   UNL d   1      28.627 -12.342  -2.524  0.00  0.00    -0.398 OA
ATOM      9  H   UNL d   1      28.818 -11.387  -2.504  0.00  0.00     0.209 HD
ENDBRANCH   7   8
ENDBRANCH   6   7
BRANCH   6  10
ATOM     10  N   UNL d   1      27.778 -14.352  -4.090  0.00  0.00    -0.343 N 
ATOM     11  C   UNL d   1      27.729 -15.178  -5.184  0.00  0.00     0.254 C 
ATOM     12  O   UNL d   1      26.698 -15.499  -5.763  0.00  0.00    -0.268 OA
ATOM     13  H   UNL d   1      28.714 -14.153  -3.825  0.00  0.00     0.163 HD
BRANCH  11  14
ATOM     14  C   UNL d   1      29.072 -15.577  -5.733  0.00  0.00     0.053 A 
ATOM     15  C   UNL d   1      29.655 -16.758  -5.245  0.00  0.00     0.019 A 
ATOM     16  C   UNL d   1      30.880 -17.216  -5.749  0.00  0.00     0.001 A 
ATOM     17  C   UNL d   1      31.533 -16.507  -6.754  0.00  0.00     0.002 A 
ATOM     18  C   UNL d   1      30.972 -15.329  -7.243  0.00  0.00     0.025 A 
ATOM     19  C   UNL d   1      29.756 -14.856  -6.728  0.00  0.00     0.049 A 
ATOM     20 CL   UNL d   1      29.196 -13.342  -7.344  0.00  0.00    -0.083 Cl
ENDBRANCH  11  14
ENDBRANCH   6  10
ENDBRANCH   5   6
BRANCH   1  21
ATOM     21  C   UNL d   1      27.111 -15.729  -1.039  0.00  0.00     0.128 C 
ATOM     22  C   UNL d   1      27.002 -15.884   0.476  0.00  0.00     0.027 C 
ENDBRANCH   1  21
BRANCH   2  23
ATOM     23  S   UNL d   1      24.085 -17.132  -0.157  0.00  0.00    -0.081 SA
BRANCH  23  24
ATOM     24  C   UNL d   1      23.687 -18.737  -0.895  0.00  0.00     0.185 C 
BRANCH  24  25
ATOM     25  C   UNL d   1      22.179 -19.072  -0.850  0.00  0.00     0.227 C 
ATOM     26  O   UNL d   1      21.517 -19.319  -1.854  0.00  0.00    -0.273 OA
ATOM     27  N   UNL d   1      21.598 -19.069   0.425  0.00  0.00    -0.356 N 
ATOM     28  H   UNL d   1      22.179 -18.964   1.246  0.00  0.00     0.162 HD
BRANCH  27  29
ATOM     29  C   UNL d   1      20.158 -19.357   0.629  0.00  0.00     0.084 C 
ATOM     30  C   UNL d   1      19.628 -20.455  -0.326  0.00  0.00     0.025 C 
ATOM     31  C   UNL d   1      18.160 -20.819  -0.050  0.00  0.00     0.002 C 
ATOM     32  C   UNL d   1      17.935 -21.211   1.407  0.00  0.00     0.000 C 
ATOM     33  C   UNL d   1      18.417 -20.108   2.333  0.00  0.00     0.002 C 
ATOM     34  C   UNL d   1      19.882 -19.774   2.083  0.00  0.00     0.025 C 
ENDBRANCH  27  29
ENDBRANCH  24  25
ENDBRANCH  23  24
ENDBRANCH   2  23
TORSDOF 10
ENDMDL
MODEL 3
REMARK VINA RESULT:    -9.417      3.685      5.043
REMARK INTER + INTRA:         -14.928
REMARK INTER:                 -12.400
REMARK INTRA:                  -2.528
REMARK CONF_INDEPENDENT:        2.983
REMARK UNBOUND:                -2.528
REMARK  10 active torsions:
REMARK  status: ('A' for Active; 'I' for Inactive)
REMARK    1  A    between atoms: C_2  and  N_3 
REMARK    2  A    between atoms: C_4  and  S_5 
REMARK    3  A    between atoms: S_5  and  C_6 
REMARK    4  A    between atoms: C_6  and  C_7 
REMARK       I    between atoms: C_7  and  N_9 
REMARK    5  A    between atoms: N_9  and  C_10 
REMARK    6  A    between atoms: C_18  and  CA_19 
REMARK    7  A    between atoms: CA_19  and  C_20 
REMARK    8  A    between atoms: CA_19  and  N_22 
REMARK    9  A    between atoms: C_20  and  O_21 
REMARK       I    between atoms: N_22  and  C_23 
REMARK   10  A    between atoms: C_23  and  C_25 
ROOT
ATOM      1  N   UNL d   1      26.285 -15.646  -1.666  0.00  0.00    -0.310 N 
ATOM      2  C   UNL d   1      24.978 -16.014  -1.431  0.00  0.00     0.192 A 
ATOM      3  N   UNL d   1      24.238 -15.505  -2.394  0.00  0.00    -0.122 NA
ATOM      4  N   UNL d   1      25.051 -14.864  -3.291  0.00  0.00    -0.132 NA
ATOM      5  C   UNL d   1      26.304 -14.939  -2.877  0.00  0.00     0.155 A 
ENDROOT
BRANCH   5   6
ATOM      6  CA  UNL d   1      27.475 -14.263  -3.641  0.00  0.00     0.180 C 
BRANCH   6   7
ATOM      7  C   UNL d   1      27.815 -15.092  -4.913  0.00  0.00     0.197 C 
BRANCH   7   8
ATOM      8  O   UNL d   1      26.709 -15.317  -5.782  0.00  0.00    -0.398 OA
ATOM      9  H   UNL d   1      25.903 -14.999  -5.337  0.00  0.00     0.209 HD
ENDBRANCH   7   8
ENDBRANCH   6   7
BRANCH   6  10
ATOM     10  N   UNL d   1      27.261 -12.841  -3.968  0.00  0.00    -0.343 N 
ATOM     11  C   UNL d   1      26.207 -12.267  -4.632  0.00  0.00     0.254 C 
ATOM     12  O   UNL d   1      25.285 -12.894  -5.140  0.00  0.00    -0.268 OA
ATOM     13  H   UNL d   1      27.854 -12.155  -3.564  0.00  0.00     0.163 HD
BRANCH  11  14
ATOM     14  C   UNL d   1      26.179 -10.763  -4.589  0.00  0.00     0.053 A 
ATOM     15  C   UNL d   1      25.530 -10.150  -3.505  0.00  0.00     0.019 A 
ATOM     16  C   UNL d   1      25.510  -8.754  -3.375  0.00  0.00     0.001 A 
ATOM     17  C   UNL d   1      26.147  -7.954  -4.321  0.00  0.00     0.002 A 
ATOM     18  C   UNL d   1      26.787  -8.547  -5.407  0.00  0.00     0.025 A 
ATOM     19  C   UNL d   1      26.793  -9.942  -5.551  0.00  0.00     0.049 A 
ATOM     20 CL   UNL d   1      27.540 -10.564  -6.980  0.00  0.00    -0.083 Cl
ENDBRANCH  11  14
ENDBRANCH   6  10
ENDBRANCH   5   6
BRANCH   1  21
ATOM     21  C   UNL d   1      27.437 -15.874  -0.841  0.00  0.00     0.128 C 
ATOM     22  C   UNL d   1      28.508 -16.689  -1.560  0.00  0.00     0.027 C 
ENDBRANCH   1  21
BRANCH   2  23
ATOM     23  S   UNL d   1      24.226 -16.929  -0.149  0.00  0.00    -0.081 SA
BRANCH  23  24
ATOM     24  C   UNL d   1      23.886 -18.653  -0.591  0.00  0.00     0.185 C 
BRANCH  24  25
ATOM     25  C   UNL d   1      22.377 -18.983  -0.645  0.00  0.00     0.227 C 
ATOM     26  O   UNL d   1      21.771 -19.179  -1.694  0.00  0.00    -0.273 OA
ATOM     27  N   UNL d   1      21.727 -19.036   0.595  0.00  0.00    -0.356 N 
ATOM     28  H   UNL d   1      22.262 -18.972   1.451  0.00  0.00     0.162 HD
BRANCH  27  29
ATOM     29  C   UNL d   1      20.277 -19.327   0.706  0.00  0.00     0.084 C 
ATOM     30  C   UNL d   1      19.804 -20.396  -0.310  0.00  0.00     0.025 C 
ATOM     31  C   UNL d   1      18.322 -20.764  -0.132  0.00  0.00     0.002 C 
ATOM     32  C   UNL d   1      18.012 -21.198   1.297  0.00  0.00     0.000 C 
ATOM     33  C   UNL d   1      18.439 -20.124   2.283  0.00  0.00     0.002 C 
ATOM     34  C   UNL d   1      19.917 -19.786   2.128  0.00  0.00     0.025 C 
ENDBRANCH  27  29
ENDBRANCH  24  25
ENDBRANCH  23  24
ENDBRANCH   2  23
TORSDOF 10
ENDMDL
MODEL 4
REMARK VINA RESULT:    -9.306      1.714      1.992
REMARK INTER + INTRA:         -14.269
REMARK INTER:                 -12.289
REMARK INTRA:                  -1.980
REMARK CONF_INDEPENDENT:        2.983
REMARK UNBOUND:                -1.980
REMARK  10 active torsions:
REMARK  status: ('A' for Active; 'I' for Inactive)
REMARK    1  A    between atoms: C_2  and  N_3 
REMARK    2  A    between atoms: C_4  and  S_5 
REMARK    3  A    between atoms: S_5  and  C_6 
REMARK    4  A    between atoms: C_6  and  C_7 
REMARK       I    between atoms: C_7  and  N_9 
REMARK    5  A    between atoms: N_9  and  C_10 
REMARK    6  A    between atoms: C_18  and  CA_19 
REMARK    7  A    between atoms: CA_19  and  C_20 
REMARK    8  A    between atoms: CA_19  and  N_22 
REMARK    9  A    between atoms: C_20  and  O_21 
REMARK       I    between atoms: N_22  and  C_23 
REMARK   10  A    between atoms: C_23  and  C_25 
ROOT
ATOM      1  N   UNL d   1      26.885 -16.750  -0.875  0.00  0.00    -0.310 N 
ATOM      2  C   UNL d   1      26.165 -17.664  -0.136  0.00  0.00     0.192 A 
ATOM      3  N   UNL d   1      26.996 -18.604   0.261  0.00  0.00    -0.122 NA
ATOM      4  N   UNL d   1      28.263 -18.285  -0.153  0.00  0.00    -0.132 NA
ATOM      5  C   UNL d   1      28.226 -17.158  -0.842  0.00  0.00     0.155 A 
ENDROOT
BRANCH   5   6
ATOM      6  CA  UNL d   1      29.491 -16.544  -1.502  0.00  0.00     0.180 C 
BRANCH   6   7
ATOM      7  C   UNL d   1      30.711 -16.716  -0.552  0.00  0.00     0.197 C 
BRANCH   7   8
ATOM      8  O   UNL d   1      30.959 -18.060  -0.148  0.00  0.00    -0.398 OA
ATOM      9  H   UNL d   1      30.132 -18.424   0.216  0.00  0.00     0.209 HD
ENDBRANCH   7   8
ENDBRANCH   6   7
BRANCH   6  10
ATOM     10  N   UNL d   1      29.789 -17.051  -2.856  0.00  0.00    -0.343 N 
ATOM     11  C   UNL d   1      31.009 -17.353  -3.404  0.00  0.00     0.254 C 
ATOM     12  O   UNL d   1      32.084 -17.165  -2.848  0.00  0.00    -0.268 OA
ATOM     13  H   UNL d   1      29.043 -17.357  -3.434  0.00  0.00     0.163 HD
BRANCH  11  14
ATOM     14  C   UNL d   1      30.945 -18.076  -4.723  0.00  0.00     0.053 A 
ATOM     15  C   UNL d   1      30.796 -17.304  -5.887  0.00  0.00     0.019 A 
ATOM     16  C   UNL d   1      30.780 -17.908  -7.152  0.00  0.00     0.001 A 
ATOM     17  C   UNL d   1      30.925 -19.288  -7.271  0.00  0.00     0.002 A 
ATOM     18  C   UNL d   1      31.065 -20.068  -6.126  0.00  0.00     0.025 A 
ATOM     19  C   UNL d   1      31.061 -19.470  -4.856  0.00  0.00     0.049 A 
ATOM     20 CL   UNL d   1      31.155 -20.540  -3.503  0.00  0.00    -0.083 Cl
ENDBRANCH  11  14
ENDBRANCH   6  10
ENDBRANCH   5   6
BRANCH   1  21
ATOM     21  C   UNL d   1      26.400 -15.611  -1.600  0.00  0.00     0.128 C 
ATOM     22  C   UNL d   1      25.396 -16.002  -2.680  0.00  0.00     0.027 C 
ENDBRANCH   1  21
BRANCH   2  23
ATOM     23  S   UNL d   1      24.472 -17.771   0.276  0.00  0.00    -0.081 SA
BRANCH  23  24
ATOM     24  C   UNL d   1      23.393 -18.042  -1.153  0.00  0.00     0.185 C 
BRANCH  24  25
ATOM     25  C   UNL d   1      21.901 -18.182  -0.773  0.00  0.00     0.227 C 
ATOM     26  O   UNL d   1      21.031 -17.417  -1.178  0.00  0.00    -0.273 OA
ATOM     27  N   UNL d   1      21.595 -19.248   0.084  0.00  0.00    -0.356 N 
ATOM     28  H   UNL d   1      22.306 -19.925   0.324  0.00  0.00     0.162 HD
BRANCH  27  29
ATOM     29  C   UNL d   1      20.211 -19.503   0.550  0.00  0.00     0.084 C 
ATOM     30  C   UNL d   1      19.429 -20.450  -0.394  0.00  0.00     0.025 C 
ATOM     31  C   UNL d   1      18.027 -20.789   0.139  0.00  0.00     0.002 C 
ATOM     32  C   UNL d   1      18.078 -21.355   1.555  0.00  0.00     0.000 C 
ATOM     33  C   UNL d   1      18.808 -20.397   2.482  0.00  0.00     0.002 C 
ATOM     34  C   UNL d   1      20.210 -20.091   1.970  0.00  0.00     0.025 C 
ENDBRANCH  27  29
ENDBRANCH  24  25
ENDBRANCH  23  24
ENDBRANCH   2  23
TORSDOF 10
ENDMDL
MODEL 5
REMARK VINA RESULT:    -9.168      2.630      3.525
REMARK INTER + INTRA:         -14.254
REMARK INTER:                 -12.151
REMARK INTRA:                  -2.103
REMARK CONF_INDEPENDENT:        2.983
REMARK UNBOUND:                -2.103
REMARK  10 active torsions:
REMARK  status: ('A' for Active; 'I' for Inactive)
REMARK    1  A    between atoms: C_2  and  N_3 
REMARK    2  A    between atoms: C_4  and  S_5 
REMARK    3  A    between atoms: S_5  and  C_6 
REMARK    4  A    between atoms: C_6  and  C_7 
REMARK       I    between atoms: C_7  and  N_9 
REMARK    5  A    between atoms: N_9  and  C_10 
REMARK    6  A    between atoms: C_18  and  CA_19 
REMARK    7  A    between atoms: CA_19  and  C_20 
REMARK    8  A    between atoms: CA_19  and  N_22 
REMARK    9  A    between atoms: C_20  and  O_21 
REMARK       I    between atoms: N_22  and  C_23 
REMARK   10  A    between atoms: C_23  and  C_25 
ROOT
ATOM      1  N   UNL d   1      26.552 -14.590  -2.063  0.00  0.00    -0.310 N 
ATOM      2  C   UNL d   1      25.706 -15.600  -1.658  0.00  0.00     0.192 A 
ATOM      3  N   UNL d   1      24.769 -15.732  -2.572  0.00  0.00    -0.122 NA
ATOM      4  N   UNL d   1      25.025 -14.866  -3.603  0.00  0.00    -0.132 NA
ATOM      5  C   UNL d   1      26.108 -14.162  -3.323  0.00  0.00     0.155 A 
ENDROOT
BRANCH   5   6
ATOM      6  CA  UNL d   1      26.643 -13.047  -4.263  0.00  0.00     0.180 C 
BRANCH   6   7
ATOM      7  C   UNL d   1      26.832 -11.730  -3.456  0.00  0.00     0.197 C 
BRANCH   7   8
ATOM      8  O   UNL d   1      28.067 -11.063  -3.698  0.00  0.00    -0.398 OA
ATOM      9  H   UNL d   1      27.886 -10.274  -4.239  0.00  0.00     0.209 HD
ENDBRANCH   7   8
ENDBRANCH   6   7
BRANCH   6  10
ATOM     10  N   UNL d   1      27.867 -13.400  -5.007  0.00  0.00    -0.343 N 
ATOM     11  C   UNL d   1      28.065 -14.439  -5.880  0.00  0.00     0.254 C 
ATOM     12  O   UNL d   1      27.237 -15.309  -6.120  0.00  0.00    -0.268 OA
ATOM     13  H   UNL d   1      28.628 -12.763  -5.019  0.00  0.00     0.163 HD
BRANCH  11  14
ATOM     14  C   UNL d   1      29.356 -14.376  -6.652  0.00  0.00     0.053 A 
ATOM     15  C   UNL d   1      29.624 -13.210  -7.387  0.00  0.00     0.019 A 
ATOM     16  C   UNL d   1      30.829 -13.064  -8.087  0.00  0.00     0.001 A 
ATOM     17  C   UNL d   1      31.787 -14.075  -8.053  0.00  0.00     0.002 A 
ATOM     18  C   UNL d   1      31.531 -15.242  -7.336  0.00  0.00     0.025 A 
ATOM     19  C   UNL d   1      30.318 -15.401  -6.650  0.00  0.00     0.049 A 
ATOM     20 CL   UNL d   1      30.072 -16.921  -5.866  0.00  0.00    -0.083 Cl
ENDBRANCH  11  14
ENDBRANCH   6  10
ENDBRANCH   5   6
BRANCH   1  21
ATOM     21  C   UNL d   1      27.657 -14.014  -1.353  0.00  0.00     0.128 C 
ATOM     22  C   UNL d   1      27.200 -13.159  -0.175  0.00  0.00     0.027 C 
ENDBRANCH   1  21
BRANCH   2  23
ATOM     23  S   UNL d   1      25.674 -16.605  -0.231  0.00  0.00    -0.081 SA
BRANCH  23  24
ATOM     24  C   UNL d   1      24.761 -18.153  -0.453  0.00  0.00     0.185 C 
BRANCH  24  25
ATOM     25  C   UNL d   1      23.228 -17.970  -0.408  0.00  0.00     0.227 C 
ATOM     26  O   UNL d   1      22.666 -16.931  -0.747  0.00  0.00    -0.273 OA
ATOM     27  N   UNL d   1      22.501 -19.074   0.057  0.00  0.00    -0.356 N 
ATOM     28  H   UNL d   1      22.972 -19.952   0.234  0.00  0.00     0.162 HD
BRANCH  27  29
ATOM     29  C   UNL d   1      21.023 -19.045   0.172  0.00  0.00     0.084 C 
ATOM     30  C   UNL d   1      20.318 -19.708  -1.037  0.00  0.00     0.025 C 
ATOM     31  C   UNL d   1      18.791 -19.762  -0.872  0.00  0.00     0.002 C 
ATOM     32  C   UNL d   1      18.382 -20.439   0.432  0.00  0.00     0.000 C 
ATOM     33  C   UNL d   1      19.044 -19.753   1.615  0.00  0.00     0.002 C 
ATOM     34  C   UNL d   1      20.561 -19.733   1.467  0.00  0.00     0.025 C 
ENDBRANCH  27  29
ENDBRANCH  24  25
ENDBRANCH  23  24
ENDBRANCH   2  23
TORSDOF 10
ENDMDL
MODEL 6
REMARK VINA RESULT:    -8.796      4.080      9.933
REMARK INTER + INTRA:         -15.121
REMARK INTER:                 -11.779
REMARK INTRA:                  -3.342
REMARK CONF_INDEPENDENT:        2.983
REMARK UNBOUND:                -3.342
REMARK  10 active torsions:
REMARK  status: ('A' for Active; 'I' for Inactive)
REMARK    1  A    between atoms: C_2  and  N_3 
REMARK    2  A    between atoms: C_4  and  S_5 
REMARK    3  A    between atoms: S_5  and  C_6 
REMARK    4  A    between atoms: C_6  and  C_7 
REMARK       I    between atoms: C_7  and  N_9 
REMARK    5  A    between atoms: N_9  and  C_10 
REMARK    6  A    between atoms: C_18  and  CA_19 
REMARK    7  A    between atoms: CA_19  and  C_20 
REMARK    8  A    between atoms: CA_19  and  N_22 
REMARK    9  A    between atoms: C_20  and  O_21 
REMARK       I    between atoms: N_22  and  C_23 
REMARK   10  A    between atoms: C_23  and  C_25 
ROOT
ATOM      1  N   UNL d   1      28.592 -15.217  -4.263  0.00  0.00    -0.310 N 
ATOM      2  C   UNL d   1      29.090 -15.625  -5.481  0.00  0.00     0.192 A 
ATOM      3  N   UNL d   1      28.107 -15.575  -6.355  0.00  0.00    -0.122 NA
ATOM      4  N   UNL d   1      26.987 -15.079  -5.740  0.00  0.00    -0.132 NA
ATOM      5  C   UNL d   1      27.255 -14.847  -4.467  0.00  0.00     0.155 A 
ENDROOT
BRANCH   5   6
ATOM      6  CA  UNL d   1      26.180 -14.330  -3.471  0.00  0.00     0.180 C 
BRANCH   6   7
ATOM      7  C   UNL d   1      25.136 -13.465  -4.233  0.00  0.00     0.197 C 
BRANCH   7   8
ATOM      8  O   UNL d   1      23.824 -14.022  -4.271  0.00  0.00    -0.398 OA
ATOM      9  H   UNL d   1      23.344 -13.618  -5.015  0.00  0.00     0.209 HD
ENDBRANCH   7   8
ENDBRANCH   6   7
BRANCH   6  10
ATOM     10  N   UNL d   1      25.525 -15.380  -2.669  0.00  0.00    -0.343 N 
ATOM     11  C   UNL d   1      25.557 -15.561  -1.310  0.00  0.00     0.254 C 
ATOM     12  O   UNL d   1      26.229 -14.889  -0.538  0.00  0.00    -0.268 OA
ATOM     13  H   UNL d   1      24.856 -15.974  -3.100  0.00  0.00     0.163 HD
BRANCH  11  14
ATOM     14  C   UNL d   1      24.586 -16.586  -0.788  0.00  0.00     0.053 A 
ATOM     15  C   UNL d   1      23.214 -16.325  -0.938  0.00  0.00     0.019 A 
ATOM     16  C   UNL d   1      22.255 -17.259  -0.520  0.00  0.00     0.001 A 
ATOM     17  C   UNL d   1      22.655 -18.469   0.042  0.00  0.00     0.002 A 
ATOM     18  C   UNL d   1      24.012 -18.739   0.206  0.00  0.00     0.025 A 
ATOM     19  C   UNL d   1      24.974 -17.799  -0.192  0.00  0.00     0.049 A 
ATOM     20 CL   UNL d   1      26.622 -18.200   0.137  0.00  0.00    -0.083 Cl
ENDBRANCH  11  14
ENDBRANCH   6  10
ENDBRANCH   5   6
BRANCH   1  21
ATOM     21  C   UNL d   1      29.253 -15.201  -2.990  0.00  0.00     0.128 C 
ATOM     22  C   UNL d   1      28.809 -16.356  -2.097  0.00  0.00     0.027 C 
ENDBRANCH   1  21
BRANCH   2  23
ATOM     23  S   UNL d   1      30.667 -16.182  -5.980  0.00  0.00    -0.081 SA
BRANCH  23  24
ATOM     24  C   UNL d   1      31.418 -15.168  -7.279  0.00  0.00     0.185 C 
BRANCH  24  25
ATOM     25  C   UNL d   1      30.843 -13.735  -7.344  0.00  0.00     0.227 C 
ATOM     26  O   UNL d   1      31.505 -12.734  -7.088  0.00  0.00    -0.273 OA
ATOM     27  N   UNL d   1      29.493 -13.643  -7.712  0.00  0.00    -0.356 N 
ATOM     28  H   UNL d   1      28.994 -14.468  -8.017  0.00  0.00     0.162 HD
BRANCH  27  29
ATOM     29  C   UNL d   1      28.795 -12.338  -7.804  0.00  0.00     0.084 C 
ATOM     30  C   UNL d   1      27.957 -12.201  -9.098  0.00  0.00     0.025 C 
ATOM     31  C   UNL d   1      27.159 -10.887  -9.147  0.00  0.00     0.002 C 
ATOM     32  C   UNL d   1      26.283 -10.706  -7.912  0.00  0.00     0.000 C 
ATOM     33  C   UNL d   1      27.123 -10.799  -6.649  0.00  0.00     0.002 C 
ATOM     34  C   UNL d   1      27.884 -12.117  -6.585  0.00  0.00     0.025 C 
ENDBRANCH  27  29
ENDBRANCH  24  25
ENDBRANCH  23  24
ENDBRANCH   2  23
TORSDOF 10
ENDMDL
MODEL 7
REMARK VINA RESULT:    -8.480      3.603      5.800
REMARK INTER + INTRA:         -14.178
REMARK INTER:                 -11.463
REMARK INTRA:                  -2.715
REMARK CONF_INDEPENDENT:        2.983
REMARK UNBOUND:                -2.715
REMARK  10 active torsions:
REMARK  status: ('A' for Active; 'I' for Inactive)
REMARK    1  A    between atoms: C_2  and  N_3 
REMARK    2  A    between atoms: C_4  and  S_5 
REMARK    3  A    between atoms: S_5  and  C_6 
REMARK    4  A    between atoms: C_6  and  C_7 
REMARK       I    between atoms: C_7  and  N_9 
REMARK    5  A    between atoms: N_9  and  C_10 
REMARK    6  A    between atoms: C_18  and  CA_19 
REMARK    7  A    between atoms: CA_19  and  C_20 
REMARK    8  A    between atoms: CA_19  and  N_22 
REMARK    9  A    between atoms: C_20  and  O_21 
REMARK       I    between atoms: N_22  and  C_23 
REMARK   10  A    between atoms: C_23  and  C_25 
ROOT
ATOM      1  N   UNL d   1      26.995 -16.299  -1.217  0.00  0.00    -0.310 N 
ATOM      2  C   UNL d   1      25.759 -16.151  -1.810  0.00  0.00     0.192 A 
ATOM      3  N   UNL d   1      25.647 -14.898  -2.197  0.00  0.00    -0.122 NA
ATOM      4  N   UNL d   1      26.817 -14.239  -1.924  0.00  0.00    -0.132 NA
ATOM      5  C   UNL d   1      27.658 -15.069  -1.332  0.00  0.00     0.155 A 
ENDROOT
BRANCH   5   6
ATOM      6  CA  UNL d   1      29.061 -14.621  -0.839  0.00  0.00     0.180 C 
BRANCH   6   7
ATOM      7  C   UNL d   1      29.466 -13.297  -1.550  0.00  0.00     0.197 C 
BRANCH   7   8
ATOM      8  O   UNL d   1      28.575 -12.209  -1.319  0.00  0.00    -0.398 OA
ATOM      9  H   UNL d   1      27.817 -12.541  -0.805  0.00  0.00     0.209 HD
ENDBRANCH   7   8
ENDBRANCH   6   7
BRANCH   6  10
ATOM     10  N   UNL d   1      29.194 -14.507   0.626  0.00  0.00    -0.343 N 
ATOM     11  C   UNL d   1      28.372 -13.856   1.509  0.00  0.00     0.254 C 
ATOM     12  O   UNL d   1      27.404 -13.179   1.184  0.00  0.00    -0.268 OA
ATOM     13  H   UNL d   1      29.868 -15.064   1.096  0.00  0.00     0.163 HD
BRANCH  11  14
ATOM     14  C   UNL d   1      28.659 -14.135   2.960  0.00  0.00     0.053 A 
ATOM     15  C   UNL d   1      27.570 -14.408   3.803  0.00  0.00     0.019 A 
ATOM     16  C   UNL d   1      27.769 -14.726   5.154  0.00  0.00     0.001 A 
ATOM     17  C   UNL d   1      29.059 -14.786   5.677  0.00  0.00     0.002 A 
ATOM     18  C   UNL d   1      30.149 -14.509   4.854  0.00  0.00     0.025 A 
ATOM     19  C   UNL d   1      29.953 -14.171   3.507  0.00  0.00     0.049 A 
ATOM     20 CL   UNL d   1      31.369 -13.762   2.604  0.00  0.00    -0.083 Cl
ENDBRANCH  11  14
ENDBRANCH   6  10
ENDBRANCH   5   6
BRANCH   1  21
ATOM     21  C   UNL d   1      27.532 -17.451  -0.552  0.00  0.00     0.128 C 
ATOM     22  C   UNL d   1      26.817 -17.740   0.765  0.00  0.00     0.027 C 
ENDBRANCH   1  21
BRANCH   2  23
ATOM     23  S   UNL d   1      24.436 -17.260  -2.062  0.00  0.00    -0.081 SA
BRANCH  23  24
ATOM     24  C   UNL d   1      23.887 -18.092  -0.549  0.00  0.00     0.185 C 
BRANCH  24  25
ATOM     25  C   UNL d   1      22.349 -18.153  -0.411  0.00  0.00     0.227 C 
ATOM     26  O   UNL d   1      21.598 -17.305  -0.885  0.00  0.00    -0.273 OA
ATOM     27  N   UNL d   1      21.851 -19.248   0.309  0.00  0.00    -0.356 N 
ATOM     28  H   UNL d   1      22.476 -19.987   0.603  0.00  0.00     0.162 HD
BRANCH  27  29
ATOM     29  C   UNL d   1      20.399 -19.436   0.540  0.00  0.00     0.084 C 
ATOM     30  C   UNL d   1      19.753 -20.404  -0.483  0.00  0.00     0.025 C 
ATOM     31  C   UNL d   1      18.269 -20.672  -0.185  0.00  0.00     0.002 C 
ATOM     32  C   UNL d   1      18.055 -21.168   1.242  0.00  0.00     0.000 C 
ATOM     33  C   UNL d   1      18.653 -20.190   2.238  0.00  0.00     0.002 C 
ATOM     34  C   UNL d   1      20.133 -19.953   1.963  0.00  0.00     0.025 C 
ENDBRANCH  27  29
ENDBRANCH  24  25
ENDBRANCH  23  24
ENDBRANCH   2  23
TORSDOF 10
ENDMDL
MODEL 8
REMARK VINA RESULT:    -7.443      3.920      8.946
REMARK INTER + INTRA:         -14.201
REMARK INTER:                 -10.426
REMARK INTRA:                  -3.776
REMARK CONF_INDEPENDENT:        2.983
REMARK UNBOUND:                -3.776
REMARK  10 active torsions:
REMARK  status: ('A' for Active; 'I' for Inactive)
REMARK    1  A    between atoms: C_2  and  N_3 
REMARK    2  A    between atoms: C_4  and  S_5 
REMARK    3  A    between atoms: S_5  and  C_6 
REMARK    4  A    between atoms: C_6  and  C_7 
REMARK       I    between atoms: C_7  and  N_9 
REMARK    5  A    between atoms: N_9  and  C_10 
REMARK    6  A    between atoms: C_18  and  CA_19 
REMARK    7  A    between atoms: CA_19  and  C_20 
REMARK    8  A    between atoms: CA_19  and  N_22 
REMARK    9  A    between atoms: C_20  and  O_21 
REMARK       I    between atoms: N_22  and  C_23 
REMARK   10  A    between atoms: C_23  and  C_25 
ROOT
ATOM      1  N   UNL d   1      28.234 -13.857  -4.882  0.00  0.00    -0.310 N 
ATOM      2  C   UNL d   1      28.733 -14.580  -5.944  0.00  0.00     0.192 A 
ATOM      3  N   UNL d   1      27.903 -15.575  -6.178  0.00  0.00    -0.122 NA
ATOM      4  N   UNL d   1      26.835 -15.476  -5.326  0.00  0.00    -0.132 NA
ATOM      5  C   UNL d   1      27.007 -14.435  -4.529  0.00  0.00     0.155 A 
ENDROOT
BRANCH   5   6
ATOM      6  CA  UNL d   1      25.999 -14.072  -3.404  0.00  0.00     0.180 C 
BRANCH   6   7
ATOM      7  C   UNL d   1      24.911 -13.114  -3.968  0.00  0.00     0.197 C 
BRANCH   7   8
ATOM      8  O   UNL d   1      23.619 -13.700  -4.097  0.00  0.00    -0.398 OA
ATOM      9  H   UNL d   1      23.326 -13.590  -5.019  0.00  0.00     0.209 HD
ENDBRANCH   7   8
ENDBRANCH   6   7
BRANCH   6  10
ATOM     10  N   UNL d   1      25.392 -15.230  -2.721  0.00  0.00    -0.343 N 
ATOM     11  C   UNL d   1      25.599 -15.669  -1.438  0.00  0.00     0.254 C 
ATOM     12  O   UNL d   1      26.413 -15.183  -0.663  0.00  0.00    -0.268 OA
ATOM     13  H   UNL d   1      24.633 -15.704  -3.151  0.00  0.00     0.163 HD
BRANCH  11  14
ATOM     14  C   UNL d   1      24.643 -16.736  -0.975  0.00  0.00     0.053 A 
ATOM     15  C   UNL d   1      23.277 -16.557  -1.252  0.00  0.00     0.019 A 
ATOM     16  C   UNL d   1      22.339 -17.536  -0.895  0.00  0.00     0.001 A 
ATOM     17  C   UNL d   1      22.752 -18.708  -0.268  0.00  0.00     0.002 A 
ATOM     18  C   UNL d   1      24.103 -18.896   0.021  0.00  0.00     0.025 A 
ATOM     19  C   UNL d   1      25.043 -17.911  -0.316  0.00  0.00     0.049 A 
ATOM     20 CL   UNL d   1      26.675 -18.210   0.167  0.00  0.00    -0.083 Cl
ENDBRANCH  11  14
ENDBRANCH   6  10
ENDBRANCH   5   6
BRANCH   1  21
ATOM     21  C   UNL d   1      28.836 -12.748  -4.198  0.00  0.00     0.128 C 
ATOM     22  C   UNL d   1      29.585 -13.185  -2.943  0.00  0.00     0.027 C 
ENDBRANCH   1  21
BRANCH   2  23
ATOM     23  S   UNL d   1      30.181 -14.413  -6.904  0.00  0.00    -0.081 SA
BRANCH  23  24
ATOM     24  C   UNL d   1      31.401 -15.719  -6.611  0.00  0.00     0.185 C 
BRANCH  24  25
ATOM     25  C   UNL d   1      31.379 -16.262  -5.164  0.00  0.00     0.227 C 
ATOM     26  O   UNL d   1      32.325 -16.149  -4.390  0.00  0.00    -0.273 OA
ATOM     27  N   UNL d   1      30.197 -16.911  -4.782  0.00  0.00    -0.356 N 
ATOM     28  H   UNL d   1      29.394 -16.905  -5.397  0.00  0.00     0.162 HD
BRANCH  27  29
ATOM     29  C   UNL d   1      30.030 -17.499  -3.431  0.00  0.00     0.084 C 
ATOM     30  C   UNL d   1      31.277 -18.291  -2.967  0.00  0.00     0.025 C 
ATOM     31  C   UNL d   1      31.139 -18.819  -1.530  0.00  0.00     0.002 C 
ATOM     32  C   UNL d   1      30.805 -17.705  -0.543  0.00  0.00     0.000 C 
ATOM     33  C   UNL d   1      29.555 -16.962  -0.984  0.00  0.00     0.002 C 
ATOM     34  C   UNL d   1      29.708 -16.409  -2.395  0.00  0.00     0.025 C 
ENDBRANCH  27  29
ENDBRANCH  24  25
ENDBRANCH  23  24
ENDBRANCH   2  23
TORSDOF 10
ENDMDL
MODEL 9
REMARK VINA RESULT:    -7.054      4.811     10.040
REMARK INTER + INTRA:         -14.170
REMARK INTER:                 -10.037
REMARK INTRA:                  -4.133
REMARK CONF_INDEPENDENT:        2.983
REMARK UNBOUND:                -4.133
REMARK  10 active torsions:
REMARK  status: ('A' for Active; 'I' for Inactive)
REMARK    1  A    between atoms: C_2  and  N_3 
REMARK    2  A    between atoms: C_4  and  S_5 
REMARK    3  A    between atoms: S_5  and  C_6 
REMARK    4  A    between atoms: C_6  and  C_7 
REMARK       I    between atoms: C_7  and  N_9 
REMARK    5  A    between atoms: N_9  and  C_10 
REMARK    6  A    between atoms: C_18  and  CA_19 
REMARK    7  A    between atoms: CA_19  and  C_20 
REMARK    8  A    between atoms: CA_19  and  N_22 
REMARK    9  A    between atoms: C_20  and  O_21 
REMARK       I    between atoms: N_22  and  C_23 
REMARK   10  A    between atoms: C_23  and  C_25 
ROOT
ATOM      1  N   UNL d   1      29.055 -14.293  -4.832  0.00  0.00    -0.310 N 
ATOM      2  C   UNL d   1      29.275 -14.850  -6.073  0.00  0.00     0.192 A 
ATOM      3  N   UNL d   1      28.107 -15.199  -6.570  0.00  0.00    -0.122 NA
ATOM      4  N   UNL d   1      27.119 -14.820  -5.699  0.00  0.00    -0.132 NA
ATOM      5  C   UNL d   1      27.667 -14.261  -4.634  0.00  0.00     0.155 A 
ENDROOT
BRANCH   5   6
ATOM      6  CA  UNL d   1      26.824 -13.768  -3.426  0.00  0.00     0.180 C 
BRANCH   6   7
ATOM      7  C   UNL d   1      25.479 -13.176  -3.936  0.00  0.00     0.197 C 
BRANCH   7   8
ATOM      8  O   UNL d   1      24.700 -14.074  -4.721  0.00  0.00    -0.398 OA
ATOM      9  H   UNL d   1      25.162 -14.931  -4.750  0.00  0.00     0.209 HD
ENDBRANCH   7   8
ENDBRANCH   6   7
BRANCH   6  10
ATOM     10  N   UNL d   1      26.602 -14.778  -2.374  0.00  0.00    -0.343 N 
ATOM     11  C   UNL d   1      25.870 -15.936  -2.444  0.00  0.00     0.254 C 
ATOM     12  O   UNL d   1      25.201 -16.274  -3.412  0.00  0.00    -0.268 OA
ATOM     13  H   UNL d   1      27.135 -14.733  -1.538  0.00  0.00     0.163 HD
BRANCH  11  14
ATOM     14  C   UNL d   1      26.044 -16.863  -1.270  0.00  0.00     0.053 A 
ATOM     15  C   UNL d   1      27.353 -17.193  -0.885  0.00  0.00     0.019 A 
ATOM     16  C   UNL d   1      27.589 -18.010   0.230  0.00  0.00     0.001 A 
ATOM     17  C   UNL d   1      26.521 -18.498   0.980  0.00  0.00     0.002 A 
ATOM     18  C   UNL d   1      25.216 -18.186   0.604  0.00  0.00     0.025 A 
ATOM     19  C   UNL d   1      24.975 -17.385  -0.522  0.00  0.00     0.049 A 
ATOM     20 CL   UNL d   1      23.318 -17.134  -0.946  0.00  0.00    -0.083 Cl
ENDBRANCH  11  14
ENDBRANCH   6  10
ENDBRANCH   5   6
BRANCH   1  21
ATOM     21  C   UNL d   1      30.023 -13.859  -3.866  0.00  0.00     0.128 C 
ATOM     22  C   UNL d   1      30.332 -14.940  -2.835  0.00  0.00     0.027 C 
ENDBRANCH   1  21
BRANCH   2  23
ATOM     23  S   UNL d   1      30.733 -15.166  -6.978  0.00  0.00    -0.081 SA
BRANCH  23  24
ATOM     24  C   UNL d   1      31.304 -13.752  -7.954  0.00  0.00     0.185 C 
BRANCH  24  25
ATOM     25  C   UNL d   1      30.231 -12.652  -8.120  0.00  0.00     0.227 C 
ATOM     26  O   UNL d   1      30.493 -11.452  -8.105  0.00  0.00    -0.273 OA
ATOM     27  N   UNL d   1      28.917 -13.110  -8.281  0.00  0.00    -0.356 N 
ATOM     28  H   UNL d   1      28.736 -14.099  -8.392  0.00  0.00     0.162 HD
BRANCH  27  29
ATOM     29  C   UNL d   1      27.776 -12.176  -8.436  0.00  0.00     0.084 C 
ATOM     30  C   UNL d   1      27.557 -11.290  -7.184  0.00  0.00     0.025 C 
ATOM     31  C   UNL d   1      26.435 -10.258  -7.382  0.00  0.00     0.002 C 
ATOM     32  C   UNL d   1      26.664  -9.398  -8.621  0.00  0.00     0.000 C 
ATOM     33  C   UNL d   1      26.834 -10.275  -9.850  0.00  0.00     0.002 C 
ATOM     34  C   UNL d   1      27.970 -11.274  -9.666  0.00  0.00     0.025 C 
ENDBRANCH  27  29
ENDBRANCH  24  25
ENDBRANCH  23  24
ENDBRANCH   2  23
TORSDOF 10
ENDMDL
