MODEL 1
REMARK VINA RESULT:    -5.989      0.000      0.000
REMARK INTER + INTRA:          -8.037
REMARK INTER:                  -7.182
REMARK INTRA:                  -0.855
REMARK CONF_INDEPENDENT:        1.193
REMARK UNBOUND:                -0.855
REMARK  4 active torsions:
REMARK  status: ('A' for Active; 'I' for Inactive)
REMARK       I    between atoms: N_2  and  C_3 
REMARK       I    between atoms: C_3  and  N_5 
REMARK    1  A    between atoms: N_5  and  N_6 
REMARK    2  A    between atoms: N_6  and  C_7 
REMARK    3  A    between atoms: C_10  and  O_11 
REMARK    4  A    between atoms: O_11  and  C_12 
ROOT
ATOM      1  C   UNL d   1      23.769 -17.695  -0.752  0.00  0.00     0.048 A 
ATOM      2  C   UNL d   1      24.651 -18.277   0.176  0.00  0.00     0.034 A 
ATOM      3  C   UNL d   1      26.022 -17.955   0.205  0.00  0.00     0.039 A 
ATOM      4  C   UNL d   1      26.562 -17.072  -0.731  0.00  0.00     0.078 A 
ATOM      5  C   UNL d   1      25.692 -16.460  -1.632  0.00  0.00     0.039 A 
ATOM      6  C   UNL d   1      24.315 -16.766  -1.641  0.00  0.00     0.034 A 
ENDROOT
BRANCH   1   7
ATOM      7  N   UNL d   1      22.413 -18.098  -0.735  0.00  0.00    -0.297 N 
ATOM      8  H   UNL d   1      22.004 -18.207  -1.671  0.00  0.00     0.187 HD
BRANCH   7   9
ATOM      9  N   UNL d   1      22.018 -19.148   0.146  0.00  0.00    -0.251 N 
ATOM     10  C   UNL d   1      20.794 -19.750  -0.153  0.00  0.00     0.334 C 
ATOM     11  N   UNL d   1      20.236 -20.451   0.894  0.00  0.00    -0.346 N 
ATOM     12  O   UNL d   1      20.274 -19.700  -1.271  0.00  0.00    -0.246 OA
ATOM     13  C   UNL d   1      19.002 -21.200   0.728  0.00  0.00     0.151 C 
ATOM     14  H   UNL d   1      20.643 -20.401   1.815  0.00  0.00     0.163 HD
ATOM     15  H   UNL d   1      22.246 -18.967   1.116  0.00  0.00     0.191 HD
ENDBRANCH   7   9
ENDBRANCH   1   7
BRANCH   4  16
ATOM     16  O   UNL d   1      27.920 -16.905  -0.678  0.00  0.00    -0.255 OA
BRANCH  16  17
ATOM     17  C   UNL d   1      28.409 -15.769   0.024  0.00  0.00     0.530 C 
ATOM     18  F   UNL d   1      27.770 -15.600   1.203  0.00  0.00    -0.144 F 
ATOM     19  F   UNL d   1      29.737 -15.878   0.245  0.00  0.00    -0.144 F 
ATOM     20  F   UNL d   1      28.200 -14.658  -0.720  0.00  0.00    -0.144 F 
ENDBRANCH  16  17
ENDBRANCH   4  16
TORSDOF 4
ENDMDL
