MODEL 1
REMARK VINA RESULT:    -8.696      0.000      0.000
REMARK INTER + INTRA:         -11.338
REMARK INTER:                 -10.485
REMARK INTRA:                  -0.853
REMARK CONF_INDEPENDENT:        1.790
REMARK UNBOUND:                -0.853
REMARK  6 active torsions:
REMARK  status: ('A' for Active; 'I' for Inactive)
REMARK    1  A    between atoms: O_2  and  C_3 
REMARK    2  A    between atoms: C_5  and  O_6 
REMARK    3  A    between atoms: C_9  and  C_10 
REMARK       I    between atoms: C_10  and  N_12 
REMARK       I    between atoms: C_13  and  N_14 
REMARK       I    between atoms: C_13  and  N_22 
REMARK    4  A    between atoms: N_14  and  C_15 
REMARK    5  A    between atoms: C_15  and  C_16 
REMARK    6  A    between atoms: N_22  and  C_23 
ROOT
ATOM      1  C   UNL d   1      26.788 -14.268   0.494  0.00  0.00     0.294 C 
ATOM      2  O   UNL d   1      26.819 -13.144  -0.005  0.00  0.00    -0.265 OA
ATOM      3  N   UNL d   1      27.200 -14.703   1.745  0.00  0.00    -0.023 NA
ATOM      4  C   UNL d   1      27.691 -13.908   2.671  0.00  0.00     0.704 C 
ATOM      5  N   UNL d   1      27.873 -12.545   2.645  0.00  0.00    -0.220 N 
ATOM      6  N   UNL d   1      28.152 -14.455   3.871  0.00  0.00    -0.190 N 
ATOM      7  H   UNL d   1      28.551 -12.164   3.289  0.00  0.00     0.178 HD
ATOM      8  H   UNL d   1      28.018 -15.455   3.963  0.00  0.00     0.184 HD
ENDROOT
BRANCH   5   9
ATOM      9  C   UNL d   1      27.634 -11.734   1.499  0.00  0.00     0.178 C 
BRANCH   9  10
ATOM     10  C   UNL d   1      27.124 -10.373   1.660  0.00  0.00    -0.022 A 
ATOM     11  C   UNL d   1      27.157  -9.475   0.617  0.00  0.00     0.012 A 
ATOM     12  C   UNL d   1      26.693  -8.204   0.855  0.00  0.00     0.020 A 
ATOM     13  C   UNL d   1      26.275  -7.885   2.141  0.00  0.00     0.116 A 
ATOM     14  N   UNL d   1      26.325  -8.719   3.202  0.00  0.00    -0.273 NA
ATOM     15  C   UNL d   1      26.767  -9.954   2.943  0.00  0.00     0.124 A 
ENDBRANCH   9  10
ENDBRANCH   5   9
BRANCH   6  16
ATOM     16  C   UNL d   1      28.479 -13.828   5.105  0.00  0.00     0.049 A 
ATOM     17  C   UNL d   1      27.801 -12.677   5.534  0.00  0.00     0.030 A 
ATOM     18  C   UNL d   1      28.109 -12.066   6.765  0.00  0.00     0.009 A 
ATOM     19  C   UNL d   1      29.037 -12.641   7.647  0.00  0.00    -0.056 A 
ATOM     20  C   UNL d   1      29.254 -12.050   9.013  0.00  0.00     0.049 C 
ATOM     21  C   UNL d   1      29.727 -13.787   7.235  0.00  0.00    -0.054 A 
ATOM     22  C   UNL d   1      30.789 -14.450   8.067  0.00  0.00     0.049 C 
ATOM     23  C   UNL d   1      29.449 -14.345   5.973  0.00  0.00     0.037 A 
ENDBRANCH   6  16
BRANCH   1  24
ATOM     24  C   UNL d   1      26.281 -15.129  -0.554  0.00  0.00     0.040 A 
ATOM     25  C   UNL d   1      25.789 -16.404  -0.169  0.00  0.00     0.054 A 
ATOM     26  C   UNL d   1      25.159 -17.235  -1.059  0.00  0.00     0.071 A 
ATOM     27  C   UNL d   1      25.154 -16.828  -2.393  0.00  0.00     0.073 A 
ATOM     28  C   UNL d   1      25.668 -15.565  -2.780  0.00  0.00     0.071 A 
ATOM     29  C   UNL d   1      26.204 -14.695  -1.845  0.00  0.00     0.054 A 
BRANCH  26  30
ATOM     30  O   UNL d   1      24.533 -18.397  -0.695  0.00  0.00    -0.356 OA
ATOM     31  C   UNL d   1      23.094 -18.364  -0.631  0.00  0.00     0.210 C 
ENDBRANCH  26  30
BRANCH  28  32
ATOM     32  O   UNL d   1      25.529 -15.195  -4.091  0.00  0.00    -0.356 OA
ATOM     33  C   UNL d   1      25.117 -13.840  -4.274  0.00  0.00     0.210 C 
ENDBRANCH  28  32
ENDBRANCH   1  24
TORSDOF 6
ENDMDL
MODEL 2
REMARK VINA RESULT:    -8.290      0.855      2.418
REMARK INTER + INTRA:         -10.940
REMARK INTER:                 -10.079
REMARK INTRA:                  -0.860
REMARK CONF_INDEPENDENT:        1.790
REMARK UNBOUND:                -0.860
REMARK  6 active torsions:
REMARK  status: ('A' for Active; 'I' for Inactive)
REMARK    1  A    between atoms: O_2  and  C_3 
REMARK    2  A    between atoms: C_5  and  O_6 
REMARK    3  A    between atoms: C_9  and  C_10 
REMARK       I    between atoms: C_10  and  N_12 
REMARK       I    between atoms: C_13  and  N_14 
REMARK       I    between atoms: C_13  and  N_22 
REMARK    4  A    between atoms: N_14  and  C_15 
REMARK    5  A    between atoms: C_15  and  C_16 
REMARK    6  A    between atoms: N_22  and  C_23 
ROOT
ATOM      1  C   UNL d   1      26.622 -14.349   0.561  0.00  0.00     0.294 C 
ATOM      2  O   UNL d   1      26.336 -13.213   0.182  0.00  0.00    -0.265 OA
ATOM      3  N   UNL d   1      27.413 -14.765   1.621  0.00  0.00    -0.023 NA
ATOM      4  C   UNL d   1      27.993 -13.942   2.469  0.00  0.00     0.704 C 
ATOM      5  N   UNL d   1      27.935 -12.569   2.532  0.00  0.00    -0.220 N 
ATOM      6  N   UNL d   1      28.835 -14.456   3.457  0.00  0.00    -0.190 N 
ATOM      7  H   UNL d   1      28.686 -12.104   3.020  0.00  0.00     0.178 HD
ATOM      8  H   UNL d   1      28.896 -15.467   3.482  0.00  0.00     0.184 HD
ENDROOT
BRANCH   5   9
ATOM      9  C   UNL d   1      27.274 -11.758   1.565  0.00  0.00     0.178 C 
BRANCH   9  10
ATOM     10  C   UNL d   1      27.018 -10.346   1.848  0.00  0.00    -0.022 A 
ATOM     11  C   UNL d   1      27.081  -9.399   0.851  0.00  0.00     0.012 A 
ATOM     12  C   UNL d   1      26.864  -8.089   1.201  0.00  0.00     0.020 A 
ATOM     13  C   UNL d   1      26.652  -7.791   2.541  0.00  0.00     0.116 A 
ATOM     14  N   UNL d   1      26.683  -8.688   3.550  0.00  0.00    -0.273 NA
ATOM     15  C   UNL d   1      26.882  -9.959   3.183  0.00  0.00     0.124 A 
ENDBRANCH   9  10
ENDBRANCH   5   9
BRANCH   6  16
ATOM     16  C   UNL d   1      29.367 -13.844   4.626  0.00  0.00     0.049 A 
ATOM     17  C   UNL d   1      30.290 -12.792   4.535  0.00  0.00     0.030 A 
ATOM     18  C   UNL d   1      30.803 -12.171   5.690  0.00  0.00     0.009 A 
ATOM     19  C   UNL d   1      30.338 -12.519   6.967  0.00  0.00    -0.056 A 
ATOM     20  C   UNL d   1      30.796 -11.754   8.179  0.00  0.00     0.049 C 
ATOM     21  C   UNL d   1      29.420 -13.571   7.079  0.00  0.00    -0.054 A 
ATOM     22  C   UNL d   1      28.904 -14.074   8.398  0.00  0.00     0.049 C 
ATOM     23  C   UNL d   1      28.969 -14.220   5.915  0.00  0.00     0.037 A 
ENDBRANCH   6  16
BRANCH   1  24
ATOM     24  C   UNL d   1      26.006 -15.232  -0.406  0.00  0.00     0.040 A 
ATOM     25  C   UNL d   1      25.914 -14.768  -1.746  0.00  0.00     0.054 A 
ATOM     26  C   UNL d   1      25.481 -15.579  -2.763  0.00  0.00     0.071 A 
ATOM     27  C   UNL d   1      25.000 -16.835  -2.395  0.00  0.00     0.073 A 
ATOM     28  C   UNL d   1      25.069 -17.288  -1.054  0.00  0.00     0.071 A 
ATOM     29  C   UNL d   1      25.610 -16.490  -0.059  0.00  0.00     0.054 A 
BRANCH  26  30
ATOM     30  O   UNL d   1      25.528 -15.223  -4.085  0.00  0.00    -0.356 OA
ATOM     31  C   UNL d   1      25.572 -13.812  -4.373  0.00  0.00     0.210 C 
ENDBRANCH  26  30
BRANCH  28  32
ATOM     32  O   UNL d   1      24.674 -18.572  -0.794  0.00  0.00    -0.356 OA
ATOM     33  C   UNL d   1      23.328 -18.684  -0.325  0.00  0.00     0.210 C 
ENDBRANCH  28  32
ENDBRANCH   1  24
TORSDOF 6
ENDMDL
MODEL 3
REMARK VINA RESULT:    -7.807      3.195      5.771
REMARK INTER + INTRA:         -10.344
REMARK INTER:                  -9.597
REMARK INTRA:                  -0.748
REMARK CONF_INDEPENDENT:        1.790
REMARK UNBOUND:                -0.748
REMARK  6 active torsions:
REMARK  status: ('A' for Active; 'I' for Inactive)
REMARK    1  A    between atoms: O_2  and  C_3 
REMARK    2  A    between atoms: C_5  and  O_6 
REMARK    3  A    between atoms: C_9  and  C_10 
REMARK       I    between atoms: C_10  and  N_12 
REMARK       I    between atoms: C_13  and  N_14 
REMARK       I    between atoms: C_13  and  N_22 
REMARK    4  A    between atoms: N_14  and  C_15 
REMARK    5  A    between atoms: C_15  and  C_16 
REMARK    6  A    between atoms: N_22  and  C_23 
ROOT
ATOM      1  C   UNL d   1      28.452 -16.083  -1.813  0.00  0.00     0.294 C 
ATOM      2  O   UNL d   1      27.828 -17.131  -1.644  0.00  0.00    -0.265 OA
ATOM      3  N   UNL d   1      28.660 -15.018  -0.951  0.00  0.00    -0.023 NA
ATOM      4  C   UNL d   1      28.219 -14.982   0.289  0.00  0.00     0.704 C 
ATOM      5  N   UNL d   1      27.522 -15.935   0.996  0.00  0.00    -0.220 N 
ATOM      6  N   UNL d   1      28.414 -13.830   1.053  0.00  0.00    -0.190 N 
ATOM      7  H   UNL d   1      26.991 -15.612   1.791  0.00  0.00     0.178 HD
ATOM      8  H   UNL d   1      28.949 -13.100   0.596  0.00  0.00     0.184 HD
ENDROOT
BRANCH   5   9
ATOM      9  C   UNL d   1      27.050 -17.154   0.431  0.00  0.00     0.178 C 
BRANCH   9  10
ATOM     10  C   UNL d   1      25.643 -17.289   0.055  0.00  0.00    -0.022 A 
ATOM     11  C   UNL d   1      24.973 -18.479   0.229  0.00  0.00     0.012 A 
ATOM     12  C   UNL d   1      23.664 -18.538  -0.182  0.00  0.00     0.020 A 
ATOM     13  C   UNL d   1      23.113 -17.421  -0.797  0.00  0.00     0.116 A 
ATOM     14  N   UNL d   1      23.779 -16.277  -1.066  0.00  0.00    -0.273 NA
ATOM     15  C   UNL d   1      25.048 -16.237  -0.646  0.00  0.00     0.124 A 
ENDBRANCH   9  10
ENDBRANCH   5   9
BRANCH   6  16
ATOM     16  C   UNL d   1      28.278 -13.618   2.453  0.00  0.00     0.049 A 
ATOM     17  C   UNL d   1      28.403 -14.679   3.361  0.00  0.00     0.030 A 
ATOM     18  C   UNL d   1      28.289 -14.468   4.749  0.00  0.00     0.009 A 
ATOM     19  C   UNL d   1      28.140 -13.176   5.275  0.00  0.00    -0.056 A 
ATOM     20  C   UNL d   1      28.156 -12.954   6.764  0.00  0.00     0.049 C 
ATOM     21  C   UNL d   1      28.008 -12.103   4.385  0.00  0.00    -0.054 A 
ATOM     22  C   UNL d   1      27.779 -10.688   4.832  0.00  0.00     0.049 C 
ATOM     23  C   UNL d   1      28.062 -12.346   3.000  0.00  0.00     0.037 A 
ENDBRANCH   6  16
BRANCH   1  24
ATOM     24  C   UNL d   1      28.893 -16.129  -3.192  0.00  0.00     0.040 A 
ATOM     25  C   UNL d   1      29.986 -16.983  -3.497  0.00  0.00     0.054 A 
ATOM     26  C   UNL d   1      30.388 -17.208  -4.788  0.00  0.00     0.071 A 
ATOM     27  C   UNL d   1      29.765 -16.445  -5.776  0.00  0.00     0.073 A 
ATOM     28  C   UNL d   1      28.690 -15.574  -5.466  0.00  0.00     0.071 A 
ATOM     29  C   UNL d   1      28.230 -15.443  -4.166  0.00  0.00     0.054 A 
BRANCH  26  30
ATOM     30  O   UNL d   1      31.328 -18.142  -5.135  0.00  0.00    -0.356 OA
ATOM     31  C   UNL d   1      30.837 -19.390  -5.661  0.00  0.00     0.210 C 
ENDBRANCH  26  30
BRANCH  28  32
ATOM     32  O   UNL d   1      28.063 -14.942  -6.505  0.00  0.00    -0.356 OA
ATOM     33  C   UNL d   1      28.524 -13.610  -6.741  0.00  0.00     0.210 C 
ENDBRANCH  28  32
ENDBRANCH   1  24
TORSDOF 6
ENDMDL
MODEL 4
REMARK VINA RESULT:    -7.802      2.565      5.754
REMARK INTER + INTRA:         -10.180
REMARK INTER:                  -9.591
REMARK INTRA:                  -0.589
REMARK CONF_INDEPENDENT:        1.790
REMARK UNBOUND:                -0.589
REMARK  6 active torsions:
REMARK  status: ('A' for Active; 'I' for Inactive)
REMARK    1  A    between atoms: O_2  and  C_3 
REMARK    2  A    between atoms: C_5  and  O_6 
REMARK    3  A    between atoms: C_9  and  C_10 
REMARK       I    between atoms: C_10  and  N_12 
REMARK       I    between atoms: C_13  and  N_14 
REMARK       I    between atoms: C_13  and  N_22 
REMARK    4  A    between atoms: N_14  and  C_15 
REMARK    5  A    between atoms: C_15  and  C_16 
REMARK    6  A    between atoms: N_22  and  C_23 
ROOT
ATOM      1  C   UNL d   1      27.225 -14.747  -2.087  0.00  0.00     0.294 C 
ATOM      2  O   UNL d   1      26.900 -15.933  -2.128  0.00  0.00    -0.265 OA
ATOM      3  N   UNL d   1      27.447 -13.917  -0.998  0.00  0.00    -0.023 NA
ATOM      4  C   UNL d   1      27.374 -14.317   0.253  0.00  0.00     0.704 C 
ATOM      5  N   UNL d   1      27.112 -15.570   0.756  0.00  0.00    -0.220 N 
ATOM      6  N   UNL d   1      27.538 -13.386   1.281  0.00  0.00    -0.190 N 
ATOM      7  H   UNL d   1      26.772 -15.617   1.705  0.00  0.00     0.178 HD
ATOM      8  H   UNL d   1      27.763 -12.446   0.974  0.00  0.00     0.184 HD
ENDROOT
BRANCH   5   9
ATOM      9  C   UNL d   1      26.757 -16.690  -0.049  0.00  0.00     0.178 C 
BRANCH   9  10
ATOM     10  C   UNL d   1      25.357 -17.099  -0.156  0.00  0.00    -0.022 A 
ATOM     11  C   UNL d   1      24.989 -18.416   0.006  0.00  0.00     0.012 A 
ATOM     12  C   UNL d   1      23.660 -18.729  -0.146  0.00  0.00     0.020 A 
ATOM     13  C   UNL d   1      22.781 -17.716  -0.508  0.00  0.00     0.116 A 
ATOM     14  N   UNL d   1      23.134 -16.438  -0.767  0.00  0.00    -0.273 NA
ATOM     15  C   UNL d   1      24.430 -16.154  -0.601  0.00  0.00     0.124 A 
ENDBRANCH   9  10
ENDBRANCH   5   9
BRANCH   6  16
ATOM     16  C   UNL d   1      27.759 -13.577   2.673  0.00  0.00     0.049 A 
ATOM     17  C   UNL d   1      28.155 -14.825   3.177  0.00  0.00     0.030 A 
ATOM     18  C   UNL d   1      28.395 -15.012   4.552  0.00  0.00     0.009 A 
ATOM     19  C   UNL d   1      28.339 -13.936   5.451  0.00  0.00    -0.056 A 
ATOM     20  C   UNL d   1      28.730 -14.126   6.891  0.00  0.00     0.049 C 
ATOM     21  C   UNL d   1      27.941 -12.683   4.967  0.00  0.00    -0.054 A 
ATOM     22  C   UNL d   1      27.782 -11.476   5.848  0.00  0.00     0.049 C 
ATOM     23  C   UNL d   1      27.644 -12.534   3.600  0.00  0.00     0.037 A 
ENDBRANCH   6  16
BRANCH   1  24
ATOM     24  C   UNL d   1      27.261 -14.322  -3.471  0.00  0.00     0.040 A 
ATOM     25  C   UNL d   1      26.704 -13.052  -3.777  0.00  0.00     0.054 A 
ATOM     26  C   UNL d   1      26.815 -12.496  -5.025  0.00  0.00     0.071 A 
ATOM     27  C   UNL d   1      27.376 -13.300  -6.016  0.00  0.00     0.073 A 
ATOM     28  C   UNL d   1      27.910 -14.578  -5.715  0.00  0.00     0.071 A 
ATOM     29  C   UNL d   1      27.882 -15.076  -4.423  0.00  0.00     0.054 A 
BRANCH  26  30
ATOM     30  O   UNL d   1      26.433 -11.213  -5.317  0.00  0.00    -0.356 OA
ATOM     31  C   UNL d   1      25.823 -10.461  -4.250  0.00  0.00     0.210 C 
ENDBRANCH  26  30
BRANCH  28  32
ATOM     32  O   UNL d   1      28.537 -15.260  -6.722  0.00  0.00    -0.356 OA
ATOM     33  C   UNL d   1      29.833 -15.752  -6.374  0.00  0.00     0.210 C 
ENDBRANCH  28  32
ENDBRANCH   1  24
TORSDOF 6
ENDMDL
MODEL 5
REMARK VINA RESULT:    -7.651      3.909      8.900
REMARK INTER + INTRA:         -10.338
REMARK INTER:                  -9.441
REMARK INTRA:                  -0.897
REMARK CONF_INDEPENDENT:        1.790
REMARK UNBOUND:                -0.897
REMARK  6 active torsions:
REMARK  status: ('A' for Active; 'I' for Inactive)
REMARK    1  A    between atoms: O_2  and  C_3 
REMARK    2  A    between atoms: C_5  and  O_6 
REMARK    3  A    between atoms: C_9  and  C_10 
REMARK       I    between atoms: C_10  and  N_12 
REMARK       I    between atoms: C_13  and  N_14 
REMARK       I    between atoms: C_13  and  N_22 
REMARK    4  A    between atoms: N_14  and  C_15 
REMARK    5  A    between atoms: C_15  and  C_16 
REMARK    6  A    between atoms: N_22  and  C_23 
ROOT
ATOM      1  C   UNL d   1      27.865 -14.910   1.303  0.00  0.00     0.294 C 
ATOM      2  O   UNL d   1      26.801 -14.719   0.715  0.00  0.00    -0.265 OA
ATOM      3  N   UNL d   1      28.929 -15.740   0.980  0.00  0.00    -0.023 NA
ATOM      4  C   UNL d   1      28.979 -16.476  -0.110  0.00  0.00     0.704 C 
ATOM      5  N   UNL d   1      28.072 -16.573  -1.140  0.00  0.00    -0.220 N 
ATOM      6  N   UNL d   1      30.059 -17.338  -0.306  0.00  0.00    -0.190 N 
ATOM      7  H   UNL d   1      28.113 -17.410  -1.704  0.00  0.00     0.178 HD
ATOM      8  H   UNL d   1      30.778 -17.290   0.407  0.00  0.00     0.184 HD
ENDROOT
BRANCH   5   9
ATOM      9  C   UNL d   1      26.804 -15.924  -1.145  0.00  0.00     0.178 C 
BRANCH   9  10
ATOM     10  C   UNL d   1      25.591 -16.690  -0.863  0.00  0.00    -0.022 A 
ATOM     11  C   UNL d   1      25.651 -17.897  -0.203  0.00  0.00     0.012 A 
ATOM     12  C   UNL d   1      24.472 -18.575  -0.007  0.00  0.00     0.020 A 
ATOM     13  C   UNL d   1      23.305 -18.035  -0.533  0.00  0.00     0.116 A 
ATOM     14  N   UNL d   1      23.236 -16.903  -1.267  0.00  0.00    -0.273 NA
ATOM     15  C   UNL d   1      24.393 -16.254  -1.433  0.00  0.00     0.124 A 
ENDBRANCH   9  10
ENDBRANCH   5   9
BRANCH   6  16
ATOM     16  C   UNL d   1      30.486 -18.031  -1.472  0.00  0.00     0.049 A 
ATOM     17  C   UNL d   1      31.063 -19.307  -1.385  0.00  0.00     0.030 A 
ATOM     18  C   UNL d   1      31.468 -20.004  -2.540  0.00  0.00     0.009 A 
ATOM     19  C   UNL d   1      31.223 -19.488  -3.821  0.00  0.00    -0.056 A 
ATOM     20  C   UNL d   1      31.539 -20.306  -5.044  0.00  0.00     0.049 C 
ATOM     21  C   UNL d   1      30.652 -18.214  -3.929  0.00  0.00    -0.054 A 
ATOM     22  C   UNL d   1      30.405 -17.535  -5.246  0.00  0.00     0.049 C 
ATOM     23  C   UNL d   1      30.314 -17.508  -2.761  0.00  0.00     0.037 A 
ENDBRANCH   6  16
BRANCH   1  24
ATOM     24  C   UNL d   1      27.770 -14.122   2.514  0.00  0.00     0.040 A 
ATOM     25  C   UNL d   1      28.075 -14.772   3.740  0.00  0.00     0.054 A 
ATOM     26  C   UNL d   1      28.154 -14.084   4.922  0.00  0.00     0.071 A 
ATOM     27  C   UNL d   1      27.780 -12.740   4.886  0.00  0.00     0.073 A 
ATOM     28  C   UNL d   1      27.453 -12.098   3.665  0.00  0.00     0.071 A 
ATOM     29  C   UNL d   1      27.483 -12.790   2.465  0.00  0.00     0.054 A 
BRANCH  26  30
ATOM     30  O   UNL d   1      28.598 -14.640   6.092  0.00  0.00    -0.356 OA
ATOM     31  C   UNL d   1      29.793 -14.075   6.665  0.00  0.00     0.210 C 
ENDBRANCH  26  30
BRANCH  28  32
ATOM     32  O   UNL d   1      27.200 -10.754   3.700  0.00  0.00    -0.356 OA
ATOM     33  C   UNL d   1      27.897 -10.056   4.734  0.00  0.00     0.210 C 
ENDBRANCH  28  32
ENDBRANCH   1  24
TORSDOF 6
ENDMDL
MODEL 6
REMARK VINA RESULT:    -7.633      3.756      9.066
REMARK INTER + INTRA:         -10.335
REMARK INTER:                  -9.423
REMARK INTRA:                  -0.912
REMARK CONF_INDEPENDENT:        1.790
REMARK UNBOUND:                -0.912
REMARK  6 active torsions:
REMARK  status: ('A' for Active; 'I' for Inactive)
REMARK    1  A    between atoms: O_2  and  C_3 
REMARK    2  A    between atoms: C_5  and  O_6 
REMARK    3  A    between atoms: C_9  and  C_10 
REMARK       I    between atoms: C_10  and  N_12 
REMARK       I    between atoms: C_13  and  N_14 
REMARK       I    between atoms: C_13  and  N_22 
REMARK    4  A    between atoms: N_14  and  C_15 
REMARK    5  A    between atoms: C_15  and  C_16 
REMARK    6  A    between atoms: N_22  and  C_23 
ROOT
ATOM      1  C   UNL d   1      27.994 -14.833   1.418  0.00  0.00     0.294 C 
ATOM      2  O   UNL d   1      26.858 -14.686   0.966  0.00  0.00    -0.265 OA
ATOM      3  N   UNL d   1      29.058 -15.580   0.936  0.00  0.00    -0.023 NA
ATOM      4  C   UNL d   1      29.021 -16.268  -0.185  0.00  0.00     0.704 C 
ATOM      5  N   UNL d   1      28.006 -16.383  -1.106  0.00  0.00    -0.220 N 
ATOM      6  N   UNL d   1      30.119 -17.052  -0.544  0.00  0.00    -0.190 N 
ATOM      7  H   UNL d   1      28.029 -17.192  -1.709  0.00  0.00     0.178 HD
ATOM      8  H   UNL d   1      30.913 -16.987   0.082  0.00  0.00     0.184 HD
ENDROOT
BRANCH   5   9
ATOM      9  C   UNL d   1      26.711 -15.816  -0.935  0.00  0.00     0.178 C 
BRANCH   9  10
ATOM     10  C   UNL d   1      25.554 -16.686  -0.724  0.00  0.00    -0.022 A 
ATOM     11  C   UNL d   1      24.325 -16.374  -1.260  0.00  0.00     0.012 A 
ATOM     12  C   UNL d   1      23.278 -17.220  -0.989  0.00  0.00     0.020 A 
ATOM     13  C   UNL d   1      23.506 -18.303  -0.147  0.00  0.00     0.116 A 
ATOM     14  N   UNL d   1      24.678 -18.574   0.467  0.00  0.00    -0.273 NA
ATOM     15  C   UNL d   1      25.686 -17.744   0.178  0.00  0.00     0.124 A 
ENDBRANCH   9  10
ENDBRANCH   5   9
BRANCH   6  16
ATOM     16  C   UNL d   1      30.445 -17.671  -1.783  0.00  0.00     0.049 A 
ATOM     17  C   UNL d   1      31.029 -18.946  -1.823  0.00  0.00     0.030 A 
ATOM     18  C   UNL d   1      31.334 -19.570  -3.048  0.00  0.00     0.009 A 
ATOM     19  C   UNL d   1      30.978 -18.980  -4.270  0.00  0.00    -0.056 A 
ATOM     20  C   UNL d   1      31.188 -19.721  -5.563  0.00  0.00     0.049 C 
ATOM     21  C   UNL d   1      30.398 -17.705  -4.251  0.00  0.00    -0.054 A 
ATOM     22  C   UNL d   1      30.036 -16.950  -5.499  0.00  0.00     0.049 C 
ATOM     23  C   UNL d   1      30.160 -17.073  -3.017  0.00  0.00     0.037 A 
ENDBRANCH   6  16
BRANCH   1  24
ATOM     24  C   UNL d   1      27.997 -14.100   2.667  0.00  0.00     0.040 A 
ATOM     25  C   UNL d   1      27.702 -12.711   2.608  0.00  0.00     0.054 A 
ATOM     26  C   UNL d   1      27.539 -11.958   3.741  0.00  0.00     0.071 A 
ATOM     27  C   UNL d   1      27.819 -12.590   4.953  0.00  0.00     0.073 A 
ATOM     28  C   UNL d   1      28.138 -13.970   5.009  0.00  0.00     0.071 A 
ATOM     29  C   UNL d   1      28.193 -14.737   3.856  0.00  0.00     0.054 A 
BRANCH  26  30
ATOM     30  O   UNL d   1      27.100 -10.661   3.730  0.00  0.00    -0.356 OA
ATOM     31  C   UNL d   1      26.524 -10.184   2.499  0.00  0.00     0.210 C 
ENDBRANCH  26  30
BRANCH  28  32
ATOM     32  O   UNL d   1      28.295 -14.538   6.244  0.00  0.00    -0.356 OA
ATOM     33  C   UNL d   1      29.109 -13.775   7.137  0.00  0.00     0.210 C 
ENDBRANCH  28  32
ENDBRANCH   1  24
TORSDOF 6
ENDMDL
MODEL 7
REMARK VINA RESULT:    -7.581      3.250      5.905
REMARK INTER + INTRA:         -10.207
REMARK INTER:                  -9.371
REMARK INTRA:                  -0.836
REMARK CONF_INDEPENDENT:        1.790
REMARK UNBOUND:                -0.836
REMARK  6 active torsions:
REMARK  status: ('A' for Active; 'I' for Inactive)
REMARK    1  A    between atoms: O_2  and  C_3 
REMARK    2  A    between atoms: C_5  and  O_6 
REMARK    3  A    between atoms: C_9  and  C_10 
REMARK       I    between atoms: C_10  and  N_12 
REMARK       I    between atoms: C_13  and  N_14 
REMARK       I    between atoms: C_13  and  N_22 
REMARK    4  A    between atoms: N_14  and  C_15 
REMARK    5  A    between atoms: C_15  and  C_16 
REMARK    6  A    between atoms: N_22  and  C_23 
ROOT
ATOM      1  C   UNL d   1      28.516 -16.105  -1.885  0.00  0.00     0.294 C 
ATOM      2  O   UNL d   1      27.861 -17.121  -1.648  0.00  0.00    -0.265 OA
ATOM      3  N   UNL d   1      28.762 -14.995  -1.091  0.00  0.00    -0.023 NA
ATOM      4  C   UNL d   1      28.330 -14.869   0.146  0.00  0.00     0.704 C 
ATOM      5  N   UNL d   1      27.609 -15.753   0.914  0.00  0.00    -0.220 N 
ATOM      6  N   UNL d   1      28.565 -13.678   0.836  0.00  0.00    -0.190 N 
ATOM      7  H   UNL d   1      27.093 -15.366   1.690  0.00  0.00     0.178 HD
ATOM      8  H   UNL d   1      29.119 -12.995   0.332  0.00  0.00     0.184 HD
ENDROOT
BRANCH   5   9
ATOM      9  C   UNL d   1      27.097 -16.991   0.428  0.00  0.00     0.178 C 
BRANCH   9  10
ATOM     10  C   UNL d   1      25.692 -17.095   0.034  0.00  0.00    -0.022 A 
ATOM     11  C   UNL d   1      24.942 -18.200   0.367  0.00  0.00     0.012 A 
ATOM     12  C   UNL d   1      23.640 -18.242  -0.070  0.00  0.00     0.020 A 
ATOM     13  C   UNL d   1      23.178 -17.202  -0.867  0.00  0.00     0.116 A 
ATOM     14  N   UNL d   1      23.923 -16.157  -1.287  0.00  0.00    -0.273 NA
ATOM     15  C   UNL d   1      25.183 -16.131  -0.838  0.00  0.00     0.124 A 
ENDBRANCH   9  10
ENDBRANCH   5   9
BRANCH   6  16
ATOM     16  C   UNL d   1      28.444 -13.374   2.220  0.00  0.00     0.049 A 
ATOM     17  C   UNL d   1      28.054 -12.097   2.649  0.00  0.00     0.030 A 
ATOM     18  C   UNL d   1      27.914 -11.799   4.018  0.00  0.00     0.009 A 
ATOM     19  C   UNL d   1      28.066 -12.794   4.995  0.00  0.00    -0.056 A 
ATOM     20  C   UNL d   1      27.780 -12.491   6.441  0.00  0.00     0.049 C 
ATOM     21  C   UNL d   1      28.459 -14.075   4.588  0.00  0.00    -0.054 A 
ATOM     22  C   UNL d   1      28.717 -15.200   5.550  0.00  0.00     0.049 C 
ATOM     23  C   UNL d   1      28.656 -14.333   3.219  0.00  0.00     0.037 A 
ENDBRANCH   6  16
BRANCH   1  24
ATOM     24  C   UNL d   1      28.947 -16.250  -3.259  0.00  0.00     0.040 A 
ATOM     25  C   UNL d   1      28.185 -15.583  -4.255  0.00  0.00     0.054 A 
ATOM     26  C   UNL d   1      28.588 -15.538  -5.564  0.00  0.00     0.071 A 
ATOM     27  C   UNL d   1      29.707 -16.301  -5.897  0.00  0.00     0.073 A 
ATOM     28  C   UNL d   1      30.452 -16.987  -4.906  0.00  0.00     0.071 A 
ATOM     29  C   UNL d   1      30.086 -16.932  -3.571  0.00  0.00     0.054 A 
BRANCH  26  30
ATOM     30  O   UNL d   1      27.970 -14.775  -6.519  0.00  0.00    -0.356 OA
ATOM     31  C   UNL d   1      28.779 -13.781  -7.176  0.00  0.00     0.210 C 
ENDBRANCH  26  30
BRANCH  28  32
ATOM     32  O   UNL d   1      31.597 -17.627  -5.299  0.00  0.00    -0.356 OA
ATOM     33  C   UNL d   1      31.388 -18.650  -6.274  0.00  0.00     0.210 C 
ENDBRANCH  28  32
ENDBRANCH   1  24
TORSDOF 6
ENDMDL
MODEL 8
REMARK VINA RESULT:    -7.534      5.721      8.962
REMARK INTER + INTRA:         -10.276
REMARK INTER:                  -9.323
REMARK INTRA:                  -0.953
REMARK CONF_INDEPENDENT:        1.790
REMARK UNBOUND:                -0.953
REMARK  6 active torsions:
REMARK  status: ('A' for Active; 'I' for Inactive)
REMARK    1  A    between atoms: O_2  and  C_3 
REMARK    2  A    between atoms: C_5  and  O_6 
REMARK    3  A    between atoms: C_9  and  C_10 
REMARK       I    between atoms: C_10  and  N_12 
REMARK       I    between atoms: C_13  and  N_14 
REMARK       I    between atoms: C_13  and  N_22 
REMARK    4  A    between atoms: N_14  and  C_15 
REMARK    5  A    between atoms: C_15  and  C_16 
REMARK    6  A    between atoms: N_22  and  C_23 
ROOT
ATOM      1  C   UNL d   1      25.305 -15.045  -2.641  0.00  0.00     0.294 C 
ATOM      2  O   UNL d   1      25.629 -15.711  -3.623  0.00  0.00    -0.265 OA
ATOM      3  N   UNL d   1      25.404 -13.680  -2.413  0.00  0.00    -0.023 NA
ATOM      4  C   UNL d   1      25.861 -12.821  -3.299  0.00  0.00     0.704 C 
ATOM      5  N   UNL d   1      26.291 -13.041  -4.587  0.00  0.00    -0.220 N 
ATOM      6  N   UNL d   1      25.995 -11.477  -2.946  0.00  0.00    -0.190 N 
ATOM      7  H   UNL d   1      26.903 -12.345  -4.987  0.00  0.00     0.178 HD
ATOM      8  H   UNL d   1      25.667 -11.246  -2.015  0.00  0.00     0.184 HD
ENDROOT
BRANCH   5   9
ATOM      9  C   UNL d   1      26.410 -14.333  -5.174  0.00  0.00     0.178 C 
BRANCH   9  10
ATOM     10  C   UNL d   1      27.734 -14.911  -5.406  0.00  0.00    -0.022 A 
ATOM     11  C   UNL d   1      28.404 -15.575  -4.404  0.00  0.00     0.012 A 
ATOM     12  C   UNL d   1      29.658 -16.059  -4.687  0.00  0.00     0.020 A 
ATOM     13  C   UNL d   1      30.196 -15.800  -5.942  0.00  0.00     0.116 A 
ATOM     14  N   UNL d   1      29.599 -15.069  -6.907  0.00  0.00    -0.273 NA
ATOM     15  C   UNL d   1      28.373 -14.620  -6.613  0.00  0.00     0.124 A 
ENDBRANCH   9  10
ENDBRANCH   5   9
BRANCH   6  16
ATOM     16  C   UNL d   1      26.209 -10.327  -3.755  0.00  0.00     0.049 A 
ATOM     17  C   UNL d   1      27.505  -9.866  -4.028  0.00  0.00     0.030 A 
ATOM     18  C   UNL d   1      27.721  -8.739  -4.846  0.00  0.00     0.009 A 
ATOM     19  C   UNL d   1      26.653  -8.098  -5.491  0.00  0.00    -0.056 A 
ATOM     20  C   UNL d   1      26.914  -6.983  -6.467  0.00  0.00     0.049 C 
ATOM     21  C   UNL d   1      25.351  -8.541  -5.228  0.00  0.00    -0.054 A 
ATOM     22  C   UNL d   1      24.129  -7.889  -5.810  0.00  0.00     0.049 C 
ATOM     23  C   UNL d   1      25.155  -9.628  -4.357  0.00  0.00     0.037 A 
ENDBRANCH   6  16
BRANCH   1  24
ATOM     24  C   UNL d   1      24.842 -16.013  -1.669  0.00  0.00     0.040 A 
ATOM     25  C   UNL d   1      23.438 -16.171  -1.524  0.00  0.00     0.054 A 
ATOM     26  C   UNL d   1      22.899 -17.157  -0.739  0.00  0.00     0.071 A 
ATOM     27  C   UNL d   1      23.796 -17.905   0.023  0.00  0.00     0.073 A 
ATOM     28  C   UNL d   1      25.196 -17.730  -0.103  0.00  0.00     0.071 A 
ATOM     29  C   UNL d   1      25.722 -16.798  -0.984  0.00  0.00     0.054 A 
BRANCH  26  30
ATOM     30  O   UNL d   1      21.560 -17.442  -0.698  0.00  0.00    -0.356 OA
ATOM     31  C   UNL d   1      21.188 -18.825  -0.859  0.00  0.00     0.210 C 
ENDBRANCH  26  30
BRANCH  28  32
ATOM     32  O   UNL d   1      26.011 -18.575   0.601  0.00  0.00    -0.356 OA
ATOM     33  C   UNL d   1      27.405 -18.379   0.357  0.00  0.00     0.210 C 
ENDBRANCH  28  32
ENDBRANCH   1  24
TORSDOF 6
ENDMDL
MODEL 9
REMARK VINA RESULT:    -7.477      2.641      4.308
REMARK INTER + INTRA:         -10.201
REMARK INTER:                  -9.267
REMARK INTRA:                  -0.934
REMARK CONF_INDEPENDENT:        1.790
REMARK UNBOUND:                -0.934
REMARK  6 active torsions:
REMARK  status: ('A' for Active; 'I' for Inactive)
REMARK    1  A    between atoms: O_2  and  C_3 
REMARK    2  A    between atoms: C_5  and  O_6 
REMARK    3  A    between atoms: C_9  and  C_10 
REMARK       I    between atoms: C_10  and  N_12 
REMARK       I    between atoms: C_13  and  N_14 
REMARK       I    between atoms: C_13  and  N_22 
REMARK    4  A    between atoms: N_14  and  C_15 
REMARK    5  A    between atoms: C_15  and  C_16 
REMARK    6  A    between atoms: N_22  and  C_23 
ROOT
ATOM      1  C   UNL d   1      27.757 -15.352   0.697  0.00  0.00     0.294 C 
ATOM      2  O   UNL d   1      28.841 -15.228   0.128  0.00  0.00    -0.265 OA
ATOM      3  N   UNL d   1      27.405 -15.100   2.015  0.00  0.00    -0.023 NA
ATOM      4  C   UNL d   1      28.235 -14.617   2.915  0.00  0.00     0.704 C 
ATOM      5  N   UNL d   1      29.550 -14.238   2.776  0.00  0.00    -0.220 N 
ATOM      6  N   UNL d   1      27.806 -14.473   4.236  0.00  0.00    -0.190 N 
ATOM      7  H   UNL d   1      30.107 -14.213   3.618  0.00  0.00     0.178 HD
ATOM      8  H   UNL d   1      26.833 -14.709   4.397  0.00  0.00     0.184 HD
ENDROOT
BRANCH   5   9
ATOM      9  C   UNL d   1      30.303 -14.411   1.580  0.00  0.00     0.178 C 
BRANCH   9  10
ATOM     10  C   UNL d   1      31.474 -15.287   1.573  0.00  0.00    -0.022 A 
ATOM     11  C   UNL d   1      32.431 -15.200   2.560  0.00  0.00     0.012 A 
ATOM     12  C   UNL d   1      33.520 -16.032   2.466  0.00  0.00     0.020 A 
ATOM     13  C   UNL d   1      33.621 -16.864   1.358  0.00  0.00     0.116 A 
ATOM     14  N   UNL d   1      32.746 -16.897   0.330  0.00  0.00    -0.273 NA
ATOM     15  C   UNL d   1      31.687 -16.089   0.450  0.00  0.00     0.124 A 
ENDBRANCH   9  10
ENDBRANCH   5   9
BRANCH   6  16
ATOM     16  C   UNL d   1      28.385 -13.760   5.321  0.00  0.00     0.049 A 
ATOM     17  C   UNL d   1      28.028 -12.430   5.587  0.00  0.00     0.030 A 
ATOM     18  C   UNL d   1      28.585 -11.728   6.674  0.00  0.00     0.009 A 
ATOM     19  C   UNL d   1      29.443 -12.364   7.583  0.00  0.00    -0.056 A 
ATOM     20  C   UNL d   1      29.921 -11.640   8.812  0.00  0.00     0.049 C 
ATOM     21  C   UNL d   1      29.816 -13.691   7.333  0.00  0.00    -0.054 A 
ATOM     22  C   UNL d   1      30.780 -14.450   8.200  0.00  0.00     0.049 C 
ATOM     23  C   UNL d   1      29.297 -14.353   6.205  0.00  0.00     0.037 A 
ENDBRANCH   6  16
BRANCH   1  24
ATOM     24  C   UNL d   1      26.874 -15.919  -0.300  0.00  0.00     0.040 A 
ATOM     25  C   UNL d   1      26.146 -17.083   0.061  0.00  0.00     0.054 A 
ATOM     26  C   UNL d   1      25.180 -17.614  -0.754  0.00  0.00     0.071 A 
ATOM     27  C   UNL d   1      25.049 -17.039  -2.018  0.00  0.00     0.073 A 
ATOM     28  C   UNL d   1      25.794 -15.891  -2.387  0.00  0.00     0.071 A 
ATOM     29  C   UNL d   1      26.689 -15.307  -1.505  0.00  0.00     0.054 A 
BRANCH  26  30
ATOM     30  O   UNL d   1      24.349 -18.635  -0.376  0.00  0.00    -0.356 OA
ATOM     31  C   UNL d   1      22.937 -18.350  -0.366  0.00  0.00     0.210 C 
ENDBRANCH  26  30
BRANCH  28  32
ATOM     32  O   UNL d   1      25.530 -15.325  -3.605  0.00  0.00    -0.356 OA
ATOM     33  C   UNL d   1      25.135 -13.953  -3.537  0.00  0.00     0.210 C 
ENDBRANCH  28  32
ENDBRANCH   1  24
TORSDOF 6
ENDMDL
