MODEL 1
REMARK VINA RESULT:   -30.437      0.000      0.000
REMARK INTER + INTRA:         -31.958
REMARK INTER:                 -31.332
REMARK INTRA:                  -0.626
REMARK CONF_INDEPENDENT:        0.895
REMARK UNBOUND:                -0.626
REMARK  3 active torsions:
REMARK  status: ('A' for Active; 'I' for Inactive)
REMARK    1  A    between atoms: C_7  and  N_8 
REMARK       I    between atoms: N_8  and  C_9 
REMARK       I    between atoms: C_9  and  N_10 
REMARK    2  A    between atoms: N_11  and  C_12 
REMARK    3  A    between atoms: C_12  and  C_13 
ROOT
ATOM      1  N   UNL d   1      25.576 -18.030   0.142  0.00  0.00    -0.019 N 
ATOM      2  C   UNL d   1      24.361 -17.698  -0.414  0.00  0.00     0.708 C 
ATOM      3  N   UNL d   1      24.151 -16.568  -1.021  0.00  0.00    -0.117 NA
ATOM      4  N   UNL d   1      23.330 -18.582  -0.344  0.00  0.00    -0.219 N 
ATOM      5  H   UNL d   1      25.617 -18.935   0.583  0.00  0.00     0.203 HD
ATOM      6  H   UNL d   1      25.048 -16.049  -0.973  0.00  0.00     0.206 HD
ATOM      7  H   UNL d   1      23.342 -19.473   0.137  0.00  0.00     0.178 HD
ENDROOT
BRANCH   1   8
ATOM      8  C   UNL d   1      26.732 -17.263   0.157  0.00  0.00     0.722 A 
ATOM      9  N   UNL d   1      27.953 -17.810  -0.165  0.00  0.00    -0.154 N 
ATOM     10  C   UNL d   1      29.107 -17.071  -0.195  0.00  0.00     0.261 A 
ATOM     11  H   UNL d   1      28.061 -18.777  -0.427  0.00  0.00     0.187 HD
ATOM     12  C   UNL d   1      28.986 -15.664   0.204  0.00  0.00     0.102 A 
ATOM     13  O   UNL d   1      30.194 -17.539  -0.531  0.00  0.00    -0.268 OA
ATOM     14  C   UNL d   1      27.766 -15.223   0.524  0.00  0.00     0.055 A 
ATOM     15  C   UNL d   1      27.513 -13.815   0.979  0.00  0.00     0.071 C 
ATOM     16  N   UNL d   1      26.649 -16.005   0.484  0.00  0.00    -0.069 NA
ENDBRANCH   1   8
BRANCH   4  17
ATOM     17  C   UNL d   1      22.027 -18.228  -0.919  0.00  0.00     0.197 C 
BRANCH  17  18
ATOM     18  C   UNL d   1      20.862 -18.983  -0.299  0.00  0.00     0.052 A 
ATOM     19  C   UNL d   1      20.912 -19.322   1.059  0.00  0.00     0.029 A 
ATOM     20  C   UNL d   1      19.855 -20.034   1.622  0.00  0.00     0.003 A 
ATOM     21  C   UNL d   1      18.779 -20.390   0.822  0.00  0.00     0.019 A 
ATOM     22  C   UNL d   1      18.803 -20.014  -0.513  0.00  0.00     0.117 A 
ATOM     23  N   UNL d   1      19.812 -19.325  -1.094  0.00  0.00    -0.264 NA
ENDBRANCH  17  18
ENDBRANCH   4  17
TORSDOF 3
ENDMDL
MODEL 2
REMARK VINA RESULT:   -29.766      1.333      1.792
REMARK INTER + INTRA:         -31.241
REMARK INTER:                 -30.661
REMARK INTRA:                  -0.580
REMARK CONF_INDEPENDENT:        0.895
REMARK UNBOUND:                -0.580
REMARK  3 active torsions:
REMARK  status: ('A' for Active; 'I' for Inactive)
REMARK    1  A    between atoms: C_7  and  N_8 
REMARK       I    between atoms: N_8  and  C_9 
REMARK       I    between atoms: C_9  and  N_10 
REMARK    2  A    between atoms: N_11  and  C_12 
REMARK    3  A    between atoms: C_12  and  C_13 
ROOT
ATOM      1  N   UNL d   1      25.537 -17.442   0.116  0.00  0.00    -0.019 N 
ATOM      2  C   UNL d   1      24.483 -17.655  -0.745  0.00  0.00     0.708 C 
ATOM      3  N   UNL d   1      24.472 -17.207  -1.965  0.00  0.00    -0.117 NA
ATOM      4  N   UNL d   1      23.407 -18.369  -0.320  0.00  0.00    -0.219 N 
ATOM      5  H   UNL d   1      25.432 -17.841   1.035  0.00  0.00     0.203 HD
ATOM      6  H   UNL d   1      25.370 -16.705  -2.093  0.00  0.00     0.206 HD
ATOM      7  H   UNL d   1      23.266 -18.733   0.615  0.00  0.00     0.178 HD
ENDROOT
BRANCH   1   8
ATOM      8  C   UNL d   1      26.711 -16.751  -0.146  0.00  0.00     0.722 A 
ATOM      9  N   UNL d   1      27.315 -15.982   0.822  0.00  0.00    -0.154 N 
ATOM     10  C   UNL d   1      28.494 -15.317   0.606  0.00  0.00     0.261 A 
ATOM     11  H   UNL d   1      26.941 -15.891   1.752  0.00  0.00     0.187 HD
ATOM     12  C   UNL d   1      29.053 -15.412  -0.748  0.00  0.00     0.102 A 
ATOM     13  O   UNL d   1      29.068 -14.669   1.479  0.00  0.00    -0.268 OA
ATOM     14  C   UNL d   1      28.387 -16.161  -1.633  0.00  0.00     0.055 A 
ATOM     15  C   UNL d   1      28.836 -16.313  -3.057  0.00  0.00     0.071 C 
ATOM     16  N   UNL d   1      27.242 -16.838  -1.333  0.00  0.00    -0.069 NA
ENDBRANCH   1   8
BRANCH   4  17
ATOM     17  C   UNL d   1      22.273 -18.584  -1.226  0.00  0.00     0.197 C 
BRANCH  17  18
ATOM     18  C   UNL d   1      21.014 -19.067  -0.522  0.00  0.00     0.052 A 
ATOM     19  C   UNL d   1      21.039 -19.264   0.865  0.00  0.00     0.029 A 
ATOM     20  C   UNL d   1      19.892 -19.728   1.507  0.00  0.00     0.003 A 
ATOM     21  C   UNL d   1      18.755 -19.984   0.755  0.00  0.00     0.019 A 
ATOM     22  C   UNL d   1      18.810 -19.762  -0.613  0.00  0.00     0.117 A 
ATOM     23  N   UNL d   1      19.905 -19.314  -1.270  0.00  0.00    -0.264 NA
ENDBRANCH  17  18
ENDBRANCH   4  17
TORSDOF 3
ENDMDL
MODEL 3
REMARK VINA RESULT:   -29.047      2.524      2.947
REMARK INTER + INTRA:         -30.589
REMARK INTER:                 -29.942
REMARK INTRA:                  -0.647
REMARK CONF_INDEPENDENT:        0.895
REMARK UNBOUND:                -0.647
REMARK  3 active torsions:
REMARK  status: ('A' for Active; 'I' for Inactive)
REMARK    1  A    between atoms: C_7  and  N_8 
REMARK       I    between atoms: N_8  and  C_9 
REMARK       I    between atoms: C_9  and  N_10 
REMARK    2  A    between atoms: N_11  and  C_12 
REMARK    3  A    between atoms: C_12  and  C_13 
ROOT
ATOM      1  N   UNL d   1      23.512 -16.020  -1.628  0.00  0.00    -0.019 N 
ATOM      2  C   UNL d   1      23.419 -17.174  -0.882  0.00  0.00     0.708 C 
ATOM      3  N   UNL d   1      24.463 -17.812  -0.443  0.00  0.00    -0.117 NA
ATOM      4  N   UNL d   1      22.193 -17.673  -0.575  0.00  0.00    -0.219 N 
ATOM      5  H   UNL d   1      22.634 -15.614  -1.908  0.00  0.00     0.203 HD
ATOM      6  H   UNL d   1      25.286 -17.274  -0.773  0.00  0.00     0.206 HD
ATOM      7  H   UNL d   1      21.304 -17.304  -0.890  0.00  0.00     0.178 HD
ENDROOT
BRANCH   1   8
ATOM      8  C   UNL d   1      24.670 -15.365  -2.025  0.00  0.00     0.722 A 
ATOM      9  N   UNL d   1      25.824 -15.447  -1.280  0.00  0.00    -0.154 N 
ATOM     10  C   UNL d   1      26.993 -14.842  -1.664  0.00  0.00     0.261 A 
ATOM     11  H   UNL d   1      25.882 -15.980  -0.428  0.00  0.00     0.187 HD
ATOM     12  C   UNL d   1      26.934 -14.038  -2.890  0.00  0.00     0.102 A 
ATOM     13  O   UNL d   1      28.043 -14.951  -1.032  0.00  0.00    -0.268 OA
ATOM     14  C   UNL d   1      25.766 -13.994  -3.537  0.00  0.00     0.055 A 
ATOM     15  C   UNL d   1      25.566 -13.183  -4.784  0.00  0.00     0.071 C 
ATOM     16  N   UNL d   1      24.652 -14.664  -3.123  0.00  0.00    -0.069 NA
ENDBRANCH   1   8
BRANCH   4  17
ATOM     17  C   UNL d   1      22.087 -18.912   0.204  0.00  0.00     0.197 C 
BRANCH  17  18
ATOM     18  C   UNL d   1      20.693 -19.521   0.193  0.00  0.00     0.052 A 
ATOM     19  C   UNL d   1      20.273 -20.286   1.289  0.00  0.00     0.029 A 
ATOM     20  C   UNL d   1      19.004 -20.863   1.270  0.00  0.00     0.003 A 
ATOM     21  C   UNL d   1      18.191 -20.667   0.163  0.00  0.00     0.019 A 
ATOM     22  C   UNL d   1      18.679 -19.895  -0.880  0.00  0.00     0.117 A 
ATOM     23  N   UNL d   1      19.904 -19.321  -0.896  0.00  0.00    -0.264 NA
ENDBRANCH  17  18
ENDBRANCH   4  17
TORSDOF 3
ENDMDL
MODEL 4
REMARK VINA RESULT:   -28.586      2.114      2.448
REMARK INTER + INTRA:         -30.679
REMARK INTER:                 -29.481
REMARK INTRA:                  -1.198
REMARK CONF_INDEPENDENT:        0.895
REMARK UNBOUND:                -1.198
REMARK  3 active torsions:
REMARK  status: ('A' for Active; 'I' for Inactive)
REMARK    1  A    between atoms: C_7  and  N_8 
REMARK       I    between atoms: N_8  and  C_9 
REMARK       I    between atoms: C_9  and  N_10 
REMARK    2  A    between atoms: N_11  and  C_12 
REMARK    3  A    between atoms: C_12  and  C_13 
ROOT
ATOM      1  N   UNL d   1      24.008 -16.533  -1.716  0.00  0.00    -0.019 N 
ATOM      2  C   UNL d   1      23.617 -17.356  -0.684  0.00  0.00     0.708 C 
ATOM      3  N   UNL d   1      24.452 -17.825   0.196  0.00  0.00    -0.117 NA
ATOM      4  N   UNL d   1      22.306 -17.693  -0.559  0.00  0.00    -0.219 N 
ATOM      5  H   UNL d   1      23.271 -16.231  -2.332  0.00  0.00     0.203 HD
ATOM      6  H   UNL d   1      25.382 -17.451  -0.067  0.00  0.00     0.206 HD
ATOM      7  H   UNL d   1      21.562 -17.438  -1.197  0.00  0.00     0.178 HD
ENDROOT
BRANCH   1   8
ATOM      8  C   UNL d   1      25.291 -16.080  -1.992  0.00  0.00     0.722 A 
ATOM      9  N   UNL d   1      25.759 -16.013  -3.284  0.00  0.00    -0.154 N 
ATOM     10  C   UNL d   1      27.007 -15.536  -3.591  0.00  0.00     0.261 A 
ATOM     11  H   UNL d   1      25.200 -16.281  -4.077  0.00  0.00     0.187 HD
ATOM     12  C   UNL d   1      27.855 -15.159  -2.454  0.00  0.00     0.102 A 
ATOM     13  O   UNL d   1      27.416 -15.425  -4.746  0.00  0.00    -0.268 OA
ATOM     14  C   UNL d   1      27.328 -15.280  -1.232  0.00  0.00     0.055 A 
ATOM     15  C   UNL d   1      28.101 -14.958   0.013  0.00  0.00     0.071 C 
ATOM     16  N   UNL d   1      26.056 -15.716  -1.002  0.00  0.00    -0.069 NA
ENDBRANCH   1   8
BRANCH   4  17
ATOM     17  C   UNL d   1      21.885 -18.584   0.529  0.00  0.00     0.197 C 
BRANCH  17  18
ATOM     18  C   UNL d   1      20.584 -19.320   0.245  0.00  0.00     0.052 A 
ATOM     19  C   UNL d   1      20.136 -20.291   1.149  0.00  0.00     0.029 A 
ATOM     20  C   UNL d   1      18.956 -20.981   0.878  0.00  0.00     0.003 A 
ATOM     21  C   UNL d   1      18.255 -20.688  -0.283  0.00  0.00     0.019 A 
ATOM     22  C   UNL d   1      18.763 -19.712  -1.126  0.00  0.00     0.117 A 
ATOM     23  N   UNL d   1      19.905 -19.023  -0.896  0.00  0.00    -0.264 NA
ENDBRANCH  17  18
ENDBRANCH   4  17
TORSDOF 3
ENDMDL
