MODEL 1
REMARK VINA RESULT:   -10.664      0.000      0.000
REMARK INTER + INTRA:         -14.213
REMARK INTER:                 -12.752
REMARK INTRA:                  -1.461
REMARK CONF_INDEPENDENT:        2.088
REMARK UNBOUND:                -1.461
REMARK  7 active torsions:
REMARK  status: ('A' for Active; 'I' for Inactive)
REMARK    1  A    between atoms: C_11  and  N_12 
REMARK    2  A    between atoms: N_12  and  N_13 
REMARK       I    between atoms: N_13  and  C_14 
REMARK    3  A    between atoms: C_14  and  C_16 
REMARK    4  A    between atoms: C_18  and  C_19 
REMARK    5  A    between atoms: C_22  and  O_23 
REMARK    6  A    between atoms: O_23  and  C_24 
REMARK    7  A    between atoms: C_24  and  C_25 
ROOT
ATOM      1  C   UNL d   1      28.741 -14.296   1.988  0.00  0.00     0.121 A 
ATOM      2  C   UNL d   1      27.728 -15.234   1.942  0.00  0.00     0.071 A 
ATOM      3  C   UNL d   1      27.381 -15.392   0.573  0.00  0.00     0.089 A 
ATOM      4  N   UNL d   1      28.159 -14.615  -0.196  0.00  0.00    -0.174 NA
ATOM      5  N   UNL d   1      28.914 -13.919   0.681  0.00  0.00    -0.272 N 
ATOM      6  H   UNL d   1      29.562 -13.227   0.311  0.00  0.00     0.189 HD
ENDROOT
BRANCH   1   7
ATOM      7  C   UNL d   1      29.454 -13.740   3.108  0.00  0.00     0.288 C 
ATOM      8  N   UNL d   1      29.613 -14.597   4.198  0.00  0.00    -0.265 N 
ATOM      9  H   UNL d   1      29.390 -15.583   4.150  0.00  0.00     0.190 HD
ATOM     10  O   UNL d   1      29.907 -12.587   3.101  0.00  0.00    -0.264 OA
BRANCH   8  11
ATOM     11  N   UNL d   1      30.331 -14.131   5.294  0.00  0.00    -0.308 N 
ATOM     12  H   UNL d   1      31.143 -13.590   5.014  0.00  0.00     0.186 HD
BRANCH  11  13
ATOM     13  C   UNL d   1      30.023 -14.192   6.637  0.00  0.00     0.121 C 
ATOM     14  C   UNL d   1      29.758 -13.164   7.465  0.00  0.00     0.018 A 
ATOM     15  C   UNL d   1      29.713 -11.738   7.139  0.00  0.00     0.006 A 
ATOM     16  C   UNL d   1      29.442 -13.183   8.941  0.00  0.00     0.044 A 
ATOM     17  C   UNL d   1      29.898 -11.027   5.966  0.00  0.00     0.015 A 
ATOM     18  C   UNL d   1      29.405 -11.086   8.342  0.00  0.00     0.068 A 
ATOM     19  C   UNL d   1      29.780  -9.645   5.982  0.00  0.00     0.001 A 
ATOM     20  C   UNL d   1      29.477  -8.981   7.172  0.00  0.00     0.002 A 
ATOM     21  C   UNL d   1      29.287  -9.699   8.363  0.00  0.00     0.032 A 
ATOM     22  N   UNL d   1      29.244 -11.978   9.435  0.00  0.00    -0.252 NA
ATOM     23  C   UNL d   1      29.365 -14.440   9.759  0.00  0.00     0.071 C 
ENDBRANCH  11  13
ENDBRANCH   8  11
ENDBRANCH   1   7
BRANCH   3  24
ATOM     24  C   UNL d   1      26.391 -16.320   0.025  0.00  0.00    -0.005 A 
ATOM     25  C   UNL d   1      25.302 -15.868  -0.732  0.00  0.00     0.016 A 
ATOM     26  C   UNL d   1      24.258 -16.745  -1.066  0.00  0.00     0.037 A 
ATOM     27  C   UNL d   1      24.330 -18.099  -0.730  0.00  0.00     0.069 A 
ATOM     28  C   UNL d   1      25.477 -18.573  -0.094  0.00  0.00     0.037 A 
ATOM     29  C   UNL d   1      26.475 -17.684   0.324  0.00  0.00     0.016 A 
BRANCH  27  30
ATOM     30  O   UNL d   1      23.229 -18.846  -1.059  0.00  0.00    -0.347 OA
BRANCH  30  31
ATOM     31  C   UNL d   1      21.985 -18.145  -1.101  0.00  0.00     0.214 C 
BRANCH  31  32
ATOM     32  C   UNL d   1      20.902 -18.931  -0.402  0.00  0.00    -0.034 A 
ATOM     33  C   UNL d   1      21.014 -19.323   0.938  0.00  0.00     0.010 A 
ATOM     34  C   UNL d   1      20.058 -20.170   1.508  0.00  0.00     0.007 A 
ATOM     35  C   UNL d   1      18.933 -20.563   0.776  0.00  0.00    -0.062 A 
ATOM     36  C   UNL d   1      17.928 -21.515   1.351  0.00  0.00     0.048 C 
ATOM     37  C   UNL d   1      18.765 -20.080  -0.525  0.00  0.00     0.007 A 
ATOM     38  C   UNL d   1      19.772 -19.328  -1.127  0.00  0.00     0.010 A 
ENDBRANCH  31  32
ENDBRANCH  30  31
ENDBRANCH  27  30
ENDBRANCH   3  24
TORSDOF 7
ENDMDL
MODEL 2
REMARK VINA RESULT:   -10.633      0.725      2.112
REMARK INTER + INTRA:         -13.758
REMARK INTER:                 -12.722
REMARK INTRA:                  -1.036
REMARK CONF_INDEPENDENT:        2.088
REMARK UNBOUND:                -1.036
REMARK  7 active torsions:
REMARK  status: ('A' for Active; 'I' for Inactive)
REMARK    1  A    between atoms: C_11  and  N_12 
REMARK    2  A    between atoms: N_12  and  N_13 
REMARK       I    between atoms: N_13  and  C_14 
REMARK    3  A    between atoms: C_14  and  C_16 
REMARK    4  A    between atoms: C_18  and  C_19 
REMARK    5  A    between atoms: C_22  and  O_23 
REMARK    6  A    between atoms: O_23  and  C_24 
REMARK    7  A    between atoms: C_24  and  C_25 
ROOT
ATOM      1  C   UNL d   1      28.529 -13.928   1.731  0.00  0.00     0.121 A 
ATOM      2  C   UNL d   1      27.673 -15.012   1.762  0.00  0.00     0.071 A 
ATOM      3  C   UNL d   1      27.180 -15.178   0.439  0.00  0.00     0.089 A 
ATOM      4  N   UNL d   1      27.725 -14.264  -0.378  0.00  0.00    -0.174 NA
ATOM      5  N   UNL d   1      28.472 -13.486   0.435  0.00  0.00    -0.272 N 
ATOM      6  H   UNL d   1      28.954 -12.689   0.024  0.00  0.00     0.189 HD
ENDROOT
BRANCH   1   7
ATOM      7  C   UNL d   1      29.289 -13.303   2.782  0.00  0.00     0.288 C 
ATOM      8  N   UNL d   1      29.566 -14.118   3.881  0.00  0.00    -0.265 N 
ATOM      9  H   UNL d   1      29.391 -15.115   3.877  0.00  0.00     0.190 HD
ATOM     10  O   UNL d   1      29.681 -12.130   2.712  0.00  0.00    -0.264 OA
BRANCH   8  11
ATOM     11  N   UNL d   1      30.333 -13.584   4.911  0.00  0.00    -0.308 N 
ATOM     12  H   UNL d   1      31.040 -14.237   5.237  0.00  0.00     0.186 HD
BRANCH  11  13
ATOM     13  C   UNL d   1      30.347 -12.304   5.424  0.00  0.00     0.121 C 
ATOM     14  C   UNL d   1      29.981 -11.911   6.659  0.00  0.00     0.018 A 
ATOM     15  C   UNL d   1      29.499 -12.746   7.760  0.00  0.00     0.006 A 
ATOM     16  C   UNL d   1      29.956 -10.523   7.252  0.00  0.00     0.044 A 
ATOM     17  C   UNL d   1      29.289 -14.107   7.897  0.00  0.00     0.015 A 
ATOM     18  C   UNL d   1      29.247 -11.863   8.820  0.00  0.00     0.068 A 
ATOM     19  C   UNL d   1      28.817 -14.606   9.102  0.00  0.00     0.001 A 
ATOM     20  C   UNL d   1      28.560 -13.740  10.165  0.00  0.00     0.002 A 
ATOM     21  C   UNL d   1      28.773 -12.358  10.031  0.00  0.00     0.032 A 
ATOM     22  N   UNL d   1      29.528 -10.509   8.498  0.00  0.00    -0.252 NA
ATOM     23  C   UNL d   1      30.371  -9.290   6.501  0.00  0.00     0.071 C 
ENDBRANCH  11  13
ENDBRANCH   8  11
ENDBRANCH   1   7
BRANCH   3  24
ATOM     24  C   UNL d   1      26.279 -16.232  -0.030  0.00  0.00    -0.005 A 
ATOM     25  C   UNL d   1      25.343 -15.997  -1.046  0.00  0.00     0.016 A 
ATOM     26  C   UNL d   1      24.354 -16.952  -1.332  0.00  0.00     0.037 A 
ATOM     27  C   UNL d   1      24.343 -18.185  -0.676  0.00  0.00     0.069 A 
ATOM     28  C   UNL d   1      25.357 -18.468   0.239  0.00  0.00     0.037 A 
ATOM     29  C   UNL d   1      26.287 -17.483   0.595  0.00  0.00     0.016 A 
BRANCH  27  30
ATOM     30  O   UNL d   1      23.300 -19.014  -0.998  0.00  0.00    -0.347 OA
BRANCH  30  31
ATOM     31  C   UNL d   1      22.052 -18.374  -1.271  0.00  0.00     0.214 C 
BRANCH  31  32
ATOM     32  C   UNL d   1      20.930 -19.039  -0.509  0.00  0.00    -0.034 A 
ATOM     33  C   UNL d   1      21.026 -19.322   0.860  0.00  0.00     0.010 A 
ATOM     34  C   UNL d   1      20.027 -20.064   1.498  0.00  0.00     0.007 A 
ATOM     35  C   UNL d   1      18.880 -20.457   0.800  0.00  0.00    -0.062 A 
ATOM     36  C   UNL d   1      17.828 -21.302   1.452  0.00  0.00     0.048 C 
ATOM     37  C   UNL d   1      18.734 -20.078  -0.537  0.00  0.00     0.007 A 
ATOM     38  C   UNL d   1      19.778 -19.435  -1.200  0.00  0.00     0.010 A 
ENDBRANCH  31  32
ENDBRANCH  30  31
ENDBRANCH  27  30
ENDBRANCH   3  24
TORSDOF 7
ENDMDL
MODEL 3
REMARK VINA RESULT:    -9.509      1.771      2.693
REMARK INTER + INTRA:         -12.717
REMARK INTER:                 -11.597
REMARK INTRA:                  -1.120
REMARK CONF_INDEPENDENT:        2.088
REMARK UNBOUND:                -1.120
REMARK  7 active torsions:
REMARK  status: ('A' for Active; 'I' for Inactive)
REMARK    1  A    between atoms: C_11  and  N_12 
REMARK    2  A    between atoms: N_12  and  N_13 
REMARK       I    between atoms: N_13  and  C_14 
REMARK    3  A    between atoms: C_14  and  C_16 
REMARK    4  A    between atoms: C_18  and  C_19 
REMARK    5  A    between atoms: C_22  and  O_23 
REMARK    6  A    between atoms: O_23  and  C_24 
REMARK    7  A    between atoms: C_24  and  C_25 
ROOT
ATOM      1  C   UNL d   1      29.885 -15.168   0.323  0.00  0.00     0.121 A 
ATOM      2  C   UNL d   1      28.548 -15.366   0.607  0.00  0.00     0.071 A 
ATOM      3  C   UNL d   1      27.984 -16.015  -0.525  0.00  0.00     0.089 A 
ATOM      4  N   UNL d   1      28.927 -16.237  -1.452  0.00  0.00    -0.174 NA
ATOM      5  N   UNL d   1      30.038 -15.656  -0.949  0.00  0.00    -0.272 N 
ATOM      6  H   UNL d   1      30.884 -15.670  -1.515  0.00  0.00     0.189 HD
ENDROOT
BRANCH   1   7
ATOM      7  C   UNL d   1      30.925 -14.542   1.096  0.00  0.00     0.288 C 
ATOM      8  N   UNL d   1      30.887 -14.804   2.467  0.00  0.00    -0.265 N 
ATOM      9  H   UNL d   1      30.279 -15.505   2.869  0.00  0.00     0.190 HD
ATOM     10  O   UNL d   1      31.800 -13.831   0.582  0.00  0.00    -0.264 OA
BRANCH   8  11
ATOM     11  N   UNL d   1      31.892 -14.262   3.262  0.00  0.00    -0.308 N 
ATOM     12  H   UNL d   1      32.555 -14.967   3.569  0.00  0.00     0.186 HD
BRANCH  11  13
ATOM     13  C   UNL d   1      32.164 -12.942   3.556  0.00  0.00     0.121 C 
ATOM     14  C   UNL d   1      31.548 -12.159   4.463  0.00  0.00     0.018 A 
ATOM     15  C   UNL d   1      30.458 -12.523   5.368  0.00  0.00     0.006 A 
ATOM     16  C   UNL d   1      31.796 -10.709   4.798  0.00  0.00     0.044 A 
ATOM     17  C   UNL d   1      29.759 -13.698   5.589  0.00  0.00     0.015 A 
ATOM     18  C   UNL d   1      30.171 -11.361   6.098  0.00  0.00     0.068 A 
ATOM     19  C   UNL d   1      28.756 -13.724   6.546  0.00  0.00     0.001 A 
ATOM     20  C   UNL d   1      28.457 -12.574   7.279  0.00  0.00     0.002 A 
ATOM     21  C   UNL d   1      29.165 -11.381   7.060  0.00  0.00     0.032 A 
ATOM     22  N   UNL d   1      30.993 -10.260   5.740  0.00  0.00    -0.252 NA
ATOM     23  C   UNL d   1      32.844  -9.867   4.127  0.00  0.00     0.071 C 
ENDBRANCH  11  13
ENDBRANCH   8  11
ENDBRANCH   1   7
BRANCH   3  24
ATOM     24  C   UNL d   1      26.601 -16.475  -0.667  0.00  0.00    -0.005 A 
ATOM     25  C   UNL d   1      25.684 -15.801  -1.484  0.00  0.00     0.016 A 
ATOM     26  C   UNL d   1      24.321 -16.133  -1.442  0.00  0.00     0.037 A 
ATOM     27  C   UNL d   1      23.870 -17.196  -0.657  0.00  0.00     0.069 A 
ATOM     28  C   UNL d   1      24.805 -17.952   0.051  0.00  0.00     0.037 A 
ATOM     29  C   UNL d   1      26.150 -17.564   0.086  0.00  0.00     0.016 A 
BRANCH  27  30
ATOM     30  O   UNL d   1      22.513 -17.392  -0.653  0.00  0.00    -0.347 OA
BRANCH  30  31
ATOM     31  C   UNL d   1      22.052 -18.595  -1.272  0.00  0.00     0.214 C 
BRANCH  31  32
ATOM     32  C   UNL d   1      20.892 -19.182  -0.504  0.00  0.00    -0.034 A 
ATOM     33  C   UNL d   1      20.949 -19.399   0.879  0.00  0.00     0.010 A 
ATOM     34  C   UNL d   1      19.911 -20.073   1.530  0.00  0.00     0.007 A 
ATOM     35  C   UNL d   1      18.765 -20.460   0.826  0.00  0.00    -0.062 A 
ATOM     36  C   UNL d   1      17.670 -21.234   1.496  0.00  0.00     0.048 C 
ATOM     37  C   UNL d   1      18.661 -20.144  -0.531  0.00  0.00     0.007 A 
ATOM     38  C   UNL d   1      19.741 -19.571  -1.200  0.00  0.00     0.010 A 
ENDBRANCH  31  32
ENDBRANCH  30  31
ENDBRANCH  27  30
ENDBRANCH   3  24
TORSDOF 7
ENDMDL
MODEL 4
REMARK VINA RESULT:    -9.113      4.449      6.046
REMARK INTER + INTRA:         -12.329
REMARK INTER:                 -11.201
REMARK INTRA:                  -1.128
REMARK CONF_INDEPENDENT:        2.088
REMARK UNBOUND:                -1.128
REMARK  7 active torsions:
REMARK  status: ('A' for Active; 'I' for Inactive)
REMARK    1  A    between atoms: C_11  and  N_12 
REMARK    2  A    between atoms: N_12  and  N_13 
REMARK       I    between atoms: N_13  and  C_14 
REMARK    3  A    between atoms: C_14  and  C_16 
REMARK    4  A    between atoms: C_18  and  C_19 
REMARK    5  A    between atoms: C_22  and  O_23 
REMARK    6  A    between atoms: O_23  and  C_24 
REMARK    7  A    between atoms: C_24  and  C_25 
ROOT
ATOM      1  C   UNL d   1      29.315 -14.937   0.706  0.00  0.00     0.121 A 
ATOM      2  C   UNL d   1      28.652 -16.061   0.254  0.00  0.00     0.071 A 
ATOM      3  C   UNL d   1      27.274 -15.722   0.190  0.00  0.00     0.089 A 
ATOM      4  N   UNL d   1      27.092 -14.444   0.554  0.00  0.00    -0.174 NA
ATOM      5  N   UNL d   1      28.320 -14.021   0.925  0.00  0.00    -0.272 N 
ATOM      6  H   UNL d   1      28.412 -13.071   1.282  0.00  0.00     0.189 HD
ENDROOT
BRANCH   1   7
ATOM      7  C   UNL d   1      30.712 -14.718   0.976  0.00  0.00     0.288 C 
ATOM      8  N   UNL d   1      31.114 -14.985   2.286  0.00  0.00    -0.265 N 
ATOM      9  H   UNL d   1      30.514 -15.451   2.955  0.00  0.00     0.190 HD
ATOM     10  O   UNL d   1      31.505 -14.331   0.107  0.00  0.00    -0.264 OA
BRANCH   8  11
ATOM     11  N   UNL d   1      32.461 -14.833   2.598  0.00  0.00    -0.308 N 
ATOM     12  H   UNL d   1      32.600 -14.593   3.575  0.00  0.00     0.186 HD
BRANCH  11  13
ATOM     13  C   UNL d   1      33.576 -15.087   1.827  0.00  0.00     0.121 C 
ATOM     14  C   UNL d   1      34.153 -16.280   1.586  0.00  0.00     0.018 A 
ATOM     15  C   UNL d   1      33.727 -17.595   2.065  0.00  0.00     0.006 A 
ATOM     16  C   UNL d   1      35.384 -16.598   0.774  0.00  0.00     0.044 A 
ATOM     17  C   UNL d   1      32.669 -18.023   2.849  0.00  0.00     0.015 A 
ATOM     18  C   UNL d   1      34.660 -18.505   1.546  0.00  0.00     0.068 A 
ATOM     19  C   UNL d   1      32.533 -19.374   3.129  0.00  0.00     0.001 A 
ATOM     20  C   UNL d   1      33.454 -20.291   2.622  0.00  0.00     0.002 A 
ATOM     21  C   UNL d   1      34.527 -19.862   1.825  0.00  0.00     0.032 A 
ATOM     22  N   UNL d   1      35.667 -17.885   0.761  0.00  0.00    -0.252 NA
ATOM     23  C   UNL d   1      36.201 -15.560   0.058  0.00  0.00     0.071 C 
ENDBRANCH  11  13
ENDBRANCH   8  11
ENDBRANCH   1   7
BRANCH   3  24
ATOM     24  C   UNL d   1      26.185 -16.578  -0.284  0.00  0.00    -0.005 A 
ATOM     25  C   UNL d   1      25.313 -16.162  -1.298  0.00  0.00     0.016 A 
ATOM     26  C   UNL d   1      24.157 -16.905  -1.588  0.00  0.00     0.037 A 
ATOM     27  C   UNL d   1      23.905 -18.115  -0.936  0.00  0.00     0.069 A 
ATOM     28  C   UNL d   1      24.845 -18.594  -0.022  0.00  0.00     0.037 A 
ATOM     29  C   UNL d   1      25.948 -17.809   0.337  0.00  0.00     0.016 A 
BRANCH  27  30
ATOM     30  O   UNL d   1      22.721 -18.724  -1.261  0.00  0.00    -0.347 OA
BRANCH  30  31
ATOM     31  C   UNL d   1      21.534 -18.021  -0.892  0.00  0.00     0.214 C 
BRANCH  31  32
ATOM     32  C   UNL d   1      20.538 -18.953  -0.243  0.00  0.00    -0.034 A 
ATOM     33  C   UNL d   1      20.680 -19.388   1.081  0.00  0.00     0.010 A 
ATOM     34  C   UNL d   1      19.819 -20.360   1.601  0.00  0.00     0.007 A 
ATOM     35  C   UNL d   1      18.753 -20.844   0.836  0.00  0.00    -0.062 A 
ATOM     36  C   UNL d   1      17.856 -21.927   1.355  0.00  0.00     0.048 C 
ATOM     37  C   UNL d   1      18.545 -20.327  -0.446  0.00  0.00     0.007 A 
ATOM     38  C   UNL d   1      19.467 -19.442  -1.001  0.00  0.00     0.010 A 
ENDBRANCH  31  32
ENDBRANCH  30  31
ENDBRANCH  27  30
ENDBRANCH   3  24
TORSDOF 7
ENDMDL
MODEL 5
REMARK VINA RESULT:    -9.049      1.696      2.910
REMARK INTER + INTRA:         -12.335
REMARK INTER:                 -11.138
REMARK INTRA:                  -1.197
REMARK CONF_INDEPENDENT:        2.088
REMARK UNBOUND:                -1.197
REMARK  7 active torsions:
REMARK  status: ('A' for Active; 'I' for Inactive)
REMARK    1  A    between atoms: C_11  and  N_12 
REMARK    2  A    between atoms: N_12  and  N_13 
REMARK       I    between atoms: N_13  and  C_14 
REMARK    3  A    between atoms: C_14  and  C_16 
REMARK    4  A    between atoms: C_18  and  C_19 
REMARK    5  A    between atoms: C_22  and  O_23 
REMARK    6  A    between atoms: O_23  and  C_24 
REMARK    7  A    between atoms: C_24  and  C_25 
ROOT
ATOM      1  C   UNL d   1      28.637 -13.439   0.275  0.00  0.00     0.121 A 
ATOM      2  C   UNL d   1      27.410 -14.071   0.323  0.00  0.00     0.071 A 
ATOM      3  C   UNL d   1      27.539 -15.267  -0.432  0.00  0.00     0.089 A 
ATOM      4  N   UNL d   1      28.790 -15.389  -0.900  0.00  0.00    -0.174 NA
ATOM      5  N   UNL d   1      29.405 -14.248  -0.522  0.00  0.00    -0.272 N 
ATOM      6  H   UNL d   1      30.371 -14.106  -0.810  0.00  0.00     0.189 HD
ENDROOT
BRANCH   1   7
ATOM      7  C   UNL d   1      29.072 -12.189   0.843  0.00  0.00     0.288 C 
ATOM      8  N   UNL d   1      28.178 -11.600   1.739  0.00  0.00    -0.265 N 
ATOM      9  H   UNL d   1      27.361 -12.084   2.089  0.00  0.00     0.190 HD
ATOM     10  O   UNL d   1      30.166 -11.678   0.568  0.00  0.00    -0.264 OA
BRANCH   8  11
ATOM     11  N   UNL d   1      28.559 -10.412   2.354  0.00  0.00    -0.308 N 
ATOM     12  H   UNL d   1      28.110  -9.605   1.932  0.00  0.00     0.186 HD
BRANCH  11  13
ATOM     13  C   UNL d   1      29.320 -10.214   3.487  0.00  0.00     0.121 C 
ATOM     14  C   UNL d   1      29.481 -11.057   4.525  0.00  0.00     0.018 A 
ATOM     15  C   UNL d   1      28.907 -12.392   4.694  0.00  0.00     0.006 A 
ATOM     16  C   UNL d   1      30.280 -10.870   5.792  0.00  0.00     0.044 A 
ATOM     17  C   UNL d   1      28.085 -13.178   3.904  0.00  0.00     0.015 A 
ATOM     18  C   UNL d   1      29.368 -12.846   5.938  0.00  0.00     0.068 A 
ATOM     19  C   UNL d   1      27.709 -14.435   4.354  0.00  0.00     0.001 A 
ATOM     20  C   UNL d   1      28.158 -14.900   5.591  0.00  0.00     0.002 A 
ATOM     21  C   UNL d   1      28.993 -14.106   6.393  0.00  0.00     0.032 A 
ATOM     22  N   UNL d   1      30.204 -11.908   6.599  0.00  0.00    -0.252 NA
ATOM     23  C   UNL d   1      31.074  -9.633   6.100  0.00  0.00     0.071 C 
ENDBRANCH  11  13
ENDBRANCH   8  11
ENDBRANCH   1   7
BRANCH   3  24
ATOM     24  C   UNL d   1      26.513 -16.293  -0.624  0.00  0.00    -0.005 A 
ATOM     25  C   UNL d   1      25.513 -16.158  -1.597  0.00  0.00     0.016 A 
ATOM     26  C   UNL d   1      24.424 -17.044  -1.622  0.00  0.00     0.037 A 
ATOM     27  C   UNL d   1      24.365 -18.126  -0.741  0.00  0.00     0.069 A 
ATOM     28  C   UNL d   1      25.430 -18.336   0.137  0.00  0.00     0.037 A 
ATOM     29  C   UNL d   1      26.468 -17.401   0.229  0.00  0.00     0.016 A 
BRANCH  27  30
ATOM     30  O   UNL d   1      23.231 -18.890  -0.822  0.00  0.00    -0.347 OA
BRANCH  30  31
ATOM     31  C   UNL d   1      21.999 -18.174  -0.926  0.00  0.00     0.214 C 
BRANCH  31  32
ATOM     32  C   UNL d   1      20.872 -18.948  -0.285  0.00  0.00    -0.034 A 
ATOM     33  C   UNL d   1      20.902 -19.325   1.064  0.00  0.00     0.010 A 
ATOM     34  C   UNL d   1      19.909 -20.161   1.585  0.00  0.00     0.007 A 
ATOM     35  C   UNL d   1      18.829 -20.559   0.790  0.00  0.00    -0.062 A 
ATOM     36  C   UNL d   1      17.787 -21.501   1.315  0.00  0.00     0.048 C 
ATOM     37  C   UNL d   1      18.742 -20.091  -0.524  0.00  0.00     0.007 A 
ATOM     38  C   UNL d   1      19.786 -19.349  -1.073  0.00  0.00     0.010 A 
ENDBRANCH  31  32
ENDBRANCH  30  31
ENDBRANCH  27  30
ENDBRANCH   3  24
TORSDOF 7
ENDMDL
MODEL 6
REMARK VINA RESULT:    -9.030      2.845     11.590
REMARK INTER + INTRA:         -12.612
REMARK INTER:                 -11.119
REMARK INTRA:                  -1.494
REMARK CONF_INDEPENDENT:        2.088
REMARK UNBOUND:                -1.494
REMARK  7 active torsions:
REMARK  status: ('A' for Active; 'I' for Inactive)
REMARK    1  A    between atoms: C_11  and  N_12 
REMARK    2  A    between atoms: N_12  and  N_13 
REMARK       I    between atoms: N_13  and  C_14 
REMARK    3  A    between atoms: C_14  and  C_16 
REMARK    4  A    between atoms: C_18  and  C_19 
REMARK    5  A    between atoms: C_22  and  O_23 
REMARK    6  A    between atoms: O_23  and  C_24 
REMARK    7  A    between atoms: C_24  and  C_25 
ROOT
ATOM      1  C   UNL d   1      28.068 -14.238   3.224  0.00  0.00     0.121 A 
ATOM      2  C   UNL d   1      28.152 -13.045   3.914  0.00  0.00     0.071 A 
ATOM      3  C   UNL d   1      28.419 -13.377   5.270  0.00  0.00     0.089 A 
ATOM      4  N   UNL d   1      28.526 -14.706   5.410  0.00  0.00    -0.174 NA
ATOM      5  N   UNL d   1      28.241 -15.200   4.186  0.00  0.00    -0.272 N 
ATOM      6  H   UNL d   1      28.225 -16.211   4.069  0.00  0.00     0.189 HD
ENDROOT
BRANCH   1   7
ATOM      7  C   UNL d   1      27.798 -14.502   1.835  0.00  0.00     0.288 C 
ATOM      8  N   UNL d   1      28.786 -15.222   1.162  0.00  0.00    -0.265 N 
ATOM      9  H   UNL d   1      29.557 -15.667   1.644  0.00  0.00     0.190 HD
ATOM     10  O   UNL d   1      26.757 -14.127   1.277  0.00  0.00    -0.264 OA
BRANCH   8  11
ATOM     11  N   UNL d   1      28.564 -15.545  -0.172  0.00  0.00    -0.308 N 
ATOM     12  H   UNL d   1      29.005 -16.423  -0.430  0.00  0.00     0.186 HD
BRANCH  11  13
ATOM     13  C   UNL d   1      27.752 -14.930  -1.102  0.00  0.00     0.121 C 
ATOM     14  C   UNL d   1      26.491 -15.262  -1.438  0.00  0.00     0.018 A 
ATOM     15  C   UNL d   1      25.671 -16.342  -0.887  0.00  0.00     0.006 A 
ATOM     16  C   UNL d   1      25.579 -14.635  -2.464  0.00  0.00     0.044 A 
ATOM     17  C   UNL d   1      25.890 -17.295   0.093  0.00  0.00     0.015 A 
ATOM     18  C   UNL d   1      24.449 -16.274  -1.572  0.00  0.00     0.068 A 
ATOM     19  C   UNL d   1      24.886 -18.201   0.398  0.00  0.00     0.001 A 
ATOM     20  C   UNL d   1      23.665 -18.148  -0.277  0.00  0.00     0.002 A 
ATOM     21  C   UNL d   1      23.438 -17.181  -1.270  0.00  0.00     0.032 A 
ATOM     22  N   UNL d   1      24.405 -15.230  -2.534  0.00  0.00    -0.252 NA
ATOM     23  C   UNL d   1      25.968 -13.461  -3.316  0.00  0.00     0.071 C 
ENDBRANCH  11  13
ENDBRANCH   8  11
ENDBRANCH   1   7
BRANCH   3  24
ATOM     24  C   UNL d   1      28.642 -12.438   6.370  0.00  0.00    -0.005 A 
ATOM     25  C   UNL d   1      29.406 -11.276   6.200  0.00  0.00     0.016 A 
ATOM     26  C   UNL d   1      29.781 -10.505   7.311  0.00  0.00     0.037 A 
ATOM     27  C   UNL d   1      29.324 -10.829   8.591  0.00  0.00     0.069 A 
ATOM     28  C   UNL d   1      28.453 -11.909   8.739  0.00  0.00     0.037 A 
ATOM     29  C   UNL d   1      28.155 -12.735   7.647  0.00  0.00     0.016 A 
BRANCH  27  30
ATOM     30  O   UNL d   1      29.798 -10.038   9.604  0.00  0.00    -0.347 OA
BRANCH  30  31
ATOM     31  C   UNL d   1      31.003 -10.480  10.232  0.00  0.00     0.214 C 
BRANCH  31  32
ATOM     32  C   UNL d   1      31.052 -11.988  10.296  0.00  0.00    -0.034 A 
ATOM     33  C   UNL d   1      31.757 -12.750   9.356  0.00  0.00     0.010 A 
ATOM     34  C   UNL d   1      31.663 -14.145   9.364  0.00  0.00     0.007 A 
ATOM     35  C   UNL d   1      30.936 -14.800  10.364  0.00  0.00    -0.062 A 
ATOM     36  C   UNL d   1      30.777 -16.291  10.355  0.00  0.00     0.048 C 
ATOM     37  C   UNL d   1      30.325 -14.044  11.367  0.00  0.00     0.007 A 
ATOM     38  C   UNL d   1      30.328 -12.652  11.294  0.00  0.00     0.010 A 
ENDBRANCH  31  32
ENDBRANCH  30  31
ENDBRANCH  27  30
ENDBRANCH   3  24
TORSDOF 7
ENDMDL
MODEL 7
REMARK VINA RESULT:    -9.019      6.111      9.977
REMARK INTER + INTRA:         -12.760
REMARK INTER:                 -11.108
REMARK INTRA:                  -1.652
REMARK CONF_INDEPENDENT:        2.088
REMARK UNBOUND:                -1.652
REMARK  7 active torsions:
REMARK  status: ('A' for Active; 'I' for Inactive)
REMARK    1  A    between atoms: C_11  and  N_12 
REMARK    2  A    between atoms: N_12  and  N_13 
REMARK       I    between atoms: N_13  and  C_14 
REMARK    3  A    between atoms: C_14  and  C_16 
REMARK    4  A    between atoms: C_18  and  C_19 
REMARK    5  A    between atoms: C_22  and  O_23 
REMARK    6  A    between atoms: O_23  and  C_24 
REMARK    7  A    between atoms: C_24  and  C_25 
ROOT
ATOM      1  C   UNL d   1      30.307 -15.845  -2.126  0.00  0.00     0.121 A 
ATOM      2  C   UNL d   1      29.249 -16.733  -2.105  0.00  0.00     0.071 A 
ATOM      3  C   UNL d   1      28.262 -16.170  -1.251  0.00  0.00     0.089 A 
ATOM      4  N   UNL d   1      28.672 -14.980  -0.789  0.00  0.00    -0.174 NA
ATOM      5  N   UNL d   1      29.926 -14.844  -1.271  0.00  0.00    -0.272 N 
ATOM      6  H   UNL d   1      30.454 -14.013  -1.007  0.00  0.00     0.189 HD
ENDROOT
BRANCH   1   7
ATOM      7  C   UNL d   1      31.574 -15.913  -2.805  0.00  0.00     0.288 C 
ATOM      8  N   UNL d   1      31.578 -15.417  -4.109  0.00  0.00    -0.265 N 
ATOM      9  H   UNL d   1      30.798 -14.902  -4.497  0.00  0.00     0.190 HD
ATOM     10  O   UNL d   1      32.594 -16.366  -2.266  0.00  0.00    -0.264 OA
BRANCH   8  11
ATOM     11  N   UNL d   1      32.784 -15.416  -4.802  0.00  0.00    -0.308 N 
ATOM     12  H   UNL d   1      33.583 -15.416  -4.175  0.00  0.00     0.186 HD
BRANCH  11  13
ATOM     13  C   UNL d   1      33.021 -15.546  -6.155  0.00  0.00     0.121 C 
ATOM     14  C   UNL d   1      32.626 -16.547  -6.965  0.00  0.00     0.018 A 
ATOM     15  C   UNL d   1      31.836 -17.727  -6.612  0.00  0.00     0.006 A 
ATOM     16  C   UNL d   1      32.885 -16.741  -8.439  0.00  0.00     0.044 A 
ATOM     17  C   UNL d   1      31.264 -18.167  -5.431  0.00  0.00     0.015 A 
ATOM     18  C   UNL d   1      31.705 -18.461  -7.800  0.00  0.00     0.068 A 
ATOM     19  C   UNL d   1      30.552 -19.358  -5.422  0.00  0.00     0.001 A 
ATOM     20  C   UNL d   1      30.414 -20.100  -6.595  0.00  0.00     0.002 A 
ATOM     21  C   UNL d   1      30.991 -19.656  -7.796  0.00  0.00     0.032 A 
ATOM     22  N   UNL d   1      32.350 -17.850  -8.907  0.00  0.00    -0.252 NA
ATOM     23  C   UNL d   1      33.669 -15.776  -9.281  0.00  0.00     0.071 C 
ENDBRANCH  11  13
ENDBRANCH   8  11
ENDBRANCH   1   7
BRANCH   3  24
ATOM     24  C   UNL d   1      26.940 -16.726  -0.960  0.00  0.00    -0.005 A 
ATOM     25  C   UNL d   1      26.739 -17.626   0.094  0.00  0.00     0.016 A 
ATOM     26  C   UNL d   1      25.517 -18.305   0.224  0.00  0.00     0.037 A 
ATOM     27  C   UNL d   1      24.453 -18.028  -0.638  0.00  0.00     0.069 A 
ATOM     28  C   UNL d   1      24.612 -17.033  -1.603  0.00  0.00     0.037 A 
ATOM     29  C   UNL d   1      25.859 -16.424  -1.795  0.00  0.00     0.016 A 
BRANCH  27  30
ATOM     30  O   UNL d   1      23.329 -18.789  -0.450  0.00  0.00    -0.347 OA
BRANCH  30  31
ATOM     31  C   UNL d   1      22.083 -18.141  -0.712  0.00  0.00     0.214 C 
BRANCH  31  32
ATOM     32  C   UNL d   1      20.934 -18.938  -0.142  0.00  0.00    -0.034 A 
ATOM     33  C   UNL d   1      20.893 -19.327   1.203  0.00  0.00     0.010 A 
ATOM     34  C   UNL d   1      19.885 -20.182   1.661  0.00  0.00     0.007 A 
ATOM     35  C   UNL d   1      18.858 -20.589   0.803  0.00  0.00    -0.062 A 
ATOM     36  C   UNL d   1      17.803 -21.552   1.260  0.00  0.00     0.048 C 
ATOM     37  C   UNL d   1      18.838 -20.111  -0.510  0.00  0.00     0.007 A 
ATOM     38  C   UNL d   1      19.900 -19.349  -0.993  0.00  0.00     0.010 A 
ENDBRANCH  31  32
ENDBRANCH  30  31
ENDBRANCH  27  30
ENDBRANCH   3  24
TORSDOF 7
ENDMDL
MODEL 8
REMARK VINA RESULT:    -9.017      7.175     11.568
REMARK INTER + INTRA:         -12.870
REMARK INTER:                 -11.105
REMARK INTRA:                  -1.765
REMARK CONF_INDEPENDENT:        2.088
REMARK UNBOUND:                -1.765
REMARK  7 active torsions:
REMARK  status: ('A' for Active; 'I' for Inactive)
REMARK    1  A    between atoms: C_11  and  N_12 
REMARK    2  A    between atoms: N_12  and  N_13 
REMARK       I    between atoms: N_13  and  C_14 
REMARK    3  A    between atoms: C_14  and  C_16 
REMARK    4  A    between atoms: C_18  and  C_19 
REMARK    5  A    between atoms: C_22  and  O_23 
REMARK    6  A    between atoms: O_23  and  C_24 
REMARK    7  A    between atoms: C_24  and  C_25 
ROOT
ATOM      1  C   UNL d   1      30.145 -16.109  -6.845  0.00  0.00     0.121 A 
ATOM      2  C   UNL d   1      29.808 -16.313  -5.521  0.00  0.00     0.071 A 
ATOM      3  C   UNL d   1      28.706 -15.459  -5.247  0.00  0.00     0.089 A 
ATOM      4  N   UNL d   1      28.356 -14.782  -6.350  0.00  0.00    -0.174 NA
ATOM      5  N   UNL d   1      29.278 -15.137  -7.271  0.00  0.00    -0.272 N 
ATOM      6  H   UNL d   1      29.228 -14.704  -8.191  0.00  0.00     0.189 HD
ENDROOT
BRANCH   1   7
ATOM      7  C   UNL d   1      31.191 -16.690  -7.646  0.00  0.00     0.288 C 
ATOM      8  N   UNL d   1      31.005 -18.030  -7.988  0.00  0.00    -0.265 N 
ATOM      9  H   UNL d   1      30.131 -18.515  -7.827  0.00  0.00     0.190 HD
ATOM     10  O   UNL d   1      32.181 -16.044  -8.017  0.00  0.00    -0.264 OA
BRANCH   8  11
ATOM     11  N   UNL d   1      31.960 -18.635  -8.797  0.00  0.00    -0.308 N 
ATOM     12  H   UNL d   1      32.571 -17.954  -9.238  0.00  0.00     0.186 HD
BRANCH  11  13
ATOM     13  C   UNL d   1      32.254 -19.973  -8.960  0.00  0.00     0.121 C 
ATOM     14  C   UNL d   1      32.194 -20.946  -8.031  0.00  0.00     0.018 A 
ATOM     15  C   UNL d   1      31.783 -20.825  -6.632  0.00  0.00     0.006 A 
ATOM     16  C   UNL d   1      32.531 -22.411  -8.160  0.00  0.00     0.044 A 
ATOM     17  C   UNL d   1      31.343 -19.764  -5.860  0.00  0.00     0.015 A 
ATOM     18  C   UNL d   1      31.903 -22.114  -6.092  0.00  0.00     0.068 A 
ATOM     19  C   UNL d   1      31.018 -19.978  -4.529  0.00  0.00     0.001 A 
ATOM     20  C   UNL d   1      31.133 -21.255  -3.977  0.00  0.00     0.002 A 
ATOM     21  C   UNL d   1      31.578 -22.334  -4.757  0.00  0.00     0.032 A 
ATOM     22  N   UNL d   1      32.361 -23.073  -7.033  0.00  0.00    -0.252 NA
ATOM     23  C   UNL d   1      33.009 -23.047  -9.434  0.00  0.00     0.071 C 
ENDBRANCH  11  13
ENDBRANCH   8  11
ENDBRANCH   1   7
BRANCH   3  24
ATOM     24  C   UNL d   1      27.968 -15.364  -3.986  0.00  0.00    -0.005 A 
ATOM     25  C   UNL d   1      28.601 -15.553  -2.750  0.00  0.00     0.016 A 
ATOM     26  C   UNL d   1      27.841 -15.665  -1.574  0.00  0.00     0.037 A 
ATOM     27  C   UNL d   1      26.455 -15.501  -1.604  0.00  0.00     0.069 A 
ATOM     28  C   UNL d   1      25.842 -15.179  -2.815  0.00  0.00     0.037 A 
ATOM     29  C   UNL d   1      26.585 -15.160  -4.003  0.00  0.00     0.016 A 
BRANCH  27  30
ATOM     30  O   UNL d   1      25.814 -15.686  -0.406  0.00  0.00    -0.347 OA
BRANCH  30  31
ATOM     31  C   UNL d   1      25.628 -17.043   0.001  0.00  0.00     0.214 C 
BRANCH  31  32
ATOM     32  C   UNL d   1      24.237 -17.520  -0.341  0.00  0.00    -0.034 A 
ATOM     33  C   UNL d   1      23.220 -16.635  -0.722  0.00  0.00     0.010 A 
ATOM     34  C   UNL d   1      21.911 -17.096  -0.893  0.00  0.00     0.007 A 
ATOM     35  C   UNL d   1      21.618 -18.459  -0.772  0.00  0.00    -0.062 A 
ATOM     36  C   UNL d   1      20.211 -18.963  -0.895  0.00  0.00     0.048 C 
ATOM     37  C   UNL d   1      22.654 -19.357  -0.502  0.00  0.00     0.007 A 
ATOM     38  C   UNL d   1      23.935 -18.883  -0.224  0.00  0.00     0.010 A 
ENDBRANCH  31  32
ENDBRANCH  30  31
ENDBRANCH  27  30
ENDBRANCH   3  24
TORSDOF 7
ENDMDL
MODEL 9
REMARK VINA RESULT:    -8.480      2.960      5.251
REMARK INTER + INTRA:         -12.279
REMARK INTER:                 -10.568
REMARK INTRA:                  -1.711
REMARK CONF_INDEPENDENT:        2.088
REMARK UNBOUND:                -1.711
REMARK  7 active torsions:
REMARK  status: ('A' for Active; 'I' for Inactive)
REMARK    1  A    between atoms: C_11  and  N_12 
REMARK    2  A    between atoms: N_12  and  N_13 
REMARK       I    between atoms: N_13  and  C_14 
REMARK    3  A    between atoms: C_14  and  C_16 
REMARK    4  A    between atoms: C_18  and  C_19 
REMARK    5  A    between atoms: C_22  and  O_23 
REMARK    6  A    between atoms: O_23  and  C_24 
REMARK    7  A    between atoms: C_24  and  C_25 
ROOT
ATOM      1  C   UNL d   1      29.311 -13.325   6.258  0.00  0.00     0.121 A 
ATOM      2  C   UNL d   1      29.129 -12.923   4.949  0.00  0.00     0.071 A 
ATOM      3  C   UNL d   1      28.405 -13.961   4.303  0.00  0.00     0.089 A 
ATOM      4  N   UNL d   1      28.124 -14.943   5.172  0.00  0.00    -0.174 NA
ATOM      5  N   UNL d   1      28.739 -14.569   6.315  0.00  0.00    -0.272 N 
ATOM      6  H   UNL d   1      28.689 -15.198   7.113  0.00  0.00     0.189 HD
ENDROOT
BRANCH   1   7
ATOM      7  C   UNL d   1      29.989 -12.679   7.352  0.00  0.00     0.288 C 
ATOM      8  N   UNL d   1      31.382 -12.750   7.313  0.00  0.00    -0.265 N 
ATOM      9  H   UNL d   1      31.887 -13.085   6.503  0.00  0.00     0.190 HD
ATOM     10  O   UNL d   1      29.381 -12.090   8.257  0.00  0.00    -0.264 OA
BRANCH   8  11
ATOM     11  N   UNL d   1      32.096 -12.108   8.320  0.00  0.00    -0.308 N 
ATOM     12  H   UNL d   1      31.628 -11.265   8.639  0.00  0.00     0.186 HD
BRANCH  11  13
ATOM     13  C   UNL d   1      33.224 -12.519   8.997  0.00  0.00     0.121 C 
ATOM     14  C   UNL d   1      33.328 -13.528   9.883  0.00  0.00     0.018 A 
ATOM     15  C   UNL d   1      32.276 -14.444  10.326  0.00  0.00     0.006 A 
ATOM     16  C   UNL d   1      34.532 -13.994  10.663  0.00  0.00     0.044 A 
ATOM     17  C   UNL d   1      30.937 -14.579  10.001  0.00  0.00     0.015 A 
ATOM     18  C   UNL d   1      32.887 -15.300  11.253  0.00  0.00     0.068 A 
ATOM     19  C   UNL d   1      30.187 -15.576  10.607  0.00  0.00     0.001 A 
ATOM     20  C   UNL d   1      30.781 -16.434  11.534  0.00  0.00     0.002 A 
ATOM     21  C   UNL d   1      32.139 -16.302  11.864  0.00  0.00     0.032 A 
ATOM     22  N   UNL d   1      34.264 -15.015  11.452  0.00  0.00    -0.252 NA
ATOM     23  C   UNL d   1      35.890 -13.361  10.555  0.00  0.00     0.071 C 
ENDBRANCH  11  13
ENDBRANCH   8  11
ENDBRANCH   1   7
BRANCH   3  24
ATOM     24  C   UNL d   1      27.933 -13.964   2.917  0.00  0.00    -0.005 A 
ATOM     25  C   UNL d   1      26.846 -13.179   2.511  0.00  0.00     0.016 A 
ATOM     26  C   UNL d   1      26.282 -13.354   1.237  0.00  0.00     0.037 A 
ATOM     27  C   UNL d   1      26.849 -14.246   0.323  0.00  0.00     0.069 A 
ATOM     28  C   UNL d   1      28.012 -14.927   0.683  0.00  0.00     0.037 A 
ATOM     29  C   UNL d   1      28.520 -14.825   1.984  0.00  0.00     0.016 A 
BRANCH  27  30
ATOM     30  O   UNL d   1      26.181 -14.373  -0.867  0.00  0.00    -0.347 OA
BRANCH  30  31
ATOM     31  C   UNL d   1      26.224 -15.667  -1.473  0.00  0.00     0.214 C 
BRANCH  31  32
ATOM     32  C   UNL d   1      25.055 -16.510  -1.021  0.00  0.00    -0.034 A 
ATOM     33  C   UNL d   1      25.230 -17.756  -0.406  0.00  0.00     0.010 A 
ATOM     34  C   UNL d   1      24.126 -18.568  -0.130  0.00  0.00     0.007 A 
ATOM     35  C   UNL d   1      22.829 -18.111  -0.383  0.00  0.00    -0.062 A 
ATOM     36  C   UNL d   1      21.637 -18.990  -0.148  0.00  0.00     0.048 C 
ATOM     37  C   UNL d   1      22.649 -16.822  -0.894  0.00  0.00     0.007 A 
ATOM     38  C   UNL d   1      23.753 -16.059  -1.270  0.00  0.00     0.010 A 
ENDBRANCH  31  32
ENDBRANCH  30  31
ENDBRANCH  27  30
ENDBRANCH   3  24
TORSDOF 7
ENDMDL
