MODEL 1
REMARK VINA RESULT:    -8.889      0.000      0.000
REMARK INTER + INTRA:         -13.683
REMARK INTER:                 -11.872
REMARK INTRA:                  -1.811
REMARK CONF_INDEPENDENT:        2.983
REMARK UNBOUND:                -1.811
REMARK  10 active torsions:
REMARK  status: ('A' for Active; 'I' for Inactive)
REMARK    1  A    between atoms: C_2  and  C_3 
REMARK    2  A    between atoms: C_3  and  C_4 
REMARK    3  A    between atoms: C_4  and  O_5 
REMARK    4  A    between atoms: O_5  and  C_6 
REMARK    5  A    between atoms: C_9  and  C_10 
REMARK       I    between atoms: C_10  and  N_12 
REMARK    6  A    between atoms: N_12  and  C_13 
REMARK    7  A    between atoms: C_13  and  N_15 
REMARK    8  A    between atoms: N_15  and  N_16 
REMARK       I    between atoms: N_16  and  C_17 
REMARK    9  A    between atoms: C_17  and  C_19 
REMARK   10  A    between atoms: C_19  and  N_20 
ROOT
ATOM      1  C   UNL d   1      31.335 -15.266   1.353  0.00  0.00     0.193 C 
ATOM      2  S   UNL d   1      32.757 -15.968   0.777  0.00  0.00    -0.039 SA
ENDROOT
BRANCH   1   3
ATOM      3  N   UNL d   1      30.025 -15.640   0.975  0.00  0.00    -0.298 N 
ATOM      4  C   UNL d   1      29.563 -15.865  -0.346  0.00  0.00     0.257 C 
ATOM      5  O   UNL d   1      30.278 -15.761  -1.348  0.00  0.00    -0.267 OA
ATOM      6  H   UNL d   1      29.365 -15.758   1.729  0.00  0.00     0.171 HD
BRANCH   4   7
ATOM      7  C   UNL d   1      28.142 -16.256  -0.636  0.00  0.00     0.033 A 
ATOM      8  C   UNL d   1      27.592 -17.384   0.015  0.00  0.00     0.020 A 
ATOM      9  C   UNL d   1      26.260 -17.786  -0.206  0.00  0.00     0.039 A 
ATOM     10  C   UNL d   1      25.442 -17.081  -1.100  0.00  0.00     0.086 A 
ATOM     11  C   UNL d   1      25.980 -15.939  -1.719  0.00  0.00     0.045 A 
ATOM     12  C   UNL d   1      27.318 -15.550  -1.500  0.00  0.00     0.039 A 
ATOM     13 BR   UNL d   1      25.027 -14.688  -2.796  0.00  0.00    -0.048 Br
BRANCH  10  14
ATOM     14  O   UNL d   1      24.151 -17.544  -1.195  0.00  0.00    -0.350 OA
BRANCH  14  15
ATOM     15  C   UNL d   1      23.813 -18.607  -0.302  0.00  0.00     0.175 C 
BRANCH  15  16
ATOM     16  C   UNL d   1      22.396 -18.434   0.229  0.00  0.00     0.026 C 
BRANCH  16  17
ATOM     17  C   UNL d   1      21.386 -18.577  -0.912  0.00  0.00    -0.002 C 
ATOM     18  C   UNL d   1      20.184 -19.392  -0.476  0.00  0.00     0.005 C 
ENDBRANCH  16  17
ENDBRANCH  15  16
ENDBRANCH  14  15
ENDBRANCH  10  14
ENDBRANCH   4   7
ENDBRANCH   1   3
BRANCH   1  19
ATOM     19  N   UNL d   1      31.420 -14.224   2.287  0.00  0.00    -0.273 N 
ATOM     20  H   UNL d   1      31.738 -13.270   2.112  0.00  0.00     0.189 HD
BRANCH  19  21
ATOM     21  N   UNL d   1      31.010 -14.468   3.664  0.00  0.00    -0.266 N 
ATOM     22  C   UNL d   1      29.661 -14.450   3.980  0.00  0.00     0.254 C 
ATOM     23  O   UNL d   1      28.850 -14.210   3.085  0.00  0.00    -0.270 OA
ATOM     24  H   UNL d   1      31.762 -14.445   4.355  0.00  0.00     0.190 HD
BRANCH  22  25
ATOM     25  C   UNL d   1      29.290 -14.760   5.449  0.00  0.00     0.233 C 
BRANCH  25  26
ATOM     26  N   UNL d   1      28.950 -13.573   6.254  0.00  0.00    -0.347 N 
ATOM     27  C   UNL d   1      28.585 -12.347   5.735  0.00  0.00     0.092 A 
ATOM     28  C   UNL d   1      28.248 -11.519   6.786  0.00  0.00     0.031 A 
ATOM     29  C   UNL d   1      28.452 -12.242   7.990  0.00  0.00    -0.008 A 
ATOM     30  C   UNL d   1      28.257 -11.937   9.353  0.00  0.00     0.014 A 
ATOM     31  C   UNL d   1      28.947 -13.501   7.639  0.00  0.00     0.044 A 
ATOM     32  C   UNL d   1      28.537 -12.901  10.326  0.00  0.00     0.001 A 
ATOM     33  C   UNL d   1      29.036 -14.144   9.960  0.00  0.00     0.002 A 
ATOM     34  C   UNL d   1      29.280 -14.450   8.620  0.00  0.00     0.030 A 
ENDBRANCH  25  26
ENDBRANCH  22  25
ENDBRANCH  19  21
ENDBRANCH   1  19
TORSDOF 10
ENDMDL
MODEL 2
REMARK VINA RESULT:    -8.412      6.868      9.555
REMARK INTER + INTRA:         -13.490
REMARK INTER:                 -11.395
REMARK INTRA:                  -2.095
REMARK CONF_INDEPENDENT:        2.983
REMARK UNBOUND:                -2.095
REMARK  10 active torsions:
REMARK  status: ('A' for Active; 'I' for Inactive)
REMARK    1  A    between atoms: C_2  and  C_3 
REMARK    2  A    between atoms: C_3  and  C_4 
REMARK    3  A    between atoms: C_4  and  O_5 
REMARK    4  A    between atoms: O_5  and  C_6 
REMARK    5  A    between atoms: C_9  and  C_10 
REMARK       I    between atoms: C_10  and  N_12 
REMARK    6  A    between atoms: N_12  and  C_13 
REMARK    7  A    between atoms: C_13  and  N_15 
REMARK    8  A    between atoms: N_15  and  N_16 
REMARK       I    between atoms: N_16  and  C_17 
REMARK    9  A    between atoms: C_17  and  C_19 
REMARK   10  A    between atoms: C_19  and  N_20 
ROOT
ATOM      1  C   UNL d   1      26.328 -12.416  -4.430  0.00  0.00     0.193 C 
ATOM      2  S   UNL d   1      26.272 -10.873  -3.748  0.00  0.00    -0.039 SA
ENDROOT
BRANCH   1   3
ATOM      3  N   UNL d   1      25.950 -13.613  -3.781  0.00  0.00    -0.298 N 
ATOM      4  C   UNL d   1      25.902 -13.832  -2.381  0.00  0.00     0.257 C 
ATOM      5  O   UNL d   1      26.192 -12.970  -1.544  0.00  0.00    -0.267 OA
ATOM      6  H   UNL d   1      25.686 -14.378  -4.384  0.00  0.00     0.171 HD
BRANCH   4   7
ATOM      7  C   UNL d   1      25.488 -15.152  -1.795  0.00  0.00     0.033 A 
ATOM      8  C   UNL d   1      24.170 -15.615  -2.008  0.00  0.00     0.020 A 
ATOM      9  C   UNL d   1      23.732 -16.853  -1.497  0.00  0.00     0.039 A 
ATOM     10  C   UNL d   1      24.597 -17.657  -0.741  0.00  0.00     0.086 A 
ATOM     11  C   UNL d   1      25.918 -17.210  -0.561  0.00  0.00     0.045 A 
ATOM     12  C   UNL d   1      26.343 -15.965  -1.067  0.00  0.00     0.039 A 
ATOM     13 BR   UNL d   1      27.343 -18.200   0.228  0.00  0.00    -0.048 Br
BRANCH  10  14
ATOM     14  O   UNL d   1      24.067 -18.860  -0.337  0.00  0.00    -0.350 OA
BRANCH  14  15
ATOM     15  C   UNL d   1      22.806 -19.200  -0.917  0.00  0.00     0.175 C 
BRANCH  15  16
ATOM     16  C   UNL d   1      21.662 -18.623  -0.093  0.00  0.00     0.026 C 
BRANCH  16  17
ATOM     17  C   UNL d   1      20.322 -19.157  -0.606  0.00  0.00    -0.002 C 
ATOM     18  C   UNL d   1      19.936 -20.435   0.112  0.00  0.00     0.005 C 
ENDBRANCH  16  17
ENDBRANCH  15  16
ENDBRANCH  14  15
ENDBRANCH  10  14
ENDBRANCH   4   7
ENDBRANCH   1   3
BRANCH   1  19
ATOM     19  N   UNL d   1      26.779 -12.561  -5.749  0.00  0.00    -0.273 N 
ATOM     20  H   UNL d   1      26.309 -12.236  -6.596  0.00  0.00     0.189 HD
BRANCH  19  21
ATOM     21  N   UNL d   1      28.052 -13.225  -5.997  0.00  0.00    -0.266 N 
ATOM     22  C   UNL d   1      28.100 -14.610  -6.009  0.00  0.00     0.254 C 
ATOM     23  O   UNL d   1      27.062 -15.236  -5.791  0.00  0.00    -0.270 OA
ATOM     24  H   UNL d   1      28.876 -12.623  -5.953  0.00  0.00     0.190 HD
BRANCH  22  25
ATOM     25  C   UNL d   1      29.471 -15.253  -6.322  0.00  0.00     0.233 C 
BRANCH  25  26
ATOM     26  N   UNL d   1      29.843 -16.361  -5.424  0.00  0.00    -0.347 N 
ATOM     27  C   UNL d   1      29.689 -16.349  -4.052  0.00  0.00     0.092 A 
ATOM     28  C   UNL d   1      30.051 -17.589  -3.568  0.00  0.00     0.031 A 
ATOM     29  C   UNL d   1      30.479 -18.375  -4.669  0.00  0.00    -0.008 A 
ATOM     30  C   UNL d   1      30.929 -19.706  -4.798  0.00  0.00     0.014 A 
ATOM     31  C   UNL d   1      30.398 -17.571  -5.809  0.00  0.00     0.044 A 
ATOM     32  C   UNL d   1      31.262 -20.206  -6.061  0.00  0.00     0.001 A 
ATOM     33  C   UNL d   1      31.183 -19.390  -7.181  0.00  0.00     0.002 A 
ATOM     34  C   UNL d   1      30.785 -18.058  -7.069  0.00  0.00     0.030 A 
ENDBRANCH  25  26
ENDBRANCH  22  25
ENDBRANCH  19  21
ENDBRANCH   1  19
TORSDOF 10
ENDMDL
MODEL 3
REMARK VINA RESULT:    -8.359      6.680      9.063
REMARK INTER + INTRA:         -13.414
REMARK INTER:                 -11.342
REMARK INTRA:                  -2.073
REMARK CONF_INDEPENDENT:        2.983
REMARK UNBOUND:                -2.073
REMARK  10 active torsions:
REMARK  status: ('A' for Active; 'I' for Inactive)
REMARK    1  A    between atoms: C_2  and  C_3 
REMARK    2  A    between atoms: C_3  and  C_4 
REMARK    3  A    between atoms: C_4  and  O_5 
REMARK    4  A    between atoms: O_5  and  C_6 
REMARK    5  A    between atoms: C_9  and  C_10 
REMARK       I    between atoms: C_10  and  N_12 
REMARK    6  A    between atoms: N_12  and  C_13 
REMARK    7  A    between atoms: C_13  and  N_15 
REMARK    8  A    between atoms: N_15  and  N_16 
REMARK       I    between atoms: N_16  and  C_17 
REMARK    9  A    between atoms: C_17  and  C_19 
REMARK   10  A    between atoms: C_19  and  N_20 
ROOT
ATOM      1  C   UNL d   1      26.600 -12.335  -5.378  0.00  0.00     0.193 C 
ATOM      2  S   UNL d   1      26.532 -11.193  -6.619  0.00  0.00    -0.039 SA
ENDROOT
BRANCH   1   3
ATOM      3  N   UNL d   1      27.647 -13.261  -5.174  0.00  0.00    -0.298 N 
ATOM      4  C   UNL d   1      27.582 -14.662  -5.377  0.00  0.00     0.257 C 
ATOM      5  O   UNL d   1      26.570 -15.250  -5.773  0.00  0.00    -0.267 OA
ATOM      6  H   UNL d   1      28.523 -12.874  -4.855  0.00  0.00     0.171 HD
BRANCH   4   7
ATOM      7  C   UNL d   1      28.761 -15.559  -5.123  0.00  0.00     0.033 A 
ATOM      8  C   UNL d   1      29.649 -15.845  -6.184  0.00  0.00     0.020 A 
ATOM      9  C   UNL d   1      30.780 -16.665  -5.998  0.00  0.00     0.039 A 
ATOM     10  C   UNL d   1      31.045 -17.239  -4.746  0.00  0.00     0.086 A 
ATOM     11  C   UNL d   1      30.179 -16.924  -3.684  0.00  0.00     0.045 A 
ATOM     12  C   UNL d   1      29.045 -16.111  -3.882  0.00  0.00     0.039 A 
ATOM     13 BR   UNL d   1      30.432 -17.387  -1.852  0.00  0.00    -0.048 Br
BRANCH  10  14
ATOM     14  O   UNL d   1      32.201 -17.982  -4.681  0.00  0.00    -0.350 OA
BRANCH  14  15
ATOM     15  C   UNL d   1      32.300 -19.046  -5.630  0.00  0.00     0.175 C 
BRANCH  15  16
ATOM     16  C   UNL d   1      30.970 -19.779  -5.756  0.00  0.00     0.026 C 
BRANCH  16  17
ATOM     17  C   UNL d   1      30.882 -20.476  -7.116  0.00  0.00    -0.002 C 
ATOM     18  C   UNL d   1      30.779 -19.464  -8.240  0.00  0.00     0.005 C 
ENDBRANCH  16  17
ENDBRANCH  15  16
ENDBRANCH  14  15
ENDBRANCH  10  14
ENDBRANCH   4   7
ENDBRANCH   1   3
BRANCH   1  19
ATOM     19  N   UNL d   1      25.548 -12.398  -4.453  0.00  0.00    -0.273 N 
ATOM     20  H   UNL d   1      24.564 -12.189  -4.629  0.00  0.00     0.189 HD
BRANCH  19  21
ATOM     21  N   UNL d   1      25.829 -12.812  -3.085  0.00  0.00    -0.266 N 
ATOM     22  C   UNL d   1      25.546 -14.113  -2.702  0.00  0.00     0.254 C 
ATOM     23  O   UNL d   1      25.048 -14.875  -3.531  0.00  0.00    -0.270 OA
ATOM     24  H   UNL d   1      26.038 -12.055  -2.432  0.00  0.00     0.190 HD
BRANCH  22  25
ATOM     25  C   UNL d   1      25.908 -14.502  -1.250  0.00  0.00     0.233 C 
BRANCH  25  26
ATOM     26  N   UNL d   1      25.836 -15.948  -0.971  0.00  0.00    -0.347 N 
ATOM     27  C   UNL d   1      26.931 -16.776  -0.814  0.00  0.00     0.092 A 
ATOM     28  C   UNL d   1      26.474 -18.030  -0.467  0.00  0.00     0.031 A 
ATOM     29  C   UNL d   1      25.056 -17.986  -0.451  0.00  0.00    -0.008 A 
ATOM     30  C   UNL d   1      24.056 -18.933  -0.148  0.00  0.00     0.014 A 
ATOM     31  C   UNL d   1      24.677 -16.694  -0.826  0.00  0.00     0.044 A 
ATOM     32  C   UNL d   1      22.709 -18.562  -0.203  0.00  0.00     0.001 A 
ATOM     33  C   UNL d   1      22.351 -17.277  -0.586  0.00  0.00     0.002 A 
ATOM     34  C   UNL d   1      23.322 -16.337  -0.934  0.00  0.00     0.030 A 
ENDBRANCH  25  26
ENDBRANCH  22  25
ENDBRANCH  19  21
ENDBRANCH   1  19
TORSDOF 10
ENDMDL
MODEL 4
REMARK VINA RESULT:    -7.777      3.560     10.469
REMARK INTER + INTRA:         -13.302
REMARK INTER:                 -10.760
REMARK INTRA:                  -2.542
REMARK CONF_INDEPENDENT:        2.983
REMARK UNBOUND:                -2.542
REMARK  10 active torsions:
REMARK  status: ('A' for Active; 'I' for Inactive)
REMARK    1  A    between atoms: C_2  and  C_3 
REMARK    2  A    between atoms: C_3  and  C_4 
REMARK    3  A    between atoms: C_4  and  O_5 
REMARK    4  A    between atoms: O_5  and  C_6 
REMARK    5  A    between atoms: C_9  and  C_10 
REMARK       I    between atoms: C_10  and  N_12 
REMARK    6  A    between atoms: N_12  and  C_13 
REMARK    7  A    between atoms: C_13  and  N_15 
REMARK    8  A    between atoms: N_15  and  N_16 
REMARK       I    between atoms: N_16  and  C_17 
REMARK    9  A    between atoms: C_17  and  C_19 
REMARK   10  A    between atoms: C_19  and  N_20 
ROOT
ATOM      1  C   UNL d   1      29.952 -14.297   3.811  0.00  0.00     0.193 C 
ATOM      2  S   UNL d   1      31.298 -14.822   2.941  0.00  0.00    -0.039 SA
ENDROOT
BRANCH   1   3
ATOM      3  N   UNL d   1      29.913 -14.075   5.207  0.00  0.00    -0.298 N 
ATOM      4  C   UNL d   1      28.763 -13.776   5.980  0.00  0.00     0.257 C 
ATOM      5  O   UNL d   1      27.627 -13.677   5.505  0.00  0.00    -0.267 OA
ATOM      6  H   UNL d   1      30.798 -14.143   5.689  0.00  0.00     0.171 HD
BRANCH   4   7
ATOM      7  C   UNL d   1      28.838 -13.554   7.464  0.00  0.00     0.033 A 
ATOM      8  C   UNL d   1      28.155 -12.454   8.030  0.00  0.00     0.020 A 
ATOM      9  C   UNL d   1      28.177 -12.208   9.417  0.00  0.00     0.039 A 
ATOM     10  C   UNL d   1      28.899 -13.047  10.278  0.00  0.00     0.086 A 
ATOM     11  C   UNL d   1      29.548 -14.161   9.717  0.00  0.00     0.045 A 
ATOM     12  C   UNL d   1      29.529 -14.393   8.326  0.00  0.00     0.039 A 
ATOM     13 BR   UNL d   1      30.405 -15.566  10.678  0.00  0.00    -0.048 Br
BRANCH  10  14
ATOM     14  O   UNL d   1      28.806 -12.728  11.613  0.00  0.00    -0.350 OA
BRANCH  14  15
ATOM     15  C   UNL d   1      29.727 -11.737  12.072  0.00  0.00     0.175 C 
BRANCH  15  16
ATOM     16  C   UNL d   1      30.887 -11.588  11.097  0.00  0.00     0.026 C 
BRANCH  16  17
ATOM     17  C   UNL d   1      30.780 -10.255  10.352  0.00  0.00    -0.002 C 
ATOM     18  C   UNL d   1      31.285 -10.386   8.928  0.00  0.00     0.005 C 
ENDBRANCH  16  17
ENDBRANCH  15  16
ENDBRANCH  14  15
ENDBRANCH  10  14
ENDBRANCH   4   7
ENDBRANCH   1   3
BRANCH   1  19
ATOM     19  N   UNL d   1      28.754 -14.045   3.127  0.00  0.00    -0.273 N 
ATOM     20  H   UNL d   1      28.007 -13.411   3.415  0.00  0.00     0.189 HD
BRANCH  19  21
ATOM     21  N   UNL d   1      28.501 -14.721   1.862  0.00  0.00    -0.266 N 
ATOM     22  C   UNL d   1      27.423 -14.324   1.088  0.00  0.00     0.254 C 
ATOM     23  O   UNL d   1      26.699 -13.420   1.507  0.00  0.00    -0.270 OA
ATOM     24  H   UNL d   1      29.026 -15.585   1.714  0.00  0.00     0.190 HD
BRANCH  22  25
ATOM     25  C   UNL d   1      27.235 -15.051  -0.264  0.00  0.00     0.233 C 
BRANCH  25  26
ATOM     26  N   UNL d   1      26.686 -16.415  -0.151  0.00  0.00    -0.347 N 
ATOM     27  C   UNL d   1      27.410 -17.526   0.234  0.00  0.00     0.092 A 
ATOM     28  C   UNL d   1      26.542 -18.595   0.319  0.00  0.00     0.031 A 
ATOM     29  C   UNL d   1      25.255 -18.139  -0.064  0.00  0.00    -0.008 A 
ATOM     30  C   UNL d   1      23.989 -18.756  -0.145  0.00  0.00     0.014 A 
ATOM     31  C   UNL d   1      25.378 -16.791  -0.411  0.00  0.00     0.044 A 
ATOM     32  C   UNL d   1      22.878 -18.008  -0.546  0.00  0.00     0.001 A 
ATOM     33  C   UNL d   1      23.020 -16.672  -0.895  0.00  0.00     0.002 A 
ATOM     34  C   UNL d   1      24.271 -16.055  -0.866  0.00  0.00     0.030 A 
ENDBRANCH  25  26
ENDBRANCH  22  25
ENDBRANCH  19  21
ENDBRANCH   1  19
TORSDOF 10
ENDMDL
MODEL 5
REMARK VINA RESULT:    -7.688      6.791      8.548
REMARK INTER + INTRA:         -13.441
REMARK INTER:                 -10.671
REMARK INTRA:                  -2.770
REMARK CONF_INDEPENDENT:        2.983
REMARK UNBOUND:                -2.770
REMARK  10 active torsions:
REMARK  status: ('A' for Active; 'I' for Inactive)
REMARK    1  A    between atoms: C_2  and  C_3 
REMARK    2  A    between atoms: C_3  and  C_4 
REMARK    3  A    between atoms: C_4  and  O_5 
REMARK    4  A    between atoms: O_5  and  C_6 
REMARK    5  A    between atoms: C_9  and  C_10 
REMARK       I    between atoms: C_10  and  N_12 
REMARK    6  A    between atoms: N_12  and  C_13 
REMARK    7  A    between atoms: C_13  and  N_15 
REMARK    8  A    between atoms: N_15  and  N_16 
REMARK       I    between atoms: N_16  and  C_17 
REMARK    9  A    between atoms: C_17  and  C_19 
REMARK   10  A    between atoms: C_19  and  N_20 
ROOT
ATOM      1  C   UNL d   1      26.288 -12.404  -4.463  0.00  0.00     0.193 C 
ATOM      2  S   UNL d   1      26.273 -10.861  -3.780  0.00  0.00    -0.039 SA
ENDROOT
BRANCH   1   3
ATOM      3  N   UNL d   1      25.906 -13.595  -3.804  0.00  0.00    -0.298 N 
ATOM      4  C   UNL d   1      25.955 -13.837  -2.408  0.00  0.00     0.257 C 
ATOM      5  O   UNL d   1      26.346 -13.005  -1.583  0.00  0.00    -0.267 OA
ATOM      6  H   UNL d   1      25.562 -14.336  -4.397  0.00  0.00     0.171 HD
BRANCH   4   7
ATOM      7  C   UNL d   1      25.526 -15.148  -1.813  0.00  0.00     0.033 A 
ATOM      8  C   UNL d   1      24.202 -15.598  -2.020  0.00  0.00     0.020 A 
ATOM      9  C   UNL d   1      23.751 -16.826  -1.500  0.00  0.00     0.039 A 
ATOM     10  C   UNL d   1      24.607 -17.635  -0.739  0.00  0.00     0.086 A 
ATOM     11  C   UNL d   1      25.933 -17.202  -0.564  0.00  0.00     0.045 A 
ATOM     12  C   UNL d   1      26.373 -15.966  -1.080  0.00  0.00     0.039 A 
ATOM     13 BR   UNL d   1      27.347 -18.203   0.232  0.00  0.00    -0.048 Br
BRANCH  10  14
ATOM     14  O   UNL d   1      24.064 -18.829  -0.325  0.00  0.00    -0.350 OA
BRANCH  14  15
ATOM     15  C   UNL d   1      22.796 -19.157  -0.898  0.00  0.00     0.175 C 
BRANCH  15  16
ATOM     16  C   UNL d   1      21.661 -18.657  -0.015  0.00  0.00     0.026 C 
BRANCH  16  17
ATOM     17  C   UNL d   1      20.317 -19.157  -0.552  0.00  0.00    -0.002 C 
ATOM     18  C   UNL d   1      19.880 -20.419   0.166  0.00  0.00     0.005 C 
ENDBRANCH  16  17
ENDBRANCH  15  16
ENDBRANCH  14  15
ENDBRANCH  10  14
ENDBRANCH   4   7
ENDBRANCH   1   3
BRANCH   1  19
ATOM     19  N   UNL d   1      26.706 -12.557  -5.792  0.00  0.00    -0.273 N 
ATOM     20  H   UNL d   1      26.205 -12.256  -6.630  0.00  0.00     0.189 HD
BRANCH  19  21
ATOM     21  N   UNL d   1      27.987 -13.193  -6.066  0.00  0.00    -0.266 N 
ATOM     22  C   UNL d   1      28.087 -14.573  -5.987  0.00  0.00     0.254 C 
ATOM     23  O   UNL d   1      27.088 -15.217  -5.668  0.00  0.00    -0.270 OA
ATOM     24  H   UNL d   1      28.789 -12.562  -6.111  0.00  0.00     0.190 HD
BRANCH  22  25
ATOM     25  C   UNL d   1      29.463 -15.189  -6.333  0.00  0.00     0.233 C 
BRANCH  25  26
ATOM     26  N   UNL d   1      29.854 -16.324  -5.477  0.00  0.00    -0.347 N 
ATOM     27  C   UNL d   1      30.309 -17.541  -5.942  0.00  0.00     0.092 A 
ATOM     28  C   UNL d   1      30.669 -18.309  -4.853  0.00  0.00     0.031 A 
ATOM     29  C   UNL d   1      30.388 -17.559  -3.682  0.00  0.00    -0.008 A 
ATOM     30  C   UNL d   1      30.566 -17.803  -2.305  0.00  0.00     0.014 A 
ATOM     31  C   UNL d   1      29.825 -16.347  -4.091  0.00  0.00     0.044 A 
ATOM     32  C   UNL d   1      30.200 -16.826  -1.374  0.00  0.00     0.001 A 
ATOM     33  C   UNL d   1      29.635 -15.631  -1.798  0.00  0.00     0.002 A 
ATOM     34  C   UNL d   1      29.408 -15.388  -3.153  0.00  0.00     0.030 A 
ENDBRANCH  25  26
ENDBRANCH  22  25
ENDBRANCH  19  21
ENDBRANCH   1  19
TORSDOF 10
ENDMDL
MODEL 6
REMARK VINA RESULT:    -7.635      7.538     10.563
REMARK INTER + INTRA:         -13.601
REMARK INTER:                 -10.618
REMARK INTRA:                  -2.983
REMARK CONF_INDEPENDENT:        2.983
REMARK UNBOUND:                -2.983
REMARK  10 active torsions:
REMARK  status: ('A' for Active; 'I' for Inactive)
REMARK    1  A    between atoms: C_2  and  C_3 
REMARK    2  A    between atoms: C_3  and  C_4 
REMARK    3  A    between atoms: C_4  and  O_5 
REMARK    4  A    between atoms: O_5  and  C_6 
REMARK    5  A    between atoms: C_9  and  C_10 
REMARK       I    between atoms: C_10  and  N_12 
REMARK    6  A    between atoms: N_12  and  C_13 
REMARK    7  A    between atoms: C_13  and  N_15 
REMARK    8  A    between atoms: N_15  and  N_16 
REMARK       I    between atoms: N_16  and  C_17 
REMARK    9  A    between atoms: C_17  and  C_19 
REMARK   10  A    between atoms: C_19  and  N_20 
ROOT
ATOM      1  C   UNL d   1      28.032 -12.287  -7.120  0.00  0.00     0.193 C 
ATOM      2  S   UNL d   1      27.056 -11.448  -8.212  0.00  0.00    -0.039 SA
ENDROOT
BRANCH   1   3
ATOM      3  N   UNL d   1      27.589 -12.891  -5.922  0.00  0.00    -0.298 N 
ATOM      4  C   UNL d   1      27.545 -14.281  -5.647  0.00  0.00     0.257 C 
ATOM      5  O   UNL d   1      27.906 -15.148  -6.449  0.00  0.00    -0.267 OA
ATOM      6  H   UNL d   1      27.279 -12.260  -5.198  0.00  0.00     0.171 HD
BRANCH   4   7
ATOM      7  C   UNL d   1      27.049 -14.817  -4.334  0.00  0.00     0.033 A 
ATOM      8  C   UNL d   1      25.667 -14.759  -4.045  0.00  0.00     0.020 A 
ATOM      9  C   UNL d   1      25.145 -15.262  -2.838  0.00  0.00     0.039 A 
ATOM     10  C   UNL d   1      25.994 -15.823  -1.873  0.00  0.00     0.086 A 
ATOM     11  C   UNL d   1      27.363 -15.913  -2.179  0.00  0.00     0.045 A 
ATOM     12  C   UNL d   1      27.878 -15.397  -3.385  0.00  0.00     0.039 A 
ATOM     13 BR   UNL d   1      28.688 -16.819  -1.150  0.00  0.00    -0.048 Br
BRANCH  10  14
ATOM     14  O   UNL d   1      25.359 -16.319  -0.758  0.00  0.00    -0.350 OA
BRANCH  14  15
ATOM     15  C   UNL d   1      24.038 -16.819  -0.976  0.00  0.00     0.175 C 
BRANCH  15  16
ATOM     16  C   UNL d   1      23.886 -18.212  -0.380  0.00  0.00     0.026 C 
BRANCH  16  17
ATOM     17  C   UNL d   1      22.743 -18.959  -1.073  0.00  0.00    -0.002 C 
ATOM     18  C   UNL d   1      21.449 -18.817  -0.295  0.00  0.00     0.005 C 
ENDBRANCH  16  17
ENDBRANCH  15  16
ENDBRANCH  14  15
ENDBRANCH  10  14
ENDBRANCH   4   7
ENDBRANCH   1   3
BRANCH   1  19
ATOM     19  N   UNL d   1      29.401 -12.418  -7.392  0.00  0.00    -0.273 N 
ATOM     20  H   UNL d   1      30.093 -11.667  -7.427  0.00  0.00     0.189 HD
BRANCH  19  21
ATOM     21  N   UNL d   1      29.953 -13.742  -7.645  0.00  0.00    -0.266 N 
ATOM     22  C   UNL d   1      31.328 -13.907  -7.669  0.00  0.00     0.254 C 
ATOM     23  O   UNL d   1      32.043 -12.920  -7.493  0.00  0.00    -0.270 OA
ATOM     24  H   UNL d   1      29.286 -14.437  -7.984  0.00  0.00     0.190 HD
BRANCH  22  25
ATOM     25  C   UNL d   1      31.850 -15.345  -7.899  0.00  0.00     0.233 C 
BRANCH  25  26
ATOM     26  N   UNL d   1      31.353 -16.335  -6.926  0.00  0.00    -0.347 N 
ATOM     27  C   UNL d   1      30.852 -16.029  -5.676  0.00  0.00     0.092 A 
ATOM     28  C   UNL d   1      30.397 -17.197  -5.099  0.00  0.00     0.031 A 
ATOM     29  C   UNL d   1      30.663 -18.259  -6.001  0.00  0.00    -0.008 A 
ATOM     30  C   UNL d   1      30.405 -19.645  -5.975  0.00  0.00     0.014 A 
ATOM     31  C   UNL d   1      31.314 -17.709  -7.109  0.00  0.00     0.044 A 
ATOM     32  C   UNL d   1      30.781 -20.441  -7.062  0.00  0.00     0.001 A 
ATOM     33  C   UNL d   1      31.434 -19.879  -8.150  0.00  0.00     0.002 A 
ATOM     34  C   UNL d   1      31.740 -18.518  -8.176  0.00  0.00     0.030 A 
ENDBRANCH  25  26
ENDBRANCH  22  25
ENDBRANCH  19  21
ENDBRANCH   1  19
TORSDOF 10
ENDMDL
MODEL 7
REMARK VINA RESULT:    -7.589      2.010      3.355
REMARK INTER + INTRA:         -13.570
REMARK INTER:                 -10.572
REMARK INTRA:                  -2.999
REMARK CONF_INDEPENDENT:        2.983
REMARK UNBOUND:                -2.999
REMARK  10 active torsions:
REMARK  status: ('A' for Active; 'I' for Inactive)
REMARK    1  A    between atoms: C_2  and  C_3 
REMARK    2  A    between atoms: C_3  and  C_4 
REMARK    3  A    between atoms: C_4  and  O_5 
REMARK    4  A    between atoms: O_5  and  C_6 
REMARK    5  A    between atoms: C_9  and  C_10 
REMARK       I    between atoms: C_10  and  N_12 
REMARK    6  A    between atoms: N_12  and  C_13 
REMARK    7  A    between atoms: C_13  and  N_15 
REMARK    8  A    between atoms: N_15  and  N_16 
REMARK       I    between atoms: N_16  and  C_17 
REMARK    9  A    between atoms: C_17  and  C_19 
REMARK   10  A    between atoms: C_19  and  N_20 
ROOT
ATOM      1  C   UNL d   1      31.499 -15.067   1.914  0.00  0.00     0.193 C 
ATOM      2  S   UNL d   1      33.013 -14.890   1.192  0.00  0.00    -0.039 SA
ENDROOT
BRANCH   1   3
ATOM      3  N   UNL d   1      30.343 -15.575   1.279  0.00  0.00    -0.298 N 
ATOM      4  C   UNL d   1      29.259 -14.815   0.773  0.00  0.00     0.257 C 
ATOM      5  O   UNL d   1      29.203 -13.582   0.829  0.00  0.00    -0.267 OA
ATOM      6  H   UNL d   1      30.299 -16.578   1.179  0.00  0.00     0.171 HD
BRANCH   4   7
ATOM      7  C   UNL d   1      28.071 -15.461   0.117  0.00  0.00     0.033 A 
ATOM      8  C   UNL d   1      27.418 -16.527   0.775  0.00  0.00     0.020 A 
ATOM      9  C   UNL d   1      26.290 -17.158   0.214  0.00  0.00     0.039 A 
ATOM     10  C   UNL d   1      25.793 -16.753  -1.032  0.00  0.00     0.086 A 
ATOM     11  C   UNL d   1      26.423 -15.668  -1.668  0.00  0.00     0.045 A 
ATOM     12  C   UNL d   1      27.558 -15.050  -1.104  0.00  0.00     0.039 A 
ATOM     13 BR   UNL d   1      25.821 -14.785  -3.246  0.00  0.00    -0.048 Br
BRANCH  10  14
ATOM     14  O   UNL d   1      24.663 -17.415  -1.451  0.00  0.00    -0.350 OA
BRANCH  14  15
ATOM     15  C   UNL d   1      23.501 -17.219  -0.641  0.00  0.00     0.175 C 
BRANCH  15  16
ATOM     16  C   UNL d   1      22.955 -18.554  -0.153  0.00  0.00     0.026 C 
BRANCH  16  17
ATOM     17  C   UNL d   1      21.725 -18.950  -0.973  0.00  0.00    -0.002 C 
ATOM     18  C   UNL d   1      20.595 -19.411  -0.072  0.00  0.00     0.005 C 
ENDBRANCH  16  17
ENDBRANCH  15  16
ENDBRANCH  14  15
ENDBRANCH  10  14
ENDBRANCH   4   7
ENDBRANCH   1   3
BRANCH   1  19
ATOM     19  N   UNL d   1      31.336 -14.693   3.255  0.00  0.00    -0.273 N 
ATOM     20  H   UNL d   1      32.056 -14.683   3.980  0.00  0.00     0.189 HD
BRANCH  19  21
ATOM     21  N   UNL d   1      30.027 -14.251   3.717  0.00  0.00    -0.266 N 
ATOM     22  C   UNL d   1      29.631 -14.551   5.010  0.00  0.00     0.254 C 
ATOM     23  O   UNL d   1      30.396 -15.200   5.725  0.00  0.00    -0.270 OA
ATOM     24  H   UNL d   1      29.397 -13.913   2.988  0.00  0.00     0.190 HD
BRANCH  22  25
ATOM     25  C   UNL d   1      28.249 -14.016   5.453  0.00  0.00     0.233 C 
BRANCH  25  26
ATOM     26  N   UNL d   1      27.951 -12.647   4.995  0.00  0.00    -0.347 N 
ATOM     27  C   UNL d   1      28.152 -11.504   5.744  0.00  0.00     0.092 A 
ATOM     28  C   UNL d   1      27.854 -10.414   4.952  0.00  0.00     0.031 A 
ATOM     29  C   UNL d   1      27.417 -10.900   3.692  0.00  0.00    -0.008 A 
ATOM     30  C   UNL d   1      27.014 -10.274   2.495  0.00  0.00     0.014 A 
ATOM     31  C   UNL d   1      27.428 -12.296   3.760  0.00  0.00     0.044 A 
ATOM     32  C   UNL d   1      26.655 -11.055   1.391  0.00  0.00     0.001 A 
ATOM     33  C   UNL d   1      26.664 -12.440   1.479  0.00  0.00     0.002 A 
ATOM     34  C   UNL d   1      27.015 -13.079   2.669  0.00  0.00     0.030 A 
ENDBRANCH  25  26
ENDBRANCH  22  25
ENDBRANCH  19  21
ENDBRANCH   1  19
TORSDOF 10
ENDMDL
MODEL 8
REMARK VINA RESULT:    -7.587      2.787      4.067
REMARK INTER + INTRA:         -13.790
REMARK INTER:                 -10.570
REMARK INTRA:                  -3.220
REMARK CONF_INDEPENDENT:        2.983
REMARK UNBOUND:                -3.220
REMARK  10 active torsions:
REMARK  status: ('A' for Active; 'I' for Inactive)
REMARK    1  A    between atoms: C_2  and  C_3 
REMARK    2  A    between atoms: C_3  and  C_4 
REMARK    3  A    between atoms: C_4  and  O_5 
REMARK    4  A    between atoms: O_5  and  C_6 
REMARK    5  A    between atoms: C_9  and  C_10 
REMARK       I    between atoms: C_10  and  N_12 
REMARK    6  A    between atoms: N_12  and  C_13 
REMARK    7  A    between atoms: C_13  and  N_15 
REMARK    8  A    between atoms: N_15  and  N_16 
REMARK       I    between atoms: N_16  and  C_17 
REMARK    9  A    between atoms: C_17  and  C_19 
REMARK   10  A    between atoms: C_19  and  N_20 
ROOT
ATOM      1  C   UNL d   1      31.566 -17.466  -0.044  0.00  0.00     0.193 C 
ATOM      2  S   UNL d   1      32.582 -18.748  -0.459  0.00  0.00    -0.039 SA
ENDROOT
BRANCH   1   3
ATOM      3  N   UNL d   1      30.156 -17.476  -0.139  0.00  0.00    -0.298 N 
ATOM      4  C   UNL d   1      29.340 -16.431  -0.642  0.00  0.00     0.257 C 
ATOM      5  O   UNL d   1      29.785 -15.362  -1.072  0.00  0.00    -0.267 OA
ATOM      6  H   UNL d   1      29.697 -18.316   0.182  0.00  0.00     0.171 HD
BRANCH   4   7
ATOM      7  C   UNL d   1      27.842 -16.546  -0.694  0.00  0.00     0.033 A 
ATOM      8  C   UNL d   1      27.186 -17.399   0.221  0.00  0.00     0.020 A 
ATOM      9  C   UNL d   1      25.783 -17.532   0.228  0.00  0.00     0.039 A 
ATOM     10  C   UNL d   1      24.996 -16.827  -0.693  0.00  0.00     0.086 A 
ATOM     11  C   UNL d   1      25.649 -15.952  -1.578  0.00  0.00     0.045 A 
ATOM     12  C   UNL d   1      27.054 -15.833  -1.586  0.00  0.00     0.039 A 
ATOM     13 BR   UNL d   1      24.809 -14.724  -2.770  0.00  0.00    -0.048 Br
BRANCH  10  14
ATOM     14  O   UNL d   1      23.639 -17.006  -0.555  0.00  0.00    -0.350 OA
BRANCH  14  15
ATOM     15  C   UNL d   1      23.116 -18.201  -1.140  0.00  0.00     0.175 C 
BRANCH  15  16
ATOM     16  C   UNL d   1      22.110 -18.861  -0.206  0.00  0.00     0.026 C 
BRANCH  16  17
ATOM     17  C   UNL d   1      20.817 -19.175  -0.964  0.00  0.00    -0.002 C 
ATOM     18  C   UNL d   1      19.750 -19.700  -0.024  0.00  0.00     0.005 C 
ENDBRANCH  16  17
ENDBRANCH  15  16
ENDBRANCH  14  15
ENDBRANCH  10  14
ENDBRANCH   4   7
ENDBRANCH   1   3
BRANCH   1  19
ATOM     19  N   UNL d   1      32.130 -16.279   0.442  0.00  0.00    -0.273 N 
ATOM     20  H   UNL d   1      32.997 -15.840   0.129  0.00  0.00     0.189 HD
BRANCH  19  21
ATOM     21  N   UNL d   1      31.443 -15.543   1.495  0.00  0.00    -0.266 N 
ATOM     22  C   UNL d   1      32.113 -14.525   2.155  0.00  0.00     0.254 C 
ATOM     23  O   UNL d   1      33.279 -14.287   1.840  0.00  0.00    -0.270 OA
ATOM     24  H   UNL d   1      30.566 -15.957   1.818  0.00  0.00     0.190 HD
BRANCH  22  25
ATOM     25  C   UNL d   1      31.313 -13.755   3.232  0.00  0.00     0.233 C 
BRANCH  25  26
ATOM     26  N   UNL d   1      29.854 -13.954   3.167  0.00  0.00    -0.347 N 
ATOM     27  C   UNL d   1      29.087 -14.496   4.179  0.00  0.00     0.092 A 
ATOM     28  C   UNL d   1      27.764 -14.431   3.796  0.00  0.00     0.031 A 
ATOM     29  C   UNL d   1      27.717 -13.872   2.493  0.00  0.00    -0.008 A 
ATOM     30  C   UNL d   1      26.665 -13.541   1.613  0.00  0.00     0.014 A 
ATOM     31  C   UNL d   1      29.036 -13.636   2.094  0.00  0.00     0.044 A 
ATOM     32  C   UNL d   1      26.954 -12.964   0.372  0.00  0.00     0.001 A 
ATOM     33  C   UNL d   1      28.270 -12.746  -0.010  0.00  0.00     0.002 A 
ATOM     34  C   UNL d   1      29.327 -13.108   0.826  0.00  0.00     0.030 A 
ENDBRANCH  25  26
ENDBRANCH  22  25
ENDBRANCH  19  21
ENDBRANCH   1  19
TORSDOF 10
ENDMDL
MODEL 9
REMARK VINA RESULT:    -6.570      6.766      8.408
REMARK INTER + INTRA:         -13.391
REMARK INTER:                  -9.553
REMARK INTRA:                  -3.838
REMARK CONF_INDEPENDENT:        2.983
REMARK UNBOUND:                -3.838
REMARK  10 active torsions:
REMARK  status: ('A' for Active; 'I' for Inactive)
REMARK    1  A    between atoms: C_2  and  C_3 
REMARK    2  A    between atoms: C_3  and  C_4 
REMARK    3  A    between atoms: C_4  and  O_5 
REMARK    4  A    between atoms: O_5  and  C_6 
REMARK    5  A    between atoms: C_9  and  C_10 
REMARK       I    between atoms: C_10  and  N_12 
REMARK    6  A    between atoms: N_12  and  C_13 
REMARK    7  A    between atoms: C_13  and  N_15 
REMARK    8  A    between atoms: N_15  and  N_16 
REMARK       I    between atoms: N_16  and  C_17 
REMARK    9  A    between atoms: C_17  and  C_19 
REMARK   10  A    between atoms: C_19  and  N_20 
ROOT
ATOM      1  C   UNL d   1      29.785 -15.422  -6.327  0.00  0.00     0.193 C 
ATOM      2  S   UNL d   1      31.078 -16.412  -6.767  0.00  0.00    -0.039 SA
ENDROOT
BRANCH   1   3
ATOM      3  N   UNL d   1      29.026 -15.545  -5.141  0.00  0.00    -0.298 N 
ATOM      4  C   UNL d   1      27.619 -15.417  -5.025  0.00  0.00     0.257 C 
ATOM      5  O   UNL d   1      26.873 -15.180  -5.981  0.00  0.00    -0.267 OA
ATOM      6  H   UNL d   1      29.549 -15.747  -4.301  0.00  0.00     0.171 HD
BRANCH   4   7
ATOM      7  C   UNL d   1      26.913 -15.562  -3.707  0.00  0.00     0.033 A 
ATOM      8  C   UNL d   1      25.575 -15.122  -3.591  0.00  0.00     0.020 A 
ATOM      9  C   UNL d   1      24.859 -15.249  -2.385  0.00  0.00     0.039 A 
ATOM     10  C   UNL d   1      25.467 -15.806  -1.251  0.00  0.00     0.086 A 
ATOM     11  C   UNL d   1      26.786 -16.276  -1.379  0.00  0.00     0.045 A 
ATOM     12  C   UNL d   1      27.498 -16.135  -2.587  0.00  0.00     0.039 A 
ATOM     13 BR   UNL d   1      27.760 -17.264  -0.072  0.00  0.00    -0.048 Br
BRANCH  10  14
ATOM     14  O   UNL d   1      24.652 -15.917  -0.149  0.00  0.00    -0.350 OA
BRANCH  14  15
ATOM     15  C   UNL d   1      23.479 -16.713  -0.332  0.00  0.00     0.175 C 
BRANCH  15  16
ATOM     16  C   UNL d   1      23.840 -18.190  -0.427  0.00  0.00     0.026 C 
BRANCH  16  17
ATOM     17  C   UNL d   1      22.815 -18.927  -1.292  0.00  0.00    -0.002 C 
ATOM     18  C   UNL d   1      21.434 -18.868  -0.668  0.00  0.00     0.005 C 
ENDBRANCH  16  17
ENDBRANCH  15  16
ENDBRANCH  14  15
ENDBRANCH  10  14
ENDBRANCH   4   7
ENDBRANCH   1   3
BRANCH   1  19
ATOM     19  N   UNL d   1      29.403 -14.379  -7.182  0.00  0.00    -0.273 N 
ATOM     20  H   UNL d   1      29.564 -14.323  -8.189  0.00  0.00     0.189 HD
BRANCH  19  21
ATOM     21  N   UNL d   1      28.686 -13.236  -6.634  0.00  0.00    -0.266 N 
ATOM     22  C   UNL d   1      28.984 -11.965  -7.102  0.00  0.00     0.254 C 
ATOM     23  O   UNL d   1      29.861 -11.844  -7.957  0.00  0.00    -0.270 OA
ATOM     24  H   UNL d   1      28.141 -13.423  -5.791  0.00  0.00     0.190 HD
BRANCH  22  25
ATOM     25  C   UNL d   1      28.157 -10.799  -6.512  0.00  0.00     0.233 C 
BRANCH  25  26
ATOM     26  N   UNL d   1      27.329 -11.167  -5.349  0.00  0.00    -0.347 N 
ATOM     27  C   UNL d   1      25.948 -11.156  -5.330  0.00  0.00     0.092 A 
ATOM     28  C   UNL d   1      25.532 -11.654  -4.112  0.00  0.00     0.031 A 
ATOM     29  C   UNL d   1      26.689 -11.939  -3.343  0.00  0.00    -0.008 A 
ATOM     30  C   UNL d   1      26.893 -12.482  -2.057  0.00  0.00     0.014 A 
ATOM     31  C   UNL d   1      27.799 -11.573  -4.110  0.00  0.00     0.044 A 
ATOM     32  C   UNL d   1      28.195 -12.666  -1.580  0.00  0.00     0.001 A 
ATOM     33  C   UNL d   1      29.284 -12.288  -2.352  0.00  0.00     0.002 A 
ATOM     34  C   UNL d   1      29.104 -11.707  -3.608  0.00  0.00     0.030 A 
ENDBRANCH  25  26
ENDBRANCH  22  25
ENDBRANCH  19  21
ENDBRANCH   1  19
TORSDOF 10
ENDMDL
