MODEL 1
REMARK VINA RESULT:    -8.787      0.000      0.000
REMARK INTER + INTRA:         -13.653
REMARK INTER:                 -10.577
REMARK INTRA:                  -3.076
REMARK CONF_INDEPENDENT:        1.790
REMARK UNBOUND:                -3.076
REMARK  6 active torsions:
REMARK  status: ('A' for Active; 'I' for Inactive)
REMARK    1  A    between atoms: C_5  and  N_6 
REMARK    2  A    between atoms: C_7  and  C_8 
REMARK    3  A    between atoms: C_13  and  O_14 
REMARK    4  A    between atoms: C_22  and  N_23 
REMARK    5  A    between atoms: C_24  and  C_25 
REMARK    6  A    between atoms: C_30  and  O_31 
ROOT
ATOM      1  C   UNL d   1      27.780 -14.791   1.971  0.00  0.00     0.269 C 
ATOM      2  N   UNL d   1      29.388 -15.404   0.968  0.00  0.00    -0.074 N 
ATOM      3  C   UNL d   1      31.002 -14.450   0.449  0.00  0.00     0.239 C 
ATOM      4  C   UNL d   1      31.180 -14.237  -1.020  0.00  0.00     0.091 C 
ATOM      5  C   UNL d   1      29.876 -14.605  -1.600  0.00  0.00     0.169 C 
ATOM      6  O   UNL d   1      30.214 -14.623  -3.043  0.00  0.00    -0.317 OA
ATOM      7  C   UNL d   1      29.189 -14.853  -3.924  0.00  0.00     0.080 C 
ATOM      8  C   UNL d   1      29.398 -14.745  -5.295  0.00  0.00     0.037 C 
ATOM      9  C   UNL d   1      28.303 -14.825  -6.175  0.00  0.00     0.003 C 
ATOM     10  C   UNL d   1      27.009 -15.016  -5.692  0.00  0.00     0.001 C 
ATOM     11  C   UNL d   1      26.820 -15.179  -4.337  0.00  0.00     0.012 C 
ATOM     12  C   UNL d   1      27.918 -15.174  -3.475  0.00  0.00     0.001 C 
ATOM     13  C   UNL d   1      27.720 -15.520  -2.043  0.00  0.00     0.153 C 
ATOM     14  C   UNL d   1      29.076 -15.913  -1.381  0.00  0.00     0.099 C 
ATOM     15  C   UNL d   1      28.802 -16.334   0.019  0.00  0.00     0.246 C 
ATOM     16  H   UNL d   1      29.872 -16.033   1.634  0.00  0.00     0.279 HD
ENDROOT
BRANCH   5  17
ATOM     17  N   UNL d   1      29.145 -13.398  -0.914  0.00  0.00    -0.262 NA
ATOM     18  C   UNL d   1      28.763 -12.268  -1.574  0.00  0.00     0.128 C 
BRANCH  18  19
ATOM     19  C   UNL d   1      27.914 -11.585  -3.194  0.00  0.00     0.014 C 
ATOM     20  C   UNL d   1      28.900 -11.125  -3.914  0.00  0.00     0.015 C 
ATOM     21  C   UNL d   1      28.618 -10.878  -5.273  0.00  0.00     0.001 C 
ATOM     22  C   UNL d   1      27.387 -11.206  -5.945  0.00  0.00     0.003 C 
ATOM     23  C   UNL d   1      26.282 -11.747  -5.357  0.00  0.00     0.037 C 
ATOM     24  C   UNL d   1      26.430 -11.830  -3.975  0.00  0.00     0.077 C 
BRANCH  24  25
ATOM     25  O   UNL d   1      25.220 -12.371  -3.406  0.00  0.00    -0.360 OA
ATOM     26  H   UNL d   1      24.366 -12.200  -3.869  0.00  0.00     0.217 HD
ENDBRANCH  24  25
ENDBRANCH  18  19
ENDBRANCH   5  17
BRANCH  13  27
ATOM     27  N   UNL d   1      26.661 -16.505  -1.799  0.00  0.00    -0.290 NA
ATOM     28  C   UNL d   1      25.652 -16.018  -1.170  0.00  0.00     0.125 C 
BRANCH  28  29
ATOM     29  C   UNL d   1      24.507 -16.859  -0.896  0.00  0.00     0.014 A 
ATOM     30  C   UNL d   1      23.222 -16.325  -0.987  0.00  0.00     0.015 A 
ATOM     31  C   UNL d   1      22.155 -17.082  -0.527  0.00  0.00     0.001 A 
ATOM     32  C   UNL d   1      22.375 -18.394  -0.102  0.00  0.00     0.003 A 
ATOM     33  C   UNL d   1      23.657 -18.957  -0.137  0.00  0.00     0.037 A 
ATOM     34  C   UNL d   1      24.741 -18.160  -0.469  0.00  0.00     0.077 A 
BRANCH  34  35
ATOM     35  O   UNL d   1      26.027 -18.602  -0.332  0.00  0.00    -0.360 OA
ATOM     36  H   UNL d   1      26.549 -18.309  -1.099  0.00  0.00     0.217 HD
ENDBRANCH  34  35
ENDBRANCH  28  29
ENDBRANCH  13  27
TORSDOF 6
ENDMDL
MODEL 2
REMARK VINA RESULT:    -8.418      2.481      5.115
REMARK INTER + INTRA:         -12.062
REMARK INTER:                 -10.207
REMARK INTRA:                  -1.855
REMARK CONF_INDEPENDENT:        1.790
REMARK UNBOUND:                -1.855
REMARK  6 active torsions:
REMARK  status: ('A' for Active; 'I' for Inactive)
REMARK    1  A    between atoms: C_5  and  N_6 
REMARK    2  A    between atoms: C_7  and  C_8 
REMARK    3  A    between atoms: C_13  and  O_14 
REMARK    4  A    between atoms: C_22  and  N_23 
REMARK    5  A    between atoms: C_24  and  C_25 
REMARK    6  A    between atoms: C_30  and  O_31 
ROOT
ATOM      1  C   UNL d   1      32.252 -13.784  -0.734  0.00  0.00     0.269 C 
ATOM      2  N   UNL d   1      31.902 -15.666  -0.184  0.00  0.00    -0.074 N 
ATOM      3  C   UNL d   1      31.952 -17.320  -1.208  0.00  0.00     0.239 C 
ATOM      4  C   UNL d   1      30.634 -17.997  -1.404  0.00  0.00     0.091 C 
ATOM      5  C   UNL d   1      29.645 -16.998  -0.962  0.00  0.00     0.169 C 
ATOM      6  O   UNL d   1      28.416 -17.825  -0.935  0.00  0.00    -0.317 OA
ATOM      7  C   UNL d   1      27.238 -17.188  -0.640  0.00  0.00     0.080 C 
ATOM      8  C   UNL d   1      26.025 -17.864  -0.734  0.00  0.00     0.037 C 
ATOM      9  C   UNL d   1      24.819 -17.155  -0.585  0.00  0.00     0.003 C 
ATOM     10  C   UNL d   1      24.821 -15.782  -0.339  0.00  0.00     0.001 C 
ATOM     11  C   UNL d   1      26.027 -15.133  -0.190  0.00  0.00     0.012 C 
ATOM     12  C   UNL d   1      27.220 -15.855  -0.264  0.00  0.00     0.001 C 
ATOM     13  C   UNL d   1      28.502 -15.177   0.067  0.00  0.00     0.153 C 
ATOM     14  C   UNL d   1      29.612 -16.226   0.380  0.00  0.00     0.099 C 
ATOM     15  C   UNL d   1      30.839 -15.491   0.790  0.00  0.00     0.246 C 
ATOM     16  H   UNL d   1      32.717 -15.908   0.409  0.00  0.00     0.279 HD
ENDROOT
BRANCH   5  17
ATOM     17  N   UNL d   1      29.988 -16.024  -2.142  0.00  0.00    -0.262 NA
ATOM     18  C   UNL d   1      29.054 -15.484  -2.977  0.00  0.00     0.128 C 
BRANCH  18  19
ATOM     19  C   UNL d   1      27.305 -14.621  -3.055  0.00  0.00     0.014 C 
ATOM     20  C   UNL d   1      27.476 -13.474  -2.456  0.00  0.00     0.015 C 
ATOM     21  C   UNL d   1      26.470 -12.507  -2.661  0.00  0.00     0.001 C 
ATOM     22  C   UNL d   1      25.355 -12.639  -3.562  0.00  0.00     0.003 C 
ATOM     23  C   UNL d   1      25.063 -13.741  -4.308  0.00  0.00     0.037 C 
ATOM     24  C   UNL d   1      25.909 -14.804  -4.000  0.00  0.00     0.077 C 
BRANCH  24  25
ATOM     25  O   UNL d   1      25.530 -15.950  -4.788  0.00  0.00    -0.360 OA
ATOM     26  H   UNL d   1      25.411 -15.832  -5.761  0.00  0.00     0.217 HD
ENDBRANCH  24  25
ENDBRANCH  18  19
ENDBRANCH   5  17
BRANCH  13  27
ATOM     27  N   UNL d   1      28.390 -14.141   1.098  0.00  0.00    -0.290 NA
ATOM     28  C   UNL d   1      27.960 -14.589   2.222  0.00  0.00     0.125 C 
BRANCH  28  29
ATOM     29  C   UNL d   1      27.839 -13.693   3.352  0.00  0.00     0.014 A 
ATOM     30  C   UNL d   1      27.691 -12.325   3.134  0.00  0.00     0.015 A 
ATOM     31  C   UNL d   1      27.780 -11.466   4.219  0.00  0.00     0.001 A 
ATOM     32  C   UNL d   1      27.892 -11.995   5.507  0.00  0.00     0.003 A 
ATOM     33  C   UNL d   1      27.912 -13.380   5.718  0.00  0.00     0.037 A 
ATOM     34  C   UNL d   1      27.958 -14.233   4.627  0.00  0.00     0.077 A 
BRANCH  34  35
ATOM     35  O   UNL d   1      28.173 -15.575   4.772  0.00  0.00    -0.360 OA
ATOM     36  H   UNL d   1      28.882 -15.853   4.167  0.00  0.00     0.217 HD
ENDBRANCH  34  35
ENDBRANCH  28  29
ENDBRANCH  13  27
TORSDOF 6
ENDMDL
MODEL 3
REMARK VINA RESULT:    -7.645      3.206      6.468
REMARK INTER + INTRA:         -11.538
REMARK INTER:                  -9.435
REMARK INTRA:                  -2.104
REMARK CONF_INDEPENDENT:        1.790
REMARK UNBOUND:                -2.104
REMARK  6 active torsions:
REMARK  status: ('A' for Active; 'I' for Inactive)
REMARK    1  A    between atoms: C_5  and  N_6 
REMARK    2  A    between atoms: C_7  and  C_8 
REMARK    3  A    between atoms: C_13  and  O_14 
REMARK    4  A    between atoms: C_22  and  N_23 
REMARK    5  A    between atoms: C_24  and  C_25 
REMARK    6  A    between atoms: C_30  and  O_31 
ROOT
ATOM      1  C   UNL d   1      31.616 -19.803  -1.713  0.00  0.00     0.269 C 
ATOM      2  N   UNL d   1      31.894 -17.928  -1.102  0.00  0.00    -0.074 N 
ATOM      3  C   UNL d   1      31.256 -17.001   0.485  0.00  0.00     0.239 C 
ATOM      4  C   UNL d   1      30.270 -15.905   0.238  0.00  0.00     0.091 C 
ATOM      5  C   UNL d   1      29.885 -16.076  -1.175  0.00  0.00     0.169 C 
ATOM      6  O   UNL d   1      29.132 -14.821  -1.406  0.00  0.00    -0.317 OA
ATOM      7  C   UNL d   1      28.533 -14.665  -2.629  0.00  0.00     0.080 C 
ATOM      8  C   UNL d   1      27.693 -13.583  -2.874  0.00  0.00     0.037 C 
ATOM      9  C   UNL d   1      26.962 -13.526  -4.075  0.00  0.00     0.003 C 
ATOM     10  C   UNL d   1      27.072 -14.537  -5.029  0.00  0.00     0.001 C 
ATOM     11  C   UNL d   1      27.951 -15.574  -4.804  0.00  0.00     0.012 C 
ATOM     12  C   UNL d   1      28.728 -15.588  -3.644  0.00  0.00     0.001 C 
ATOM     13  C   UNL d   1      29.791 -16.618  -3.494  0.00  0.00     0.153 C 
ATOM     14  C   UNL d   1      30.820 -16.188  -2.404  0.00  0.00     0.099 C 
ATOM     15  C   UNL d   1      31.902 -17.209  -2.364  0.00  0.00     0.246 C 
ATOM     16  H   UNL d   1      32.891 -17.904  -0.819  0.00  0.00     0.279 HD
ENDROOT
BRANCH   5  17
ATOM     17  N   UNL d   1      29.182 -17.450  -0.897  0.00  0.00    -0.262 NA
ATOM     18  C   UNL d   1      27.924 -17.568  -0.385  0.00  0.00     0.128 C 
BRANCH  18  19
ATOM     19  C   UNL d   1      26.094 -16.898  -0.498  0.00  0.00     0.014 C 
ATOM     20  C   UNL d   1      26.148 -15.941  -1.383  0.00  0.00     0.015 C 
ATOM     21  C   UNL d   1      24.913 -15.506  -1.908  0.00  0.00     0.001 C 
ATOM     22  C   UNL d   1      23.633 -16.109  -1.642  0.00  0.00     0.003 C 
ATOM     23  C   UNL d   1      23.408 -17.151  -0.794  0.00  0.00     0.037 C 
ATOM     24  C   UNL d   1      24.561 -17.497  -0.093  0.00  0.00     0.077 C 
BRANCH  24  25
ATOM     25  O   UNL d   1      24.254 -18.575   0.814  0.00  0.00    -0.360 OA
ATOM     26  H   UNL d   1      23.486 -19.159   0.605  0.00  0.00     0.217 HD
ENDBRANCH  24  25
ENDBRANCH  18  19
ENDBRANCH   5  17
BRANCH  13  27
ATOM     27  N   UNL d   1      30.428 -17.019  -4.753  0.00  0.00    -0.290 NA
ATOM     28  C   UNL d   1      30.177 -18.235  -5.083  0.00  0.00     0.125 C 
BRANCH  28  29
ATOM     29  C   UNL d   1      30.699 -18.762  -6.325  0.00  0.00     0.014 A 
ATOM     30  C   UNL d   1      30.911 -20.133  -6.457  0.00  0.00     0.015 A 
ATOM     31  C   UNL d   1      31.597 -20.595  -7.570  0.00  0.00     0.001 A 
ATOM     32  C   UNL d   1      31.947 -19.698  -8.582  0.00  0.00     0.003 A 
ATOM     33  C   UNL d   1      31.613 -18.341  -8.490  0.00  0.00     0.037 A 
ATOM     34  C   UNL d   1      31.049 -17.858  -7.320  0.00  0.00     0.077 A 
BRANCH  34  35
ATOM     35  O   UNL d   1      30.881 -16.519  -7.102  0.00  0.00    -0.360 OA
ATOM     36  H   UNL d   1      30.371 -16.389  -6.284  0.00  0.00     0.217 HD
ENDBRANCH  34  35
ENDBRANCH  28  29
ENDBRANCH  13  27
TORSDOF 6
ENDMDL
MODEL 4
REMARK VINA RESULT:    -7.509      2.772      4.771
REMARK INTER + INTRA:         -12.246
REMARK INTER:                  -9.298
REMARK INTRA:                  -2.948
REMARK CONF_INDEPENDENT:        1.790
REMARK UNBOUND:                -2.948
REMARK  6 active torsions:
REMARK  status: ('A' for Active; 'I' for Inactive)
REMARK    1  A    between atoms: C_5  and  N_6 
REMARK    2  A    between atoms: C_7  and  C_8 
REMARK    3  A    between atoms: C_13  and  O_14 
REMARK    4  A    between atoms: C_22  and  N_23 
REMARK    5  A    between atoms: C_24  and  C_25 
REMARK    6  A    between atoms: C_30  and  O_31 
ROOT
ATOM      1  C   UNL d   1      27.773 -18.165  -0.143  0.00  0.00     0.269 C 
ATOM      2  N   UNL d   1      29.328 -16.933   0.035  0.00  0.00    -0.074 N 
ATOM      3  C   UNL d   1      29.508 -15.241   0.979  0.00  0.00     0.239 C 
ATOM      4  C   UNL d   1      29.701 -14.038   0.113  0.00  0.00     0.091 C 
ATOM      5  C   UNL d   1      29.410 -14.521  -1.248  0.00  0.00     0.169 C 
ATOM      6  O   UNL d   1      29.875 -13.367  -2.053  0.00  0.00    -0.317 OA
ATOM      7  C   UNL d   1      29.675 -13.426  -3.408  0.00  0.00     0.080 C 
ATOM      8  C   UNL d   1      29.954 -12.326  -4.213  0.00  0.00     0.037 C 
ATOM      9  C   UNL d   1      29.594 -12.348  -5.573  0.00  0.00     0.003 C 
ATOM     10  C   UNL d   1      28.965 -13.462  -6.128  0.00  0.00     0.001 C 
ATOM     11  C   UNL d   1      28.746 -14.568  -5.337  0.00  0.00     0.012 C 
ATOM     12  C   UNL d   1      29.173 -14.569  -4.008  0.00  0.00     0.001 C 
ATOM     13  C   UNL d   1      29.085 -15.826  -3.217  0.00  0.00     0.153 C 
ATOM     14  C   UNL d   1      30.015 -15.752  -1.967  0.00  0.00     0.099 C 
ATOM     15  C   UNL d   1      29.953 -17.064  -1.269  0.00  0.00     0.246 C 
ATOM     16  H   UNL d   1      29.982 -17.446   0.654  0.00  0.00     0.279 HD
ENDROOT
BRANCH   5  17
ATOM     17  N   UNL d   1      27.897 -14.772  -0.917  0.00  0.00    -0.262 NA
ATOM     18  C   UNL d   1      26.894 -13.910  -1.250  0.00  0.00     0.128 C 
BRANCH  18  19
ATOM     19  C   UNL d   1      26.176 -12.783  -2.673  0.00  0.00     0.014 C 
ATOM     20  C   UNL d   1      26.767 -11.631  -2.512  0.00  0.00     0.015 C 
ATOM     21  C   UNL d   1      26.691 -10.733  -3.596  0.00  0.00     0.001 C 
ATOM     22  C   UNL d   1      26.130 -11.029  -4.889  0.00  0.00     0.003 C 
ATOM     23  C   UNL d   1      25.530 -12.200  -5.244  0.00  0.00     0.037 C 
ATOM     24  C   UNL d   1      25.397 -13.056  -4.153  0.00  0.00     0.077 C 
BRANCH  24  25
ATOM     25  O   UNL d   1      24.723 -14.257  -4.579  0.00  0.00    -0.360 OA
ATOM     26  H   UNL d   1      23.846 -14.171  -5.023  0.00  0.00     0.217 HD
ENDBRANCH  24  25
ENDBRANCH  18  19
ENDBRANCH   5  17
BRANCH  13  27
ATOM     27  N   UNL d   1      29.280 -17.050  -4.001  0.00  0.00    -0.290 NA
ATOM     28  C   UNL d   1      30.368 -17.046  -4.683  0.00  0.00     0.125 C 
BRANCH  28  29
ATOM     29  C   UNL d   1      30.722 -18.205  -5.473  0.00  0.00     0.014 A 
ATOM     30  C   UNL d   1      30.777 -18.103  -6.862  0.00  0.00     0.015 A 
ATOM     31  C   UNL d   1      30.917 -19.263  -7.608  0.00  0.00     0.001 A 
ATOM     32  C   UNL d   1      31.122 -20.480  -6.954  0.00  0.00     0.003 A 
ATOM     33  C   UNL d   1      31.191 -20.545  -5.556  0.00  0.00     0.037 A 
ATOM     34  C   UNL d   1      30.917 -19.410  -4.809  0.00  0.00     0.077 A 
BRANCH  34  35
ATOM     35  O   UNL d   1      30.780 -19.460  -3.451  0.00  0.00    -0.360 OA
ATOM     36  H   UNL d   1      30.039 -18.890  -3.183  0.00  0.00     0.217 HD
ENDBRANCH  34  35
ENDBRANCH  28  29
ENDBRANCH  13  27
TORSDOF 6
ENDMDL
MODEL 5
REMARK VINA RESULT:    -7.414      2.869      4.976
REMARK INTER + INTRA:         -11.853
REMARK INTER:                  -9.204
REMARK INTRA:                  -2.650
REMARK CONF_INDEPENDENT:        1.790
REMARK UNBOUND:                -2.650
REMARK  6 active torsions:
REMARK  status: ('A' for Active; 'I' for Inactive)
REMARK    1  A    between atoms: C_5  and  N_6 
REMARK    2  A    between atoms: C_7  and  C_8 
REMARK    3  A    between atoms: C_13  and  O_14 
REMARK    4  A    between atoms: C_22  and  N_23 
REMARK    5  A    between atoms: C_24  and  C_25 
REMARK    6  A    between atoms: C_30  and  O_31 
ROOT
ATOM      1  C   UNL d   1      31.025 -13.959   1.283  0.00  0.00     0.269 C 
ATOM      2  N   UNL d   1      29.930 -15.573   0.878  0.00  0.00    -0.074 N 
ATOM      3  C   UNL d   1      30.243 -17.043  -0.357  0.00  0.00     0.239 C 
ATOM      4  C   UNL d   1      29.302 -17.123  -1.515  0.00  0.00     0.091 C 
ATOM      5  C   UNL d   1      28.576 -15.840  -1.481  0.00  0.00     0.169 C 
ATOM      6  O   UNL d   1      27.505 -16.106  -2.470  0.00  0.00    -0.317 OA
ATOM      7  C   UNL d   1      26.659 -15.071  -2.771  0.00  0.00     0.080 C 
ATOM      8  C   UNL d   1      25.720 -15.198  -3.790  0.00  0.00     0.037 C 
ATOM      9  C   UNL d   1      24.972 -14.076  -4.192  0.00  0.00     0.003 C 
ATOM     10  C   UNL d   1      25.155 -12.837  -3.580  0.00  0.00     0.001 C 
ATOM     11  C   UNL d   1      26.045 -12.734  -2.533  0.00  0.00     0.012 C 
ATOM     12  C   UNL d   1      26.729 -13.867  -2.088  0.00  0.00     0.001 C 
ATOM     13  C   UNL d   1      27.554 -13.780  -0.854  0.00  0.00     0.153 C 
ATOM     14  C   UNL d   1      27.834 -15.203  -0.281  0.00  0.00     0.099 C 
ATOM     15  C   UNL d   1      28.582 -15.047   0.996  0.00  0.00     0.246 C 
ATOM     16  H   UNL d   1      30.023 -16.157   1.730  0.00  0.00     0.279 HD
ENDROOT
BRANCH   5  17
ATOM     17  N   UNL d   1      29.865 -15.015  -1.825  0.00  0.00    -0.262 NA
ATOM     18  C   UNL d   1      30.210 -14.640  -3.090  0.00  0.00     0.128 C 
BRANCH  18  19
ATOM     19  C   UNL d   1      29.541 -13.888  -4.762  0.00  0.00     0.014 C 
ATOM     20  C   UNL d   1      30.405 -12.962  -5.077  0.00  0.00     0.015 C 
ATOM     21  C   UNL d   1      30.355 -12.487  -6.403  0.00  0.00     0.001 C 
ATOM     22  C   UNL d   1      29.524 -13.020  -7.452  0.00  0.00     0.003 C 
ATOM     23  C   UNL d   1      28.613 -14.024  -7.310  0.00  0.00     0.037 C 
ATOM     24  C   UNL d   1      28.475 -14.401  -5.976  0.00  0.00     0.077 C 
BRANCH  24  25
ATOM     25  O   UNL d   1      27.474 -15.435  -5.883  0.00  0.00    -0.360 OA
ATOM     26  H   UNL d   1      27.443 -15.986  -5.065  0.00  0.00     0.217 HD
ENDBRANCH  24  25
ENDBRANCH  18  19
ENDBRANCH   5  17
BRANCH  13  27
ATOM     27  N   UNL d   1      27.037 -12.851   0.156  0.00  0.00    -0.290 NA
ATOM     28  C   UNL d   1      27.631 -11.712   0.147  0.00  0.00     0.125 C 
BRANCH  28  29
ATOM     29  C   UNL d   1      27.200 -10.673   1.057  0.00  0.00     0.014 A 
ATOM     30  C   UNL d   1      27.057  -9.366   0.594  0.00  0.00     0.015 A 
ATOM     31  C   UNL d   1      26.842  -8.355   1.518  0.00  0.00     0.001 A 
ATOM     32  C   UNL d   1      26.653  -8.680   2.863  0.00  0.00     0.003 A 
ATOM     33  C   UNL d   1      26.675 -10.014   3.291  0.00  0.00     0.037 A 
ATOM     34  C   UNL d   1      27.022 -11.011   2.393  0.00  0.00     0.077 A 
BRANCH  34  35
ATOM     35  O   UNL d   1      27.247 -12.297   2.798  0.00  0.00    -0.360 OA
ATOM     36  H   UNL d   1      26.718 -12.902   2.250  0.00  0.00     0.217 HD
ENDBRANCH  34  35
ENDBRANCH  28  29
ENDBRANCH  13  27
TORSDOF 6
ENDMDL
MODEL 6
REMARK VINA RESULT:    -7.346      3.682      5.960
REMARK INTER + INTRA:         -11.655
REMARK INTER:                  -9.136
REMARK INTRA:                  -2.519
REMARK CONF_INDEPENDENT:        1.790
REMARK UNBOUND:                -2.519
REMARK  6 active torsions:
REMARK  status: ('A' for Active; 'I' for Inactive)
REMARK    1  A    between atoms: C_5  and  N_6 
REMARK    2  A    between atoms: C_7  and  C_8 
REMARK    3  A    between atoms: C_13  and  O_14 
REMARK    4  A    between atoms: C_22  and  N_23 
REMARK    5  A    between atoms: C_24  and  C_25 
REMARK    6  A    between atoms: C_30  and  O_31 
ROOT
ATOM      1  C   UNL d   1      31.885 -17.951   0.607  0.00  0.00     0.269 C 
ATOM      2  N   UNL d   1      31.891 -16.292  -0.495  0.00  0.00    -0.074 N 
ATOM      3  C   UNL d   1      33.033 -14.719  -0.417  0.00  0.00     0.239 C 
ATOM      4  C   UNL d   1      32.359 -13.454   0.006  0.00  0.00     0.091 C 
ATOM      5  C   UNL d   1      31.045 -13.894   0.507  0.00  0.00     0.169 C 
ATOM      6  O   UNL d   1      30.357 -12.589   0.650  0.00  0.00    -0.317 OA
ATOM      7  C   UNL d   1      29.097 -12.601   1.191  0.00  0.00     0.080 C 
ATOM      8  C   UNL d   1      28.444 -11.409   1.488  0.00  0.00     0.037 C 
ATOM      9  C   UNL d   1      27.224 -11.439   2.189  0.00  0.00     0.003 C 
ATOM     10  C   UNL d   1      26.656 -12.649   2.585  0.00  0.00     0.001 C 
ATOM     11  C   UNL d   1      27.281 -13.826   2.235  0.00  0.00     0.012 C 
ATOM     12  C   UNL d   1      28.452 -13.793   1.476  0.00  0.00     0.001 C 
ATOM     13  C   UNL d   1      29.021 -15.068   0.961  0.00  0.00     0.153 C 
ATOM     14  C   UNL d   1      30.009 -14.791  -0.213  0.00  0.00     0.099 C 
ATOM     15  C   UNL d   1      30.473 -16.102  -0.742  0.00  0.00     0.246 C 
ATOM     16  H   UNL d   1      32.244 -16.607  -1.418  0.00  0.00     0.279 HD
ENDROOT
BRANCH   5  17
ATOM     17  N   UNL d   1      31.678 -14.658   1.721  0.00  0.00    -0.262 NA
ATOM     18  C   UNL d   1      31.537 -14.269   3.020  0.00  0.00     0.128 C 
BRANCH  18  19
ATOM     19  C   UNL d   1      30.266 -13.633   4.358  0.00  0.00     0.014 C 
ATOM     20  C   UNL d   1      30.487 -12.350   4.439  0.00  0.00     0.015 C 
ATOM     21  C   UNL d   1      29.490 -11.584   5.079  0.00  0.00     0.001 C 
ATOM     22  C   UNL d   1      28.216 -12.080   5.530  0.00  0.00     0.003 C 
ATOM     23  C   UNL d   1      27.801 -13.377   5.466  0.00  0.00     0.037 C 
ATOM     24  C   UNL d   1      28.820 -14.216   5.024  0.00  0.00     0.077 C 
BRANCH  24  25
ATOM     25  O   UNL d   1      28.337 -15.575   5.013  0.00  0.00    -0.360 OA
ATOM     26  H   UNL d   1      28.721 -16.205   4.358  0.00  0.00     0.217 HD
ENDBRANCH  24  25
ENDBRANCH  18  19
ENDBRANCH   5  17
BRANCH  13  27
ATOM     27  N   UNL d   1      28.021 -16.090   0.636  0.00  0.00    -0.290 NA
ATOM     28  C   UNL d   1      27.003 -15.620   0.008  0.00  0.00     0.125 C 
BRANCH  28  29
ATOM     29  C   UNL d   1      25.951 -16.517  -0.421  0.00  0.00     0.014 A 
ATOM     30  C   UNL d   1      25.044 -16.100  -1.394  0.00  0.00     0.015 A 
ATOM     31  C   UNL d   1      23.931 -16.887  -1.645  0.00  0.00     0.001 A 
ATOM     32  C   UNL d   1      23.809 -18.127  -1.013  0.00  0.00     0.003 A 
ATOM     33  C   UNL d   1      24.797 -18.586  -0.132  0.00  0.00     0.037 A 
ATOM     34  C   UNL d   1      25.840 -17.744   0.220  0.00  0.00     0.077 A 
BRANCH  34  35
ATOM     35  O   UNL d   1      26.719 -18.065   1.216  0.00  0.00    -0.360 OA
ATOM     36  H   UNL d   1      27.219 -17.271   1.470  0.00  0.00     0.217 HD
ENDBRANCH  34  35
ENDBRANCH  28  29
ENDBRANCH  13  27
TORSDOF 6
ENDMDL
MODEL 7
REMARK VINA RESULT:    -6.637      2.505      6.429
REMARK INTER + INTRA:         -11.740
REMARK INTER:                  -8.427
REMARK INTRA:                  -3.314
REMARK CONF_INDEPENDENT:        1.790
REMARK UNBOUND:                -3.314
REMARK  6 active torsions:
REMARK  status: ('A' for Active; 'I' for Inactive)
REMARK    1  A    between atoms: C_5  and  N_6 
REMARK    2  A    between atoms: C_7  and  C_8 
REMARK    3  A    between atoms: C_13  and  O_14 
REMARK    4  A    between atoms: C_22  and  N_23 
REMARK    5  A    between atoms: C_24  and  C_25 
REMARK    6  A    between atoms: C_30  and  O_31 
ROOT
ATOM      1  C   UNL d   1      30.175 -11.966  -6.023  0.00  0.00     0.269 C 
ATOM      2  N   UNL d   1      28.214 -11.794  -6.326  0.00  0.00    -0.074 N 
ATOM      3  C   UNL d   1      26.927 -10.518  -5.622  0.00  0.00     0.239 C 
ATOM      4  C   UNL d   1      25.903 -11.083  -4.690  0.00  0.00     0.091 C 
ATOM      5  C   UNL d   1      26.395 -12.439  -4.390  0.00  0.00     0.169 C 
ATOM      6  O   UNL d   1      25.217 -13.010  -3.696  0.00  0.00    -0.317 OA
ATOM      7  C   UNL d   1      25.344 -14.273  -3.181  0.00  0.00     0.080 C 
ATOM      8  C   UNL d   1      24.336 -14.822  -2.395  0.00  0.00     0.037 C 
ATOM      9  C   UNL d   1      24.551 -16.051  -1.744  0.00  0.00     0.003 C 
ATOM     10  C   UNL d   1      25.761 -16.731  -1.879  0.00  0.00     0.001 C 
ATOM     11  C   UNL d   1      26.731 -16.209  -2.705  0.00  0.00     0.012 C 
ATOM     12  C   UNL d   1      26.485 -15.027  -3.408  0.00  0.00     0.001 C 
ATOM     13  C   UNL d   1      27.469 -14.567  -4.423  0.00  0.00     0.153 C 
ATOM     14  C   UNL d   1      26.813 -13.540  -5.396  0.00  0.00     0.099 C 
ATOM     15  C   UNL d   1      27.814 -13.186  -6.437  0.00  0.00     0.246 C 
ATOM     16  H   UNL d   1      28.142 -11.457  -7.304  0.00  0.00     0.279 HD
ENDROOT
BRANCH   5  17
ATOM     17  N   UNL d   1      27.652 -11.895  -3.625  0.00  0.00    -0.262 NA
ATOM     18  C   UNL d   1      27.920 -12.169  -2.315  0.00  0.00     0.128 C 
BRANCH  18  19
ATOM     19  C   UNL d   1      27.972 -13.578  -0.966  0.00  0.00     0.014 C 
ATOM     20  C   UNL d   1      26.911 -13.374  -0.235  0.00  0.00     0.015 C 
ATOM     21  C   UNL d   1      26.517 -14.437   0.604  0.00  0.00     0.001 C 
ATOM     22  C   UNL d   1      27.109 -15.749   0.625  0.00  0.00     0.003 C 
ATOM     23  C   UNL d   1      28.181 -16.148  -0.117  0.00  0.00     0.037 C 
ATOM     24  C   UNL d   1      28.738 -15.082  -0.820  0.00  0.00     0.077 C 
BRANCH  24  25
ATOM     25  O   UNL d   1      29.888 -15.554  -1.553  0.00  0.00    -0.360 OA
ATOM     26  H   UNL d   1      30.205 -16.474  -1.387  0.00  0.00     0.217 HD
ENDBRANCH  24  25
ENDBRANCH  18  19
ENDBRANCH   5  17
BRANCH  13  27
ATOM     27  N   UNL d   1      28.168 -15.649  -5.124  0.00  0.00    -0.290 NA
ATOM     28  C   UNL d   1      29.364 -15.839  -4.697  0.00  0.00     0.125 C 
BRANCH  28  29
ATOM     29  C   UNL d   1      30.164 -16.904  -5.261  0.00  0.00     0.014 A 
ATOM     30  C   UNL d   1      30.390 -16.944  -6.636  0.00  0.00     0.015 A 
ATOM     31  C   UNL d   1      30.983 -18.072  -7.180  0.00  0.00     0.001 A 
ATOM     32  C   UNL d   1      31.448 -19.081  -6.332  0.00  0.00     0.003 A 
ATOM     33  C   UNL d   1      31.326 -18.965  -4.941  0.00  0.00     0.037 A 
ATOM     34  C   UNL d   1      30.615 -17.903  -4.407  0.00  0.00     0.077 A 
BRANCH  34  35
ATOM     35  O   UNL d   1      30.301 -17.844  -3.078  0.00  0.00    -0.360 OA
ATOM     36  H   UNL d   1      30.787 -17.109  -2.667  0.00  0.00     0.217 HD
ENDBRANCH  34  35
ENDBRANCH  28  29
ENDBRANCH  13  27
TORSDOF 6
ENDMDL
MODEL 8
REMARK VINA RESULT:    -6.594      3.516      5.479
REMARK INTER + INTRA:         -11.687
REMARK INTER:                  -8.384
REMARK INTRA:                  -3.303
REMARK CONF_INDEPENDENT:        1.790
REMARK UNBOUND:                -3.303
REMARK  6 active torsions:
REMARK  status: ('A' for Active; 'I' for Inactive)
REMARK    1  A    between atoms: C_5  and  N_6 
REMARK    2  A    between atoms: C_7  and  C_8 
REMARK    3  A    between atoms: C_13  and  O_14 
REMARK    4  A    between atoms: C_22  and  N_23 
REMARK    5  A    between atoms: C_24  and  C_25 
REMARK    6  A    between atoms: C_30  and  O_31 
ROOT
ATOM      1  C   UNL d   1      30.689 -14.590   0.317  0.00  0.00     0.269 C 
ATOM      2  N   UNL d   1      30.906 -16.544   0.634  0.00  0.00    -0.074 N 
ATOM      3  C   UNL d   1      32.505 -17.616   0.913  0.00  0.00     0.239 C 
ATOM      4  C   UNL d   1      32.826 -18.590  -0.175  0.00  0.00     0.091 C 
ATOM      5  C   UNL d   1      31.928 -18.208  -1.279  0.00  0.00     0.169 C 
ATOM      6  O   UNL d   1      32.114 -19.360  -2.193  0.00  0.00    -0.317 OA
ATOM      7  C   UNL d   1      31.476 -19.308  -3.405  0.00  0.00     0.080 C 
ATOM      8  C   UNL d   1      31.713 -20.280  -4.372  0.00  0.00     0.037 C 
ATOM      9  C   UNL d   1      31.176 -20.124  -5.663  0.00  0.00     0.003 C 
ATOM     10  C   UNL d   1      30.403 -19.010  -5.987  0.00  0.00     0.001 C 
ATOM     11  C   UNL d   1      30.125 -18.082  -5.007  0.00  0.00     0.012 C 
ATOM     12  C   UNL d   1      30.598 -18.280  -3.708  0.00  0.00     0.001 C 
ATOM     13  C   UNL d   1      30.150 -17.364  -2.625  0.00  0.00     0.153 C 
ATOM     14  C   UNL d   1      30.393 -18.011  -1.227  0.00  0.00     0.099 C 
ATOM     15  C   UNL d   1      29.845 -17.092  -0.193  0.00  0.00     0.246 C 
ATOM     16  H   UNL d   1      30.542 -16.683   1.594  0.00  0.00     0.279 HD
ENDROOT
BRANCH   5  17
ATOM     17  N   UNL d   1      32.648 -16.831  -1.490  0.00  0.00    -0.262 NA
ATOM     18  C   UNL d   1      33.260 -16.465  -2.652  0.00  0.00     0.128 C 
BRANCH  18  19
ATOM     19  C   UNL d   1      33.087 -16.430  -4.596  0.00  0.00     0.014 C 
ATOM     20  C   UNL d   1      33.894 -17.364  -5.016  0.00  0.00     0.015 C 
ATOM     21  C   UNL d   1      33.722 -17.786  -6.351  0.00  0.00     0.001 C 
ATOM     22  C   UNL d   1      32.663 -17.363  -7.230  0.00  0.00     0.003 C 
ATOM     23  C   UNL d   1      31.702 -16.444  -6.931  0.00  0.00     0.037 C 
ATOM     24  C   UNL d   1      31.937 -15.845  -5.696  0.00  0.00     0.077 C 
BRANCH  24  25
ATOM     25  O   UNL d   1      30.915 -14.857  -5.451  0.00  0.00    -0.360 OA
ATOM     26  H   UNL d   1      30.004 -15.168  -5.236  0.00  0.00     0.217 HD
ENDBRANCH  24  25
ENDBRANCH  18  19
ENDBRANCH   5  17
BRANCH  13  27
ATOM     27  N   UNL d   1      28.785 -16.855  -2.788  0.00  0.00    -0.290 NA
ATOM     28  C   UNL d   1      28.744 -15.635  -3.185  0.00  0.00     0.125 C 
BRANCH  28  29
ATOM     29  C   UNL d   1      27.465 -15.006  -3.435  0.00  0.00     0.014 A 
ATOM     30  C   UNL d   1      26.628 -14.695  -2.365  0.00  0.00     0.015 A 
ATOM     31  C   UNL d   1      25.332 -14.283  -2.633  0.00  0.00     0.001 A 
ATOM     32  C   UNL d   1      24.938 -14.072  -3.957  0.00  0.00     0.003 A 
ATOM     33  C   UNL d   1      25.834 -14.268  -5.015  0.00  0.00     0.037 A 
ATOM     34  C   UNL d   1      27.084 -14.807  -4.757  0.00  0.00     0.077 A 
BRANCH  34  35
ATOM     35  O   UNL d   1      27.921 -15.198  -5.764  0.00  0.00    -0.360 OA
ATOM     36  H   UNL d   1      28.724 -14.650  -5.743  0.00  0.00     0.217 HD
ENDBRANCH  34  35
ENDBRANCH  28  29
ENDBRANCH  13  27
TORSDOF 6
ENDMDL
MODEL 9
REMARK VINA RESULT:    -6.593      2.660      4.940
REMARK INTER + INTRA:         -11.940
REMARK INTER:                  -8.382
REMARK INTRA:                  -3.557
REMARK CONF_INDEPENDENT:        1.790
REMARK UNBOUND:                -3.557
REMARK  6 active torsions:
REMARK  status: ('A' for Active; 'I' for Inactive)
REMARK    1  A    between atoms: C_5  and  N_6 
REMARK    2  A    between atoms: C_7  and  C_8 
REMARK    3  A    between atoms: C_13  and  O_14 
REMARK    4  A    between atoms: C_22  and  N_23 
REMARK    5  A    between atoms: C_24  and  C_25 
REMARK    6  A    between atoms: C_30  and  O_31 
ROOT
ATOM      1  C   UNL d   1      31.017 -13.782   1.265  0.00  0.00     0.269 C 
ATOM      2  N   UNL d   1      29.958 -15.441   0.962  0.00  0.00    -0.074 N 
ATOM      3  C   UNL d   1      30.330 -17.005  -0.134  0.00  0.00     0.239 C 
ATOM      4  C   UNL d   1      29.429 -17.196  -1.311  0.00  0.00     0.091 C 
ATOM      5  C   UNL d   1      28.687 -15.926  -1.409  0.00  0.00     0.169 C 
ATOM      6  O   UNL d   1      27.653 -16.291  -2.406  0.00  0.00    -0.317 OA
ATOM      7  C   UNL d   1      26.805 -15.297  -2.821  0.00  0.00     0.080 C 
ATOM      8  C   UNL d   1      25.903 -15.524  -3.856  0.00  0.00     0.037 C 
ATOM      9  C   UNL d   1      25.155 -14.451  -4.376  0.00  0.00     0.003 C 
ATOM     10  C   UNL d   1      25.302 -13.162  -3.864  0.00  0.00     0.001 C 
ATOM     11  C   UNL d   1      26.154 -12.959  -2.801  0.00  0.00     0.012 C 
ATOM     12  C   UNL d   1      26.837 -14.040  -2.241  0.00  0.00     0.001 C 
ATOM     13  C   UNL d   1      27.619 -13.837  -0.992  0.00  0.00     0.153 C 
ATOM     14  C   UNL d   1      27.897 -15.202  -0.292  0.00  0.00     0.099 C 
ATOM     15  C   UNL d   1      28.599 -14.928   0.991  0.00  0.00     0.246 C 
ATOM     16  H   UNL d   1      30.028 -15.950   1.863  0.00  0.00     0.279 HD
ENDROOT
BRANCH   5  17
ATOM     17  N   UNL d   1      29.976 -15.114  -1.779  0.00  0.00    -0.262 NA
ATOM     18  C   UNL d   1      30.155 -14.477  -2.972  0.00  0.00     0.128 C 
BRANCH  18  19
ATOM     19  C   UNL d   1      29.307 -13.327  -4.302  0.00  0.00     0.014 C 
ATOM     20  C   UNL d   1      29.005 -14.128  -5.286  0.00  0.00     0.015 C 
ATOM     21  C   UNL d   1      28.086 -13.633  -6.234  0.00  0.00     0.001 C 
ATOM     22  C   UNL d   1      27.373 -12.386  -6.135  0.00  0.00     0.003 C 
ATOM     23  C   UNL d   1      27.522 -11.463  -5.144  0.00  0.00     0.037 C 
ATOM     24  C   UNL d   1      28.561 -11.804  -4.282  0.00  0.00     0.077 C 
BRANCH  24  25
ATOM     25  O   UNL d   1      28.698 -10.775  -3.281  0.00  0.00    -0.360 OA
ATOM     26  H   UNL d   1      27.917 -10.206  -3.084  0.00  0.00     0.217 HD
ENDBRANCH  24  25
ENDBRANCH  18  19
ENDBRANCH   5  17
BRANCH  13  27
ATOM     27  N   UNL d   1      27.057 -12.834  -0.082  0.00  0.00    -0.290 NA
ATOM     28  C   UNL d   1      27.704 -11.724  -0.089  0.00  0.00     0.125 C 
BRANCH  28  29
ATOM     29  C   UNL d   1      27.242 -10.621   0.726  0.00  0.00     0.014 A 
ATOM     30  C   UNL d   1      26.954 -10.831   2.074  0.00  0.00     0.015 A 
ATOM     31  C   UNL d   1      26.325  -9.821   2.784  0.00  0.00     0.001 A 
ATOM     32  C   UNL d   1      26.108  -8.584   2.172  0.00  0.00     0.003 A 
ATOM     33  C   UNL d   1      26.519  -8.349   0.854  0.00  0.00     0.037 A 
ATOM     34  C   UNL d   1      27.025  -9.398   0.103  0.00  0.00     0.077 A 
BRANCH  34  35
ATOM     35  O   UNL d   1      27.260  -9.275  -1.238  0.00  0.00    -0.360 OA
ATOM     36  H   UNL d   1      28.069  -9.762  -1.467  0.00  0.00     0.217 HD
ENDBRANCH  34  35
ENDBRANCH  28  29
ENDBRANCH  13  27
TORSDOF 6
ENDMDL
