MODEL 1
REMARK VINA RESULT:    -8.712      0.000      0.000
REMARK INTER + INTRA:         -11.233
REMARK INTER:                  -9.905
REMARK INTRA:                  -1.328
REMARK CONF_INDEPENDENT:        1.193
REMARK UNBOUND:                -1.328
REMARK  4 active torsions:
REMARK  status: ('A' for Active; 'I' for Inactive)
REMARK    1  A    between atoms: C_6  and  C_7 
REMARK       I    between atoms: C_7  and  N_9 
REMARK    2  A    between atoms: N_9  and  N_10 
REMARK       I    between atoms: N_10  and  C_11 
REMARK    3  A    between atoms: C_11  and  C_13 
REMARK    4  A    between atoms: C_14  and  C_15 
ROOT
ATOM      1  N   UNL d   1      23.322 -17.866  -0.942  0.00  0.00    -0.264 N 
ATOM      2  C   UNL d   1      24.640 -17.825  -0.504  0.00  0.00     0.259 C 
ATOM      3  O   UNL d   1      25.040 -18.470   0.466  0.00  0.00    -0.267 OA
ATOM      4  H   UNL d   1      22.951 -17.349  -1.737  0.00  0.00     0.190 HD
ENDROOT
BRANCH   1   5
ATOM      5  N   UNL d   1      22.398 -18.688  -0.240  0.00  0.00    -0.263 N 
ATOM      6  C   UNL d   1      21.027 -18.575  -0.463  0.00  0.00     0.270 C 
ATOM      7  O   UNL d   1      20.567 -17.765  -1.270  0.00  0.00    -0.266 OA
ATOM      8  H   UNL d   1      22.825 -19.336   0.415  0.00  0.00     0.190 HD
BRANCH   6   9
ATOM      9  C   UNL d   1      20.098 -19.479   0.322  0.00  0.00     0.034 A 
ATOM     10  C   UNL d   1      19.016 -20.101  -0.331  0.00  0.00     0.017 A 
ATOM     11  C   UNL d   1      18.128 -20.935   0.368  0.00  0.00     0.002 A 
ATOM     12  C   UNL d   1      18.312 -21.168   1.730  0.00  0.00     0.007 A 
ATOM     13  C   UNL d   1      19.384 -20.572   2.398  0.00  0.00    -0.061 A 
ATOM     14  C   UNL d   1      19.613 -20.825   3.860  0.00  0.00     0.048 C 
ATOM     15  C   UNL d   1      20.267 -19.732   1.691  0.00  0.00     0.024 A 
ENDBRANCH   6   9
ENDBRANCH   1   5
BRANCH   2  16
ATOM     16  C   UNL d   1      25.546 -16.937  -1.298  0.00  0.00     0.076 C 
ATOM     17  C   UNL d   1      25.128 -16.219  -2.365  0.00  0.00     0.017 C 
BRANCH  17  18
ATOM     18  C   UNL d   1      25.985 -15.329  -3.199  0.00  0.00    -0.036 A 
ATOM     19  C   UNL d   1      25.447 -14.207  -3.860  0.00  0.00     0.011 A 
ATOM     20  C   UNL d   1      26.254 -13.379  -4.662  0.00  0.00     0.001 A 
ATOM     21  C   UNL d   1      27.609 -13.656  -4.817  0.00  0.00     0.000 A 
ATOM     22  C   UNL d   1      28.159 -14.752  -4.167  0.00  0.00     0.001 A 
ATOM     23  C   UNL d   1      27.356 -15.575  -3.371  0.00  0.00     0.011 A 
ENDBRANCH  17  18
ENDBRANCH   2  16
TORSDOF 4
ENDMDL
MODEL 2
REMARK VINA RESULT:    -8.081      2.086      9.514
REMARK INTER + INTRA:         -10.640
REMARK INTER:                  -9.274
REMARK INTRA:                  -1.366
REMARK CONF_INDEPENDENT:        1.193
REMARK UNBOUND:                -1.366
REMARK  4 active torsions:
REMARK  status: ('A' for Active; 'I' for Inactive)
REMARK    1  A    between atoms: C_6  and  C_7 
REMARK       I    between atoms: C_7  and  N_9 
REMARK    2  A    between atoms: N_9  and  N_10 
REMARK       I    between atoms: N_10  and  C_11 
REMARK    3  A    between atoms: C_11  and  C_13 
REMARK    4  A    between atoms: C_14  and  C_15 
ROOT
ATOM      1  N   UNL d   1      24.704 -16.395  -2.250  0.00  0.00    -0.264 N 
ATOM      2  C   UNL d   1      24.995 -17.336  -1.270  0.00  0.00     0.259 C 
ATOM      3  O   UNL d   1      26.143 -17.708  -1.024  0.00  0.00    -0.267 OA
ATOM      4  H   UNL d   1      23.771 -16.060  -2.484  0.00  0.00     0.190 HD
ENDROOT
BRANCH   1   5
ATOM      5  N   UNL d   1      25.778 -15.838  -2.998  0.00  0.00    -0.263 N 
ATOM      6  C   UNL d   1      25.545 -14.864  -3.967  0.00  0.00     0.270 C 
ATOM      7  O   UNL d   1      24.410 -14.450  -4.209  0.00  0.00    -0.266 OA
ATOM      8  H   UNL d   1      26.692 -16.214  -2.764  0.00  0.00     0.190 HD
BRANCH   6   9
ATOM      9  C   UNL d   1      26.734 -14.317  -4.730  0.00  0.00     0.034 A 
ATOM     10  C   UNL d   1      26.858 -12.927  -4.923  0.00  0.00     0.017 A 
ATOM     11  C   UNL d   1      27.941 -12.388  -5.637  0.00  0.00     0.002 A 
ATOM     12  C   UNL d   1      28.922 -13.226  -6.163  0.00  0.00     0.007 A 
ATOM     13  C   UNL d   1      28.827 -14.607  -5.976  0.00  0.00    -0.061 A 
ATOM     14  C   UNL d   1      29.881 -15.529  -6.516  0.00  0.00     0.048 C 
ATOM     15  C   UNL d   1      27.735 -15.142  -5.264  0.00  0.00     0.024 A 
ENDBRANCH   6   9
ENDBRANCH   1   5
BRANCH   2  16
ATOM     16  C   UNL d   1      23.809 -17.869  -0.529  0.00  0.00     0.076 C 
ATOM     17  C   UNL d   1      22.702 -18.339  -1.146  0.00  0.00     0.017 C 
BRANCH  17  18
ATOM     18  C   UNL d   1      21.488 -18.869  -0.462  0.00  0.00    -0.036 A 
ATOM     19  C   UNL d   1      20.367 -19.302  -1.197  0.00  0.00     0.011 A 
ATOM     20  C   UNL d   1      19.215 -19.786  -0.549  0.00  0.00     0.001 A 
ATOM     21  C   UNL d   1      19.163 -19.846   0.841  0.00  0.00     0.000 A 
ATOM     22  C   UNL d   1      20.262 -19.432   1.581  0.00  0.00     0.001 A 
ATOM     23  C   UNL d   1      21.405 -18.950   0.937  0.00  0.00     0.011 A 
ENDBRANCH  17  18
ENDBRANCH   2  16
TORSDOF 4
ENDMDL
MODEL 3
REMARK VINA RESULT:    -8.016      0.642      1.821
REMARK INTER + INTRA:         -10.588
REMARK INTER:                  -9.209
REMARK INTRA:                  -1.379
REMARK CONF_INDEPENDENT:        1.193
REMARK UNBOUND:                -1.379
REMARK  4 active torsions:
REMARK  status: ('A' for Active; 'I' for Inactive)
REMARK    1  A    between atoms: C_6  and  C_7 
REMARK       I    between atoms: C_7  and  N_9 
REMARK    2  A    between atoms: N_9  and  N_10 
REMARK       I    between atoms: N_10  and  C_11 
REMARK    3  A    between atoms: C_11  and  C_13 
REMARK    4  A    between atoms: C_14  and  C_15 
ROOT
ATOM      1  N   UNL d   1      23.687 -17.693  -0.782  0.00  0.00    -0.264 N 
ATOM      2  C   UNL d   1      25.029 -17.724  -0.421  0.00  0.00     0.259 C 
ATOM      3  O   UNL d   1      25.447 -18.384   0.531  0.00  0.00    -0.267 OA
ATOM      4  H   UNL d   1      23.300 -17.161  -1.559  0.00  0.00     0.190 HD
ENDROOT
BRANCH   1   5
ATOM      5  N   UNL d   1      22.761 -18.459  -0.022  0.00  0.00    -0.263 N 
ATOM      6  C   UNL d   1      21.402 -18.449  -0.329  0.00  0.00     0.270 C 
ATOM      7  O   UNL d   1      20.954 -17.782  -1.264  0.00  0.00    -0.266 OA
ATOM      8  H   UNL d   1      23.178 -18.988   0.738  0.00  0.00     0.190 HD
BRANCH   6   9
ATOM      9  C   UNL d   1      20.470 -19.284   0.525  0.00  0.00     0.034 A 
ATOM     10  C   UNL d   1      20.655 -19.327   1.921  0.00  0.00     0.017 A 
ATOM     11  C   UNL d   1      19.817 -20.101   2.741  0.00  0.00     0.002 A 
ATOM     12  C   UNL d   1      18.776 -20.838   2.181  0.00  0.00     0.007 A 
ATOM     13  C   UNL d   1      18.565 -20.804   0.800  0.00  0.00    -0.061 A 
ATOM     14  C   UNL d   1      17.437 -21.574   0.177  0.00  0.00     0.048 C 
ATOM     15  C   UNL d   1      19.413 -20.030  -0.016  0.00  0.00     0.024 A 
ENDBRANCH   6   9
ENDBRANCH   1   5
BRANCH   2  16
ATOM     16  C   UNL d   1      25.935 -16.892  -1.273  0.00  0.00     0.076 C 
ATOM     17  C   UNL d   1      25.569 -16.395  -2.477  0.00  0.00     0.017 C 
BRANCH  17  18
ATOM     18  C   UNL d   1      26.431 -15.573  -3.373  0.00  0.00    -0.036 A 
ATOM     19  C   UNL d   1      27.824 -15.504  -3.182  0.00  0.00     0.011 A 
ATOM     20  C   UNL d   1      28.635 -14.712  -4.018  0.00  0.00     0.001 A 
ATOM     21  C   UNL d   1      28.068 -13.979  -5.057  0.00  0.00     0.000 A 
ATOM     22  C   UNL d   1      26.697 -14.042  -5.265  0.00  0.00     0.001 A 
ATOM     23  C   UNL d   1      25.893 -14.827  -4.433  0.00  0.00     0.011 A 
ENDBRANCH  17  18
ENDBRANCH   2  16
TORSDOF 4
ENDMDL
MODEL 4
REMARK VINA RESULT:    -7.857      1.667      9.353
REMARK INTER + INTRA:         -10.403
REMARK INTER:                  -9.050
REMARK INTRA:                  -1.353
REMARK CONF_INDEPENDENT:        1.193
REMARK UNBOUND:                -1.353
REMARK  4 active torsions:
REMARK  status: ('A' for Active; 'I' for Inactive)
REMARK    1  A    between atoms: C_6  and  C_7 
REMARK       I    between atoms: C_7  and  N_9 
REMARK    2  A    between atoms: N_9  and  N_10 
REMARK       I    between atoms: N_10  and  C_11 
REMARK    3  A    between atoms: C_11  and  C_13 
REMARK    4  A    between atoms: C_14  and  C_15 
ROOT
ATOM      1  N   UNL d   1      24.010 -16.546  -1.288  0.00  0.00    -0.264 N 
ATOM      2  C   UNL d   1      24.341 -17.659  -0.525  0.00  0.00     0.259 C 
ATOM      3  O   UNL d   1      25.500 -18.052  -0.387  0.00  0.00    -0.267 OA
ATOM      4  H   UNL d   1      23.067 -16.188  -1.428  0.00  0.00     0.190 HD
ENDROOT
BRANCH   1   5
ATOM      5  N   UNL d   1      25.056 -15.831  -1.936  0.00  0.00    -0.263 N 
ATOM      6  C   UNL d   1      24.771 -14.790  -2.817  0.00  0.00     0.270 C 
ATOM      7  O   UNL d   1      23.612 -14.451  -3.067  0.00  0.00    -0.266 OA
ATOM      8  H   UNL d   1      25.991 -16.149  -1.699  0.00  0.00     0.190 HD
BRANCH   6   9
ATOM      9  C   UNL d   1      25.932 -14.074  -3.475  0.00  0.00     0.034 A 
ATOM     10  C   UNL d   1      26.425 -12.881  -2.911  0.00  0.00     0.017 A 
ATOM     11  C   UNL d   1      27.492 -12.185  -3.502  0.00  0.00     0.002 A 
ATOM     12  C   UNL d   1      28.090 -12.672  -4.663  0.00  0.00     0.007 A 
ATOM     13  C   UNL d   1      27.626 -13.859  -5.236  0.00  0.00    -0.061 A 
ATOM     14  C   UNL d   1      28.268 -14.414  -6.475  0.00  0.00     0.048 C 
ATOM     15  C   UNL d   1      26.552 -14.549  -4.640  0.00  0.00     0.024 A 
ENDBRANCH   6   9
ENDBRANCH   1   5
BRANCH   2  16
ATOM     16  C   UNL d   1      23.182 -18.351   0.122  0.00  0.00     0.076 C 
ATOM     17  C   UNL d   1      21.993 -18.537  -0.494  0.00  0.00     0.017 C 
BRANCH  17  18
ATOM     18  C   UNL d   1      20.803 -19.207   0.104  0.00  0.00    -0.036 A 
ATOM     19  C   UNL d   1      20.657 -19.326   1.499  0.00  0.00     0.011 A 
ATOM     20  C   UNL d   1      19.542 -19.974   2.062  0.00  0.00     0.001 A 
ATOM     21  C   UNL d   1      18.556 -20.514   1.242  0.00  0.00     0.000 A 
ATOM     22  C   UNL d   1      18.678 -20.400  -0.136  0.00  0.00     0.001 A 
ATOM     23  C   UNL d   1      19.787 -19.756  -0.694  0.00  0.00     0.011 A 
ENDBRANCH  17  18
ENDBRANCH   2  16
TORSDOF 4
ENDMDL
MODEL 5
REMARK VINA RESULT:    -7.128      2.935      9.256
REMARK INTER + INTRA:          -9.678
REMARK INTER:                  -8.321
REMARK INTRA:                  -1.357
REMARK CONF_INDEPENDENT:        1.193
REMARK UNBOUND:                -1.357
REMARK  4 active torsions:
REMARK  status: ('A' for Active; 'I' for Inactive)
REMARK    1  A    between atoms: C_6  and  C_7 
REMARK       I    between atoms: C_7  and  N_9 
REMARK    2  A    between atoms: N_9  and  N_10 
REMARK       I    between atoms: N_10  and  C_11 
REMARK    3  A    between atoms: C_11  and  C_13 
REMARK    4  A    between atoms: C_14  and  C_15 
ROOT
ATOM      1  N   UNL d   1      24.420 -17.738  -0.308  0.00  0.00    -0.264 N 
ATOM      2  C   UNL d   1      23.313 -17.135  -0.892  0.00  0.00     0.259 C 
ATOM      3  O   UNL d   1      23.385 -16.082  -1.526  0.00  0.00    -0.267 OA
ATOM      4  H   UNL d   1      24.404 -18.606   0.224  0.00  0.00     0.190 HD
ENDROOT
BRANCH   1   5
ATOM      5  N   UNL d   1      25.690 -17.113  -0.453  0.00  0.00    -0.263 N 
ATOM      6  C   UNL d   1      26.807 -17.598   0.224  0.00  0.00     0.270 C 
ATOM      7  O   UNL d   1      26.739 -18.580   0.967  0.00  0.00    -0.266 OA
ATOM      8  H   UNL d   1      25.693 -16.308  -1.072  0.00  0.00     0.190 HD
BRANCH   6   9
ATOM      9  C   UNL d   1      28.127 -16.882   0.028  0.00  0.00     0.034 A 
ATOM     10  C   UNL d   1      28.304 -15.589   0.560  0.00  0.00     0.017 A 
ATOM     11  C   UNL d   1      29.511 -14.892   0.386  0.00  0.00     0.002 A 
ATOM     12  C   UNL d   1      30.564 -15.477  -0.315  0.00  0.00     0.007 A 
ATOM     13  C   UNL d   1      30.417 -16.762  -0.842  0.00  0.00    -0.061 A 
ATOM     14  C   UNL d   1      31.545 -17.420  -1.583  0.00  0.00     0.048 C 
ATOM     15  C   UNL d   1      29.202 -17.453  -0.669  0.00  0.00     0.024 A 
ENDBRANCH   6   9
ENDBRANCH   1   5
BRANCH   2  16
ATOM     16  C   UNL d   1      22.017 -17.858  -0.693  0.00  0.00     0.076 C 
ATOM     17  C   UNL d   1      21.780 -18.674   0.359  0.00  0.00     0.017 C 
BRANCH  17  18
ATOM     18  C   UNL d   1      20.517 -19.428   0.602  0.00  0.00    -0.036 A 
ATOM     19  C   UNL d   1      19.643 -19.748  -0.456  0.00  0.00     0.011 A 
ATOM     20  C   UNL d   1      18.443 -20.444  -0.223  0.00  0.00     0.001 A 
ATOM     21  C   UNL d   1      18.095 -20.833   1.068  0.00  0.00     0.000 A 
ATOM     22  C   UNL d   1      18.948 -20.534   2.122  0.00  0.00     0.001 A 
ATOM     23  C   UNL d   1      20.140 -19.841   1.889  0.00  0.00     0.011 A 
ENDBRANCH  17  18
ENDBRANCH   2  16
TORSDOF 4
ENDMDL
MODEL 6
REMARK VINA RESULT:    -7.110      2.905      9.235
REMARK INTER + INTRA:          -9.673
REMARK INTER:                  -8.304
REMARK INTRA:                  -1.369
REMARK CONF_INDEPENDENT:        1.193
REMARK UNBOUND:                -1.369
REMARK  4 active torsions:
REMARK  status: ('A' for Active; 'I' for Inactive)
REMARK    1  A    between atoms: C_6  and  C_7 
REMARK       I    between atoms: C_7  and  N_9 
REMARK    2  A    between atoms: N_9  and  N_10 
REMARK       I    between atoms: N_10  and  C_11 
REMARK    3  A    between atoms: C_11  and  C_13 
REMARK    4  A    between atoms: C_14  and  C_15 
ROOT
ATOM      1  N   UNL d   1      24.508 -17.681  -0.297  0.00  0.00    -0.264 N 
ATOM      2  C   UNL d   1      23.394 -17.089  -0.879  0.00  0.00     0.259 C 
ATOM      3  O   UNL d   1      23.455 -16.037  -1.515  0.00  0.00    -0.267 OA
ATOM      4  H   UNL d   1      24.501 -18.548   0.237  0.00  0.00     0.190 HD
ENDROOT
BRANCH   1   5
ATOM      5  N   UNL d   1      25.771 -17.043  -0.443  0.00  0.00    -0.263 N 
ATOM      6  C   UNL d   1      26.913 -17.572   0.154  0.00  0.00     0.270 C 
ATOM      7  O   UNL d   1      26.873 -18.604   0.827  0.00  0.00    -0.266 OA
ATOM      8  H   UNL d   1      25.751 -16.196  -1.003  0.00  0.00     0.190 HD
BRANCH   6   9
ATOM      9  C   UNL d   1      28.225 -16.840  -0.039  0.00  0.00     0.034 A 
ATOM     10  C   UNL d   1      29.205 -17.381  -0.894  0.00  0.00     0.017 A 
ATOM     11  C   UNL d   1      30.437 -16.735  -1.086  0.00  0.00     0.002 A 
ATOM     12  C   UNL d   1      30.708 -15.533  -0.434  0.00  0.00     0.007 A 
ATOM     13  C   UNL d   1      29.748 -14.971   0.410  0.00  0.00    -0.061 A 
ATOM     14  C   UNL d   1      30.009 -13.667   1.107  0.00  0.00     0.048 C 
ATOM     15  C   UNL d   1      28.517 -15.628   0.603  0.00  0.00     0.024 A 
ENDBRANCH   6   9
ENDBRANCH   1   5
BRANCH   2  16
ATOM     16  C   UNL d   1      22.106 -17.826  -0.678  0.00  0.00     0.076 C 
ATOM     17  C   UNL d   1      21.846 -18.575   0.417  0.00  0.00     0.017 C 
BRANCH  17  18
ATOM     18  C   UNL d   1      20.590 -19.339   0.665  0.00  0.00    -0.036 A 
ATOM     19  C   UNL d   1      20.212 -19.718   1.968  0.00  0.00     0.011 A 
ATOM     20  C   UNL d   1      19.035 -20.454   2.199  0.00  0.00     0.001 A 
ATOM     21  C   UNL d   1      18.217 -20.823   1.135  0.00  0.00     0.000 A 
ATOM     22  C   UNL d   1      18.569 -20.451  -0.155  0.00  0.00     0.001 A 
ATOM     23  C   UNL d   1      19.739 -19.721  -0.383  0.00  0.00     0.011 A 
ENDBRANCH  17  18
ENDBRANCH   2  16
TORSDOF 4
ENDMDL
MODEL 7
REMARK VINA RESULT:    -6.593      5.005     10.584
REMARK INTER + INTRA:          -9.117
REMARK INTER:                  -7.786
REMARK INTRA:                  -1.330
REMARK CONF_INDEPENDENT:        1.193
REMARK UNBOUND:                -1.330
REMARK  4 active torsions:
REMARK  status: ('A' for Active; 'I' for Inactive)
REMARK    1  A    between atoms: C_6  and  C_7 
REMARK       I    between atoms: C_7  and  N_9 
REMARK    2  A    between atoms: N_9  and  N_10 
REMARK       I    between atoms: N_10  and  C_11 
REMARK    3  A    between atoms: C_11  and  C_13 
REMARK    4  A    between atoms: C_14  and  C_15 
ROOT
ATOM      1  N   UNL d   1      25.981 -12.554  -3.750  0.00  0.00    -0.264 N 
ATOM      2  C   UNL d   1      25.349 -13.787  -3.858  0.00  0.00     0.259 C 
ATOM      3  O   UNL d   1      24.416 -13.992  -4.634  0.00  0.00    -0.267 OA
ATOM      4  H   UNL d   1      26.754 -12.343  -3.122  0.00  0.00     0.190 HD
ENDROOT
BRANCH   1   5
ATOM      5  N   UNL d   1      25.531 -11.486  -4.574  0.00  0.00    -0.263 N 
ATOM      6  C   UNL d   1      26.042 -10.199  -4.419  0.00  0.00     0.270 C 
ATOM      7  O   UNL d   1      26.897  -9.939  -3.570  0.00  0.00    -0.266 OA
ATOM      8  H   UNL d   1      24.825 -11.749  -5.254  0.00  0.00     0.190 HD
BRANCH   6   9
ATOM      9  C   UNL d   1      25.515  -9.107  -5.327  0.00  0.00     0.034 A 
ATOM     10  C   UNL d   1      26.262  -8.718  -6.456  0.00  0.00     0.017 A 
ATOM     11  C   UNL d   1      25.809  -7.701  -7.312  0.00  0.00     0.002 A 
ATOM     12  C   UNL d   1      24.598  -7.060  -7.059  0.00  0.00     0.007 A 
ATOM     13  C   UNL d   1      23.833  -7.434  -5.952  0.00  0.00    -0.061 A 
ATOM     14  C   UNL d   1      22.516  -6.771  -5.671  0.00  0.00     0.048 C 
ATOM     15  C   UNL d   1      24.297  -8.451  -5.094  0.00  0.00     0.024 A 
ENDBRANCH   6   9
ENDBRANCH   1   5
BRANCH   2  16
ATOM     16  C   UNL d   1      25.885 -14.855  -2.957  0.00  0.00     0.076 C 
ATOM     17  C   UNL d   1      25.135 -15.478  -2.020  0.00  0.00     0.017 C 
BRANCH  17  18
ATOM     18  C   UNL d   1      25.617 -16.538  -1.089  0.00  0.00    -0.036 A 
ATOM     19  C   UNL d   1      26.952 -16.562  -0.639  0.00  0.00     0.011 A 
ATOM     20  C   UNL d   1      27.410 -17.573   0.226  0.00  0.00     0.001 A 
ATOM     21  C   UNL d   1      26.545 -18.576   0.656  0.00  0.00     0.000 A 
ATOM     22  C   UNL d   1      25.224 -18.563   0.230  0.00  0.00     0.001 A 
ATOM     23  C   UNL d   1      24.770 -17.559  -0.630  0.00  0.00     0.011 A 
ENDBRANCH  17  18
ENDBRANCH   2  16
TORSDOF 4
ENDMDL
MODEL 8
REMARK VINA RESULT:    -6.559      5.289      8.020
REMARK INTER + INTRA:          -9.107
REMARK INTER:                  -7.752
REMARK INTRA:                  -1.355
REMARK CONF_INDEPENDENT:        1.193
REMARK UNBOUND:                -1.355
REMARK  4 active torsions:
REMARK  status: ('A' for Active; 'I' for Inactive)
REMARK    1  A    between atoms: C_6  and  C_7 
REMARK       I    between atoms: C_7  and  N_9 
REMARK    2  A    between atoms: N_9  and  N_10 
REMARK       I    between atoms: N_10  and  C_11 
REMARK    3  A    between atoms: C_11  and  C_13 
REMARK    4  A    between atoms: C_14  and  C_15 
ROOT
ATOM      1  N   UNL d   1      25.350 -11.852  -3.895  0.00  0.00    -0.264 N 
ATOM      2  C   UNL d   1      25.904 -10.607  -3.623  0.00  0.00     0.259 C 
ATOM      3  O   UNL d   1      26.588 -10.387  -2.623  0.00  0.00    -0.267 OA
ATOM      4  H   UNL d   1      24.779 -12.076  -4.708  0.00  0.00     0.190 HD
ENDROOT
BRANCH   1   5
ATOM      5  N   UNL d   1      25.584 -12.915  -2.979  0.00  0.00    -0.263 N 
ATOM      6  C   UNL d   1      25.087 -14.193  -3.225  0.00  0.00     0.270 C 
ATOM      7  O   UNL d   1      24.431 -14.450  -4.236  0.00  0.00    -0.266 OA
ATOM      8  H   UNL d   1      26.126 -12.653  -2.161  0.00  0.00     0.190 HD
BRANCH   6   9
ATOM      9  C   UNL d   1      25.370 -15.278  -2.206  0.00  0.00     0.034 A 
ATOM     10  C   UNL d   1      26.646 -15.363  -1.615  0.00  0.00     0.017 A 
ATOM     11  C   UNL d   1      26.946 -16.363  -0.676  0.00  0.00     0.002 A 
ATOM     12  C   UNL d   1      25.975 -17.291  -0.306  0.00  0.00     0.007 A 
ATOM     13  C   UNL d   1      24.698 -17.221  -0.869  0.00  0.00    -0.061 A 
ATOM     14  C   UNL d   1      23.630 -18.197  -0.470  0.00  0.00     0.048 C 
ATOM     15  C   UNL d   1      24.406 -16.218  -1.814  0.00  0.00     0.024 A 
ENDBRANCH   6   9
ENDBRANCH   1   5
BRANCH   2  16
ATOM     16  C   UNL d   1      25.610  -9.546  -4.637  0.00  0.00     0.076 C 
ATOM     17  C   UNL d   1      24.466  -8.825  -4.642  0.00  0.00     0.017 C 
BRANCH  17  18
ATOM     18  C   UNL d   1      24.114  -7.767  -5.632  0.00  0.00    -0.036 A 
ATOM     19  C   UNL d   1      22.877  -7.096  -5.573  0.00  0.00     0.011 A 
ATOM     20  C   UNL d   1      22.539  -6.110  -6.519  0.00  0.00     0.001 A 
ATOM     21  C   UNL d   1      23.428  -5.778  -7.537  0.00  0.00     0.000 A 
ATOM     22  C   UNL d   1      24.656  -6.423  -7.606  0.00  0.00     0.001 A 
ATOM     23  C   UNL d   1      24.990  -7.403  -6.667  0.00  0.00     0.011 A 
ENDBRANCH  17  18
ENDBRANCH   2  16
TORSDOF 4
ENDMDL
MODEL 9
REMARK VINA RESULT:    -6.257      4.008      6.607
REMARK INTER + INTRA:          -8.805
REMARK INTER:                  -7.450
REMARK INTRA:                  -1.355
REMARK CONF_INDEPENDENT:        1.193
REMARK UNBOUND:                -1.355
REMARK  4 active torsions:
REMARK  status: ('A' for Active; 'I' for Inactive)
REMARK    1  A    between atoms: C_6  and  C_7 
REMARK       I    between atoms: C_7  and  N_9 
REMARK    2  A    between atoms: N_9  and  N_10 
REMARK       I    between atoms: N_10  and  C_11 
REMARK    3  A    between atoms: C_11  and  C_13 
REMARK    4  A    between atoms: C_14  and  C_15 
ROOT
ATOM      1  N   UNL d   1      27.027 -14.737  -4.877  0.00  0.00    -0.264 N 
ATOM      2  C   UNL d   1      28.155 -15.011  -5.642  0.00  0.00     0.259 C 
ATOM      3  O   UNL d   1      28.914 -15.949  -5.396  0.00  0.00    -0.267 OA
ATOM      4  H   UNL d   1      26.376 -13.972  -5.044  0.00  0.00     0.190 HD
ENDROOT
BRANCH   1   5
ATOM      5  N   UNL d   1      26.739 -15.577  -3.766  0.00  0.00    -0.263 N 
ATOM      6  C   UNL d   1      25.533 -15.463  -3.078  0.00  0.00     0.270 C 
ATOM      7  O   UNL d   1      24.677 -14.638  -3.402  0.00  0.00    -0.266 OA
ATOM      8  H   UNL d   1      27.476 -16.237  -3.536  0.00  0.00     0.190 HD
BRANCH   6   9
ATOM      9  C   UNL d   1      25.292 -16.386  -1.901  0.00  0.00     0.034 A 
ATOM     10  C   UNL d   1      26.349 -16.677  -1.016  0.00  0.00     0.017 A 
ATOM     11  C   UNL d   1      26.164 -17.538   0.078  0.00  0.00     0.002 A 
ATOM     12  C   UNL d   1      24.918 -18.118   0.311  0.00  0.00     0.007 A 
ATOM     13  C   UNL d   1      23.851 -17.837  -0.546  0.00  0.00    -0.061 A 
ATOM     14  C   UNL d   1      22.495 -18.433  -0.304  0.00  0.00     0.048 C 
ATOM     15  C   UNL d   1      24.046 -16.976  -1.645  0.00  0.00     0.024 A 
ENDBRANCH   6   9
ENDBRANCH   1   5
BRANCH   2  16
ATOM     16  C   UNL d   1      28.384 -14.080  -6.791  0.00  0.00     0.076 C 
ATOM     17  C   UNL d   1      27.780 -12.875  -6.899  0.00  0.00     0.017 C 
BRANCH  17  18
ATOM     18  C   UNL d   1      27.960 -11.914  -8.024  0.00  0.00    -0.036 A 
ATOM     19  C   UNL d   1      26.993 -10.929  -8.304  0.00  0.00     0.011 A 
ATOM     20  C   UNL d   1      27.155 -10.033  -9.377  0.00  0.00     0.001 A 
ATOM     21  C   UNL d   1      28.285 -10.106 -10.188  0.00  0.00     0.000 A 
ATOM     22  C   UNL d   1      29.253 -11.065  -9.922  0.00  0.00     0.001 A 
ATOM     23  C   UNL d   1      29.089 -11.955  -8.856  0.00  0.00     0.011 A 
ENDBRANCH  17  18
ENDBRANCH   2  16
TORSDOF 4
ENDMDL
