MODEL 1
REMARK VINA RESULT:    -7.816      0.000      0.000
REMARK INTER + INTRA:         -10.432
REMARK INTER:                  -9.308
REMARK INTRA:                  -1.124
REMARK CONF_INDEPENDENT:        1.492
REMARK UNBOUND:                -1.124
REMARK  5 active torsions:
REMARK  status: ('A' for Active; 'I' for Inactive)
REMARK    1  A    between atoms: C_2  and  C_3 
REMARK    2  A    between atoms: C_3  and  N_4 
REMARK    3  A    between atoms: C_12  and  C_13 
REMARK       I    between atoms: C_13  and  N_15 
REMARK    4  A    between atoms: N_15  and  C_16 
REMARK    5  A    between atoms: C_19  and  N_20 
ROOT
ATOM      1  C   UNL d   1      27.753 -13.522   3.612  0.00  0.00     0.257 C 
ATOM      2  O   UNL d   1      26.864 -12.761   3.240  0.00  0.00    -0.267 OA
ATOM      3  N   UNL d   1      28.362 -14.475   2.800  0.00  0.00    -0.322 N 
ATOM      4  H   UNL d   1      28.932 -15.201   3.211  0.00  0.00     0.169 HD
ENDROOT
BRANCH   1   5
ATOM      5  C   UNL d   1      28.156 -13.459   5.045  0.00  0.00     0.051 A 
ATOM      6  C   UNL d   1      28.275 -12.282   5.771  0.00  0.00     0.039 A 
ATOM      7  C   UNL d   1      28.643 -12.337   7.122  0.00  0.00     0.079 A 
ATOM      8  C   UNL d   1      28.751 -11.106   7.894  0.00  0.00     0.263 A 
ATOM      9  C   UNL d   1      28.902 -13.547   7.742  0.00  0.00     0.149 A 
ATOM     10  N   UNL d   1      29.101 -11.238   9.200  0.00  0.00    -0.274 N 
ATOM     11  O   UNL d   1      28.533 -10.012   7.369  0.00  0.00    -0.267 OA
ATOM     12  C   UNL d   1      29.335 -12.411   9.864  0.00  0.00     0.331 A 
ATOM     13  H   UNL d   1      29.183 -10.394   9.747  0.00  0.00     0.173 HD
ATOM     14  N   UNL d   1      29.216 -13.574   9.126  0.00  0.00    -0.283 N 
ATOM     15  O   UNL d   1      29.629 -12.366  11.055  0.00  0.00    -0.246 OA
ATOM     16  N   UNL d   1      28.826 -14.699   7.036  0.00  0.00    -0.241 NA
ATOM     17  C   UNL d   1      28.440 -14.639   5.727  0.00  0.00     0.136 A 
BRANCH  14  18
ATOM     18  C   UNL d   1      29.450 -14.859   9.788  0.00  0.00     0.135 C 
BRANCH  18  19
ATOM     19  C   UNL d   1      30.932 -15.197   9.966  0.00  0.00     0.016 C 
ATOM     20  C   UNL d   1      31.147 -16.193  11.087  0.00  0.00     0.006 C 
ENDBRANCH  18  19
ENDBRANCH  14  18
ENDBRANCH   1   5
BRANCH   3  21
ATOM     21  C   UNL d   1      28.015 -14.648   1.431  0.00  0.00     0.047 A 
ATOM     22  C   UNL d   1      27.561 -15.893   0.985  0.00  0.00     0.033 A 
ATOM     23  C   UNL d   1      27.178 -16.097  -0.348  0.00  0.00     0.032 A 
ATOM     24  C   UNL d   1      27.265 -15.069  -1.285  0.00  0.00     0.041 A 
ATOM     25  C   UNL d   1      27.688 -13.787  -0.833  0.00  0.00     0.006 A 
ATOM     26  C   UNL d   1      27.707 -12.691  -1.704  0.00  0.00     0.034 C 
ATOM     27  C   UNL d   1      28.042 -13.565   0.523  0.00  0.00     0.021 A 
ATOM     28  C   UNL d   1      27.882 -11.421  -1.199  0.00  0.00     0.117 C 
ATOM     29  N   UNL d   1      28.288 -11.175   0.056  0.00  0.00    -0.272 NA
ATOM     30  C   UNL d   1      28.427 -12.256   0.856  0.00  0.00     0.130 C 
BRANCH  24  31
ATOM     31  N   UNL d   1      26.985 -15.264  -2.635  0.00  0.00    -0.380 N 
ATOM     32  C   UNL d   1      28.091 -15.767  -3.448  0.00  0.00     0.123 C 
ATOM     33  C   UNL d   1      28.048 -15.034  -4.790  0.00  0.00     0.020 C 
ATOM     34  C   UNL d   1      26.684 -15.191  -5.466  0.00  0.00     0.003 C 
ATOM     35  C   UNL d   1      25.530 -14.845  -4.513  0.00  0.00     0.020 C 
ATOM     36  C   UNL d   1      25.658 -15.576  -3.161  0.00  0.00     0.123 C 
ENDBRANCH  24  31
ENDBRANCH   3  21
TORSDOF 5
ENDMDL
MODEL 2
REMARK VINA RESULT:    -7.785      2.560     10.616
REMARK INTER + INTRA:         -10.307
REMARK INTER:                  -9.277
REMARK INTRA:                  -1.030
REMARK CONF_INDEPENDENT:        1.492
REMARK UNBOUND:                -1.030
REMARK  5 active torsions:
REMARK  status: ('A' for Active; 'I' for Inactive)
REMARK    1  A    between atoms: C_2  and  C_3 
REMARK    2  A    between atoms: C_3  and  N_4 
REMARK    3  A    between atoms: C_12  and  C_13 
REMARK       I    between atoms: C_13  and  N_15 
REMARK    4  A    between atoms: N_15  and  C_16 
REMARK    5  A    between atoms: C_19  and  N_20 
ROOT
ATOM      1  C   UNL d   1      27.009 -13.462   1.982  0.00  0.00     0.257 C 
ATOM      2  O   UNL d   1      26.281 -12.600   2.466  0.00  0.00    -0.267 OA
ATOM      3  N   UNL d   1      27.991 -14.148   2.691  0.00  0.00    -0.322 N 
ATOM      4  H   UNL d   1      28.688 -14.689   2.197  0.00  0.00     0.169 HD
ENDROOT
BRANCH   1   5
ATOM      5  C   UNL d   1      26.869 -13.741   0.525  0.00  0.00     0.051 A 
ATOM      6  C   UNL d   1      26.285 -14.887   0.003  0.00  0.00     0.039 A 
ATOM      7  C   UNL d   1      26.187 -15.043  -1.386  0.00  0.00     0.079 A 
ATOM      8  C   UNL d   1      25.558 -16.235  -1.939  0.00  0.00     0.263 A 
ATOM      9  C   UNL d   1      26.674 -14.075  -2.248  0.00  0.00     0.149 A 
ATOM     10  N   UNL d   1      25.488 -16.310  -3.294  0.00  0.00    -0.274 N 
ATOM     11  O   UNL d   1      25.120 -17.117  -1.197  0.00  0.00    -0.267 OA
ATOM     12  C   UNL d   1      25.926 -15.368  -4.184  0.00  0.00     0.331 A 
ATOM     13  H   UNL d   1      25.058 -17.132  -3.691  0.00  0.00     0.173 HD
ATOM     14  N   UNL d   1      26.508 -14.234  -3.648  0.00  0.00    -0.283 N 
ATOM     15  O   UNL d   1      25.777 -15.577  -5.385  0.00  0.00    -0.246 OA
ATOM     16  N   UNL d   1      27.280 -12.970  -1.752  0.00  0.00    -0.241 NA
ATOM     17  C   UNL d   1      27.347 -12.814  -0.397  0.00  0.00     0.136 A 
BRANCH  14  18
ATOM     18  C   UNL d   1      26.989 -13.190  -4.555  0.00  0.00     0.135 C 
BRANCH  18  19
ATOM     19  C   UNL d   1      25.908 -12.182  -4.958  0.00  0.00     0.016 C 
ATOM     20  C   UNL d   1      25.905 -10.973  -4.045  0.00  0.00     0.006 C 
ENDBRANCH  18  19
ENDBRANCH  14  18
ENDBRANCH   1   5
BRANCH   3  21
ATOM     21  C   UNL d   1      28.238 -13.921   4.073  0.00  0.00     0.047 A 
ATOM     22  C   UNL d   1      28.258 -15.002   4.959  0.00  0.00     0.033 A 
ATOM     23  C   UNL d   1      28.530 -14.825   6.323  0.00  0.00     0.032 A 
ATOM     24  C   UNL d   1      28.761 -13.555   6.850  0.00  0.00     0.041 A 
ATOM     25  C   UNL d   1      28.782 -12.453   5.950  0.00  0.00     0.006 A 
ATOM     26  C   UNL d   1      29.101 -11.166   6.401  0.00  0.00     0.034 C 
ATOM     27  C   UNL d   1      28.544 -12.630   4.563  0.00  0.00     0.021 A 
ATOM     28  C   UNL d   1      29.353 -10.166   5.489  0.00  0.00     0.117 C 
ATOM     29  N   UNL d   1      29.072 -10.271   4.182  0.00  0.00    -0.272 NA
ATOM     30  C   UNL d   1      28.608 -11.472   3.770  0.00  0.00     0.130 C 
BRANCH  24  31
ATOM     31  N   UNL d   1      28.938 -13.334   8.213  0.00  0.00    -0.380 N 
ATOM     32  C   UNL d   1      30.284 -13.581   8.727  0.00  0.00     0.123 C 
ATOM     33  C   UNL d   1      30.141 -14.262  10.089  0.00  0.00     0.020 C 
ATOM     34  C   UNL d   1      29.277 -13.429  11.039  0.00  0.00     0.003 C 
ATOM     35  C   UNL d   1      27.948 -13.015  10.390  0.00  0.00     0.020 C 
ATOM     36  C   UNL d   1      28.157 -12.382   8.999  0.00  0.00     0.123 C 
ENDBRANCH  24  31
ENDBRANCH   3  21
TORSDOF 5
ENDMDL
MODEL 3
REMARK VINA RESULT:    -7.755      1.347      2.330
REMARK INTER + INTRA:         -10.387
REMARK INTER:                  -9.246
REMARK INTRA:                  -1.141
REMARK CONF_INDEPENDENT:        1.492
REMARK UNBOUND:                -1.141
REMARK  5 active torsions:
REMARK  status: ('A' for Active; 'I' for Inactive)
REMARK    1  A    between atoms: C_2  and  C_3 
REMARK    2  A    between atoms: C_3  and  N_4 
REMARK    3  A    between atoms: C_12  and  C_13 
REMARK       I    between atoms: C_13  and  N_15 
REMARK    4  A    between atoms: N_15  and  C_16 
REMARK    5  A    between atoms: C_19  and  N_20 
ROOT
ATOM      1  C   UNL d   1      28.149 -13.376   2.901  0.00  0.00     0.257 C 
ATOM      2  O   UNL d   1      27.424 -12.518   2.406  0.00  0.00    -0.267 OA
ATOM      3  N   UNL d   1      28.746 -14.409   2.183  0.00  0.00    -0.322 N 
ATOM      4  H   UNL d   1      29.157 -15.193   2.670  0.00  0.00     0.169 HD
ENDROOT
BRANCH   1   5
ATOM      5  C   UNL d   1      28.349 -13.340   4.377  0.00  0.00     0.051 A 
ATOM      6  C   UNL d   1      28.410 -12.175   5.128  0.00  0.00     0.039 A 
ATOM      7  C   UNL d   1      28.582 -12.254   6.516  0.00  0.00     0.079 A 
ATOM      8  C   UNL d   1      28.629 -11.034   7.312  0.00  0.00     0.263 A 
ATOM      9  C   UNL d   1      28.703 -13.479   7.151  0.00  0.00     0.149 A 
ATOM     10  N   UNL d   1      28.786 -11.190   8.653  0.00  0.00    -0.274 N 
ATOM     11  O   UNL d   1      28.530  -9.928   6.775  0.00  0.00    -0.267 OA
ATOM     12  C   UNL d   1      28.877 -12.377   9.328  0.00  0.00     0.331 A 
ATOM     13  H   UNL d   1      28.823 -10.354   9.216  0.00  0.00     0.173 HD
ATOM     14  N   UNL d   1      28.818 -13.529   8.564  0.00  0.00    -0.283 N 
ATOM     15  O   UNL d   1      29.002 -12.352  10.549  0.00  0.00    -0.246 OA
ATOM     16  N   UNL d   1      28.682 -14.622   6.426  0.00  0.00    -0.241 NA
ATOM     17  C   UNL d   1      28.487 -14.536   5.077  0.00  0.00     0.136 A 
BRANCH  14  18
ATOM     18  C   UNL d   1      28.905 -14.827   9.236  0.00  0.00     0.135 C 
BRANCH  18  19
ATOM     19  C   UNL d   1      30.234 -15.055   9.961  0.00  0.00     0.016 C 
ATOM     20  C   UNL d   1      31.412 -14.602   9.121  0.00  0.00     0.006 C 
ENDBRANCH  18  19
ENDBRANCH  14  18
ENDBRANCH   1   5
BRANCH   3  21
ATOM     21  C   UNL d   1      28.579 -14.561   0.778  0.00  0.00     0.047 A 
ATOM     22  C   UNL d   1      29.296 -13.739  -0.096  0.00  0.00     0.033 A 
ATOM     23  C   UNL d   1      29.186 -13.879  -1.487  0.00  0.00     0.032 A 
ATOM     24  C   UNL d   1      28.330 -14.825  -2.048  0.00  0.00     0.041 A 
ATOM     25  C   UNL d   1      27.625 -15.693  -1.167  0.00  0.00     0.006 A 
ATOM     26  C   UNL d   1      26.823 -16.725  -1.668  0.00  0.00     0.034 C 
ATOM     27  C   UNL d   1      27.760 -15.581   0.241  0.00  0.00     0.021 A 
ATOM     28  C   UNL d   1      26.348 -17.696  -0.815  0.00  0.00     0.117 C 
ATOM     29  N   UNL d   1      26.391 -17.591   0.522  0.00  0.00    -0.272 NA
ATOM     30  C   UNL d   1      27.030 -16.503   1.009  0.00  0.00     0.130 C 
BRANCH  24  31
ATOM     31  N   UNL d   1      28.124 -14.924  -3.421  0.00  0.00    -0.380 N 
ATOM     32  C   UNL d   1      28.973 -15.887  -4.122  0.00  0.00     0.123 C 
ATOM     33  C   UNL d   1      29.384 -15.255  -5.453  0.00  0.00     0.020 C 
ATOM     34  C   UNL d   1      28.161 -14.825  -6.267  0.00  0.00     0.003 C 
ATOM     35  C   UNL d   1      27.188 -13.979  -5.433  0.00  0.00     0.020 C 
ATOM     36  C   UNL d   1      26.852 -14.645  -4.084  0.00  0.00     0.123 C 
ENDBRANCH  24  31
ENDBRANCH   3  21
TORSDOF 5
ENDMDL
MODEL 4
REMARK VINA RESULT:    -7.720      7.108      9.349
REMARK INTER + INTRA:         -10.396
REMARK INTER:                  -9.212
REMARK INTRA:                  -1.184
REMARK CONF_INDEPENDENT:        1.492
REMARK UNBOUND:                -1.184
REMARK  5 active torsions:
REMARK  status: ('A' for Active; 'I' for Inactive)
REMARK    1  A    between atoms: C_2  and  C_3 
REMARK    2  A    between atoms: C_3  and  N_4 
REMARK    3  A    between atoms: C_12  and  C_13 
REMARK       I    between atoms: C_13  and  N_15 
REMARK    4  A    between atoms: N_15  and  C_16 
REMARK    5  A    between atoms: C_19  and  N_20 
ROOT
ATOM      1  C   UNL d   1      25.733 -13.876  -4.156  0.00  0.00     0.257 C 
ATOM      2  O   UNL d   1      24.761 -13.907  -4.904  0.00  0.00    -0.267 OA
ATOM      3  N   UNL d   1      26.785 -12.972  -4.274  0.00  0.00    -0.322 N 
ATOM      4  H   UNL d   1      27.645 -13.126  -3.765  0.00  0.00     0.169 HD
ENDROOT
BRANCH   1   5
ATOM      5  C   UNL d   1      25.819 -14.918  -3.095  0.00  0.00     0.051 A 
ATOM      6  C   UNL d   1      27.008 -15.468  -2.636  0.00  0.00     0.039 A 
ATOM      7  C   UNL d   1      26.978 -16.431  -1.618  0.00  0.00     0.079 A 
ATOM      8  C   UNL d   1      28.224 -16.998  -1.119  0.00  0.00     0.263 A 
ATOM      9  C   UNL d   1      25.778 -16.851  -1.069  0.00  0.00     0.149 A 
ATOM     10  N   UNL d   1      28.117 -17.916  -0.124  0.00  0.00    -0.274 N 
ATOM     11  O   UNL d   1      29.308 -16.648  -1.592  0.00  0.00    -0.267 OA
ATOM     12  C   UNL d   1      26.959 -18.339   0.471  0.00  0.00     0.331 A 
ATOM     13  H   UNL d   1      28.971 -18.320   0.229  0.00  0.00     0.173 HD
ATOM     14  N   UNL d   1      25.783 -17.784  -0.000  0.00  0.00    -0.283 N 
ATOM     15  O   UNL d   1      27.029 -19.169   1.373  0.00  0.00    -0.246 OA
ATOM     16  N   UNL d   1      24.609 -16.350  -1.533  0.00  0.00    -0.241 NA
ATOM     17  C   UNL d   1      24.649 -15.392  -2.507  0.00  0.00     0.136 A 
BRANCH  14  18
ATOM     18  C   UNL d   1      24.515 -18.195   0.605  0.00  0.00     0.135 C 
BRANCH  18  19
ATOM     19  C   UNL d   1      23.593 -18.951  -0.357  0.00  0.00     0.016 C 
ATOM     20  C   UNL d   1      22.142 -18.562  -0.159  0.00  0.00     0.006 C 
ENDBRANCH  18  19
ENDBRANCH  14  18
ENDBRANCH   1   5
BRANCH   3  21
ATOM     21  C   UNL d   1      26.824 -11.969  -5.283  0.00  0.00     0.047 A 
ATOM     22  C   UNL d   1      27.413 -12.254  -6.519  0.00  0.00     0.033 A 
ATOM     23  C   UNL d   1      27.441 -11.305  -7.551  0.00  0.00     0.032 A 
ATOM     24  C   UNL d   1      26.909 -10.030  -7.369  0.00  0.00     0.041 A 
ATOM     25  C   UNL d   1      26.271  -9.744  -6.129  0.00  0.00     0.006 A 
ATOM     26  C   UNL d   1      25.634  -8.515  -5.918  0.00  0.00     0.034 C 
ATOM     27  C   UNL d   1      26.206 -10.711  -5.093  0.00  0.00     0.021 A 
ATOM     28  C   UNL d   1      24.822  -8.346  -4.818  0.00  0.00     0.117 C 
ATOM     29  N   UNL d   1      24.790  -9.203  -3.786  0.00  0.00    -0.272 NA
ATOM     30  C   UNL d   1      25.537 -10.321  -3.921  0.00  0.00     0.130 C 
BRANCH  24  31
ATOM     31  N   UNL d   1      27.007  -9.035  -8.337  0.00  0.00    -0.380 N 
ATOM     32  C   UNL d   1      27.971  -7.972  -8.061  0.00  0.00     0.123 C 
ATOM     33  C   UNL d   1      27.340  -6.650  -8.501  0.00  0.00     0.020 C 
ATOM     34  C   UNL d   1      26.906  -6.703  -9.968  0.00  0.00     0.003 C 
ATOM     35  C   UNL d   1      26.057  -7.947 -10.269  0.00  0.00     0.020 C 
ATOM     36  C   UNL d   1      26.723  -9.239  -9.756  0.00  0.00     0.123 C 
ENDBRANCH  24  31
ENDBRANCH   3  21
TORSDOF 5
ENDMDL
MODEL 5
REMARK VINA RESULT:    -7.701      7.077      9.439
REMARK INTER + INTRA:         -10.337
REMARK INTER:                  -9.193
REMARK INTRA:                  -1.144
REMARK CONF_INDEPENDENT:        1.492
REMARK UNBOUND:                -1.144
REMARK  5 active torsions:
REMARK  status: ('A' for Active; 'I' for Inactive)
REMARK    1  A    between atoms: C_2  and  C_3 
REMARK    2  A    between atoms: C_3  and  N_4 
REMARK    3  A    between atoms: C_12  and  C_13 
REMARK       I    between atoms: C_13  and  N_15 
REMARK    4  A    between atoms: N_15  and  C_16 
REMARK    5  A    between atoms: C_19  and  N_20 
ROOT
ATOM      1  C   UNL d   1      25.384 -13.453  -3.614  0.00  0.00     0.257 C 
ATOM      2  O   UNL d   1      24.741 -13.630  -4.645  0.00  0.00    -0.267 OA
ATOM      3  N   UNL d   1      26.025 -12.261  -3.285  0.00  0.00    -0.322 N 
ATOM      4  H   UNL d   1      26.703 -12.241  -2.535  0.00  0.00     0.169 HD
ENDROOT
BRANCH   1   5
ATOM      5  C   UNL d   1      25.539 -14.612  -2.692  0.00  0.00     0.051 A 
ATOM      6  C   UNL d   1      26.762 -15.134  -2.294  0.00  0.00     0.039 A 
ATOM      7  C   UNL d   1      26.796 -16.217  -1.406  0.00  0.00     0.079 A 
ATOM      8  C   UNL d   1      28.078 -16.757  -0.970  0.00  0.00     0.263 A 
ATOM      9  C   UNL d   1      25.627 -16.783  -0.926  0.00  0.00     0.149 A 
ATOM     10  N   UNL d   1      28.032 -17.799  -0.100  0.00  0.00    -0.274 N 
ATOM     11  O   UNL d   1      29.136 -16.279  -1.385  0.00  0.00    -0.267 OA
ATOM     12  C   UNL d   1      26.905 -18.370   0.427  0.00  0.00     0.331 A 
ATOM     13  H   UNL d   1      28.912 -18.186   0.209  0.00  0.00     0.173 HD
ATOM     14  N   UNL d   1      25.695 -17.840   0.017  0.00  0.00    -0.283 N 
ATOM     15  O   UNL d   1      27.030 -19.301   1.218  0.00  0.00    -0.246 OA
ATOM     16  N   UNL d   1      24.428 -16.307  -1.335  0.00  0.00    -0.241 NA
ATOM     17  C   UNL d   1      24.404 -15.234  -2.180  0.00  0.00     0.136 A 
BRANCH  14  18
ATOM     18  C   UNL d   1      24.457 -18.410   0.553  0.00  0.00     0.135 C 
BRANCH  18  19
ATOM     19  C   UNL d   1      23.539 -19.002  -0.520  0.00  0.00     0.016 C 
ATOM     20  C   UNL d   1      22.160 -18.374  -0.483  0.00  0.00     0.006 C 
ENDBRANCH  18  19
ENDBRANCH  14  18
ENDBRANCH   1   5
BRANCH   3  21
ATOM     21  C   UNL d   1      25.980 -11.111  -4.121  0.00  0.00     0.047 A 
ATOM     22  C   UNL d   1      25.505  -9.901  -3.607  0.00  0.00     0.033 A 
ATOM     23  C   UNL d   1      25.475  -8.736  -4.387  0.00  0.00     0.032 A 
ATOM     24  C   UNL d   1      25.891  -8.752  -5.717  0.00  0.00     0.041 A 
ATOM     25  C   UNL d   1      26.415  -9.969  -6.238  0.00  0.00     0.006 A 
ATOM     26  C   UNL d   1      26.937 -10.027  -7.536  0.00  0.00     0.034 C 
ATOM     27  C   UNL d   1      26.482 -11.142  -5.443  0.00  0.00     0.021 A 
ATOM     28  C   UNL d   1      27.653 -11.133  -7.935  0.00  0.00     0.117 C 
ATOM     29  N   UNL d   1      27.679 -12.284  -7.246  0.00  0.00    -0.272 NA
ATOM     30  C   UNL d   1      27.033 -12.278  -6.058  0.00  0.00     0.130 C 
BRANCH  24  31
ATOM     31  N   UNL d   1      25.785  -7.639  -6.546  0.00  0.00    -0.380 N 
ATOM     32  C   UNL d   1      24.464  -7.014  -6.603  0.00  0.00     0.123 C 
ATOM     33  C   UNL d   1      24.207  -6.611  -8.056  0.00  0.00     0.020 C 
ATOM     34  C   UNL d   1      25.324  -5.710  -8.590  0.00  0.00     0.003 C 
ATOM     35  C   UNL d   1      26.714  -6.308  -8.331  0.00  0.00     0.020 C 
ATOM     36  C   UNL d   1      26.892  -6.740  -6.861  0.00  0.00     0.123 C 
ENDBRANCH  24  31
ENDBRANCH   3  21
TORSDOF 5
ENDMDL
MODEL 6
REMARK VINA RESULT:    -7.570      2.577     10.324
REMARK INTER + INTRA:         -10.264
REMARK INTER:                  -9.061
REMARK INTRA:                  -1.203
REMARK CONF_INDEPENDENT:        1.492
REMARK UNBOUND:                -1.203
REMARK  5 active torsions:
REMARK  status: ('A' for Active; 'I' for Inactive)
REMARK    1  A    between atoms: C_2  and  C_3 
REMARK    2  A    between atoms: C_3  and  N_4 
REMARK    3  A    between atoms: C_12  and  C_13 
REMARK       I    between atoms: C_13  and  N_15 
REMARK    4  A    between atoms: N_15  and  C_16 
REMARK    5  A    between atoms: C_19  and  N_20 
ROOT
ATOM      1  C   UNL d   1      28.184 -13.858   2.496  0.00  0.00     0.257 C 
ATOM      2  O   UNL d   1      29.406 -13.736   2.480  0.00  0.00    -0.267 OA
ATOM      3  N   UNL d   1      27.404 -13.790   3.648  0.00  0.00    -0.322 N 
ATOM      4  H   UNL d   1      26.442 -14.100   3.627  0.00  0.00     0.169 HD
ENDROOT
BRANCH   1   5
ATOM      5  C   UNL d   1      27.506 -14.162   1.205  0.00  0.00     0.051 A 
ATOM      6  C   UNL d   1      27.325 -13.241   0.183  0.00  0.00     0.039 A 
ATOM      7  C   UNL d   1      26.689 -13.637  -1.001  0.00  0.00     0.079 A 
ATOM      8  C   UNL d   1      26.513 -12.679  -2.085  0.00  0.00     0.263 A 
ATOM      9  C   UNL d   1      26.228 -14.932  -1.163  0.00  0.00     0.149 A 
ATOM     10  N   UNL d   1      25.899 -13.138  -3.206  0.00  0.00    -0.274 N 
ATOM     11  O   UNL d   1      26.908 -11.517  -1.968  0.00  0.00    -0.267 OA
ATOM     12  C   UNL d   1      25.456 -14.414  -3.425  0.00  0.00     0.331 A 
ATOM     13  H   UNL d   1      25.768 -12.485  -3.964  0.00  0.00     0.173 HD
ATOM     14  N   UNL d   1      25.640 -15.319  -2.396  0.00  0.00    -0.283 N 
ATOM     15  O   UNL d   1      24.931 -14.679  -4.504  0.00  0.00    -0.246 OA
ATOM     16  N   UNL d   1      26.365 -15.830  -0.160  0.00  0.00    -0.241 NA
ATOM     17  C   UNL d   1      27.010 -15.443   0.980  0.00  0.00     0.136 A 
BRANCH  14  18
ATOM     18  C   UNL d   1      25.190 -16.700  -2.579  0.00  0.00     0.135 C 
BRANCH  18  19
ATOM     19  C   UNL d   1      24.044 -17.100  -1.645  0.00  0.00     0.016 C 
ATOM     20  C   UNL d   1      24.464 -18.195  -0.685  0.00  0.00     0.006 C 
ENDBRANCH  18  19
ENDBRANCH  14  18
ENDBRANCH   1   5
BRANCH   3  21
ATOM     21  C   UNL d   1      27.959 -13.552   4.936  0.00  0.00     0.047 A 
ATOM     22  C   UNL d   1      28.340 -14.634   5.735  0.00  0.00     0.033 A 
ATOM     23  C   UNL d   1      28.921 -14.443   6.997  0.00  0.00     0.032 A 
ATOM     24  C   UNL d   1      29.112 -13.162   7.512  0.00  0.00     0.041 A 
ATOM     25  C   UNL d   1      28.766 -12.053   6.690  0.00  0.00     0.006 A 
ATOM     26  C   UNL d   1      29.020 -10.741   7.110  0.00  0.00     0.034 C 
ATOM     27  C   UNL d   1      28.211 -12.239   5.397  0.00  0.00     0.021 A 
ATOM     28  C   UNL d   1      28.905  -9.703   6.214  0.00  0.00     0.117 C 
ATOM     29  N   UNL d   1      28.319  -9.825   5.013  0.00  0.00    -0.272 NA
ATOM     30  C   UNL d   1      27.924 -11.072   4.671  0.00  0.00     0.130 C 
BRANCH  24  31
ATOM     31  N   UNL d   1      29.597 -12.939   8.798  0.00  0.00    -0.380 N 
ATOM     32  C   UNL d   1      28.844 -13.573   9.879  0.00  0.00     0.123 C 
ATOM     33  C   UNL d   1      28.776 -12.578  11.039  0.00  0.00     0.020 C 
ATOM     34  C   UNL d   1      30.175 -12.124  11.465  0.00  0.00     0.003 C 
ATOM     35  C   UNL d   1      31.012 -11.651  10.267  0.00  0.00     0.020 C 
ATOM     36  C   UNL d   1      30.998 -12.674   9.113  0.00  0.00     0.123 C 
ENDBRANCH  24  31
ENDBRANCH   3  21
TORSDOF 5
ENDMDL
MODEL 7
REMARK VINA RESULT:    -7.560      2.700     10.593
REMARK INTER + INTRA:         -10.180
REMARK INTER:                  -9.052
REMARK INTRA:                  -1.128
REMARK CONF_INDEPENDENT:        1.492
REMARK UNBOUND:                -1.128
REMARK  5 active torsions:
REMARK  status: ('A' for Active; 'I' for Inactive)
REMARK    1  A    between atoms: C_2  and  C_3 
REMARK    2  A    between atoms: C_3  and  N_4 
REMARK    3  A    between atoms: C_12  and  C_13 
REMARK       I    between atoms: C_13  and  N_15 
REMARK    4  A    between atoms: N_15  and  C_16 
REMARK    5  A    between atoms: C_19  and  N_20 
ROOT
ATOM      1  C   UNL d   1      27.860 -13.824   1.372  0.00  0.00     0.257 C 
ATOM      2  O   UNL d   1      27.190 -12.864   1.742  0.00  0.00    -0.267 OA
ATOM      3  N   UNL d   1      28.699 -14.562   2.203  0.00  0.00    -0.322 N 
ATOM      4  H   UNL d   1      29.374 -15.201   1.804  0.00  0.00     0.169 HD
ENDROOT
BRANCH   1   5
ATOM      5  C   UNL d   1      27.818 -14.176  -0.075  0.00  0.00     0.051 A 
ATOM      6  C   UNL d   1      26.650 -14.294  -0.815  0.00  0.00     0.039 A 
ATOM      7  C   UNL d   1      26.724 -14.611  -2.178  0.00  0.00     0.079 A 
ATOM      8  C   UNL d   1      25.502 -14.718  -2.965  0.00  0.00     0.263 A 
ATOM      9  C   UNL d   1      27.945 -14.821  -2.796  0.00  0.00     0.149 A 
ATOM     10  N   UNL d   1      25.652 -15.017  -4.281  0.00  0.00    -0.274 N 
ATOM     11  O   UNL d   1      24.399 -14.543  -2.441  0.00  0.00    -0.267 OA
ATOM     12  C   UNL d   1      26.835 -15.201  -4.943  0.00  0.00     0.331 A 
ATOM     13  H   UNL d   1      24.814 -15.097  -4.838  0.00  0.00     0.173 HD
ATOM     14  N   UNL d   1      27.990 -15.084  -4.190  0.00  0.00    -0.283 N 
ATOM     15  O   UNL d   1      26.806 -15.453  -6.144  0.00  0.00    -0.246 OA
ATOM     16  N   UNL d   1      29.089 -14.745  -2.078  0.00  0.00    -0.241 NA
ATOM     17  C   UNL d   1      29.010 -14.409  -0.756  0.00  0.00     0.136 A 
BRANCH  14  18
ATOM     18  C   UNL d   1      29.285 -15.265  -4.849  0.00  0.00     0.135 C 
BRANCH  18  19
ATOM     19  C   UNL d   1      29.825 -16.694  -4.757  0.00  0.00     0.016 C 
ATOM     20  C   UNL d   1      30.402 -17.159  -6.078  0.00  0.00     0.006 C 
ENDBRANCH  18  19
ENDBRANCH  14  18
ENDBRANCH   1   5
BRANCH   3  21
ATOM     21  C   UNL d   1      28.848 -14.277   3.589  0.00  0.00     0.047 A 
ATOM     22  C   UNL d   1      28.155 -15.043   4.531  0.00  0.00     0.033 A 
ATOM     23  C   UNL d   1      28.300 -14.817   5.907  0.00  0.00     0.032 A 
ATOM     24  C   UNL d   1      29.120 -13.795   6.384  0.00  0.00     0.041 A 
ATOM     25  C   UNL d   1      29.861 -13.036   5.435  0.00  0.00     0.006 A 
ATOM     26  C   UNL d   1      30.773 -12.059   5.854  0.00  0.00     0.034 C 
ATOM     27  C   UNL d   1      29.747 -13.284   4.043  0.00  0.00     0.021 A 
ATOM     28  C   UNL d   1      31.649 -11.510   4.946  0.00  0.00     0.117 C 
ATOM     29  N   UNL d   1      31.529 -11.662   3.618  0.00  0.00    -0.272 NA
ATOM     30  C   UNL d   1      30.539 -12.483   3.204  0.00  0.00     0.130 C 
BRANCH  24  31
ATOM     31  N   UNL d   1      29.211 -13.482   7.737  0.00  0.00    -0.380 N 
ATOM     32  C   UNL d   1      30.340 -14.075   8.452  0.00  0.00     0.123 C 
ATOM     33  C   UNL d   1      29.837 -14.512   9.829  0.00  0.00     0.020 C 
ATOM     34  C   UNL d   1      29.192 -13.345  10.582  0.00  0.00     0.003 C 
ATOM     35  C   UNL d   1      28.149 -12.617   9.723  0.00  0.00     0.020 C 
ATOM     36  C   UNL d   1      28.701 -12.249   8.331  0.00  0.00     0.123 C 
ENDBRANCH  24  31
ENDBRANCH   3  21
TORSDOF 5
ENDMDL
MODEL 8
REMARK VINA RESULT:    -7.426      9.615     12.791
REMARK INTER + INTRA:         -10.065
REMARK INTER:                  -8.918
REMARK INTRA:                  -1.147
REMARK CONF_INDEPENDENT:        1.492
REMARK UNBOUND:                -1.147
REMARK  5 active torsions:
REMARK  status: ('A' for Active; 'I' for Inactive)
REMARK    1  A    between atoms: C_2  and  C_3 
REMARK    2  A    between atoms: C_3  and  N_4 
REMARK    3  A    between atoms: C_12  and  C_13 
REMARK       I    between atoms: C_13  and  N_15 
REMARK    4  A    between atoms: N_15  and  C_16 
REMARK    5  A    between atoms: C_19  and  N_20 
ROOT
ATOM      1  C   UNL d   1      29.741 -15.977  -5.723  0.00  0.00     0.257 C 
ATOM      2  O   UNL d   1      29.698 -15.771  -4.514  0.00  0.00    -0.267 OA
ATOM      3  N   UNL d   1      29.162 -15.150  -6.682  0.00  0.00    -0.322 N 
ATOM      4  H   UNL d   1      29.052 -15.475  -7.633  0.00  0.00     0.169 HD
ENDROOT
BRANCH   1   5
ATOM      5  C   UNL d   1      30.401 -17.231  -6.184  0.00  0.00     0.051 A 
ATOM      6  C   UNL d   1      30.297 -18.452  -5.533  0.00  0.00     0.039 A 
ATOM      7  C   UNL d   1      30.945 -19.576  -6.063  0.00  0.00     0.079 A 
ATOM      8  C   UNL d   1      30.823 -20.865  -5.394  0.00  0.00     0.263 A 
ATOM      9  C   UNL d   1      31.697 -19.485  -7.222  0.00  0.00     0.149 A 
ATOM     10  N   UNL d   1      31.469 -21.911  -5.972  0.00  0.00    -0.274 N 
ATOM     11  O   UNL d   1      30.166 -20.976  -4.357  0.00  0.00    -0.267 OA
ATOM     12  C   UNL d   1      32.195 -21.878  -7.131  0.00  0.00     0.331 A 
ATOM     13  H   UNL d   1      31.396 -22.810  -5.518  0.00  0.00     0.173 HD
ATOM     14  N   UNL d   1      32.292 -20.653  -7.765  0.00  0.00    -0.283 N 
ATOM     15  O   UNL d   1      32.709 -22.918  -7.535  0.00  0.00    -0.246 OA
ATOM     16  N   UNL d   1      31.837 -18.293  -7.846  0.00  0.00    -0.241 NA
ATOM     17  C   UNL d   1      31.181 -17.208  -7.338  0.00  0.00     0.136 A 
BRANCH  14  18
ATOM     18  C   UNL d   1      33.053 -20.561  -9.013  0.00  0.00     0.135 C 
BRANCH  18  19
ATOM     19  C   UNL d   1      32.194 -20.727 -10.269  0.00  0.00     0.016 C 
ATOM     20  C   UNL d   1      30.801 -20.165 -10.071  0.00  0.00     0.006 C 
ENDBRANCH  18  19
ENDBRANCH  14  18
ENDBRANCH   1   5
BRANCH   3  21
ATOM     21  C   UNL d   1      28.467 -13.956  -6.343  0.00  0.00     0.047 A 
ATOM     22  C   UNL d   1      28.900 -12.732  -6.862  0.00  0.00     0.033 A 
ATOM     23  C   UNL d   1      28.223 -11.537  -6.580  0.00  0.00     0.032 A 
ATOM     24  C   UNL d   1      27.108 -11.524  -5.743  0.00  0.00     0.041 A 
ATOM     25  C   UNL d   1      26.635 -12.769  -5.243  0.00  0.00     0.006 A 
ATOM     26  C   UNL d   1      25.465 -12.835  -4.475  0.00  0.00     0.034 C 
ATOM     27  C   UNL d   1      27.293 -13.987  -5.554  0.00  0.00     0.021 A 
ATOM     28  C   UNL d   1      24.893 -14.058  -4.206  0.00  0.00     0.117 C 
ATOM     29  N   UNL d   1      25.515 -15.227  -4.418  0.00  0.00    -0.272 NA
ATOM     30  C   UNL d   1      26.725 -15.154  -5.017  0.00  0.00     0.130 C 
BRANCH  24  31
ATOM     31  N   UNL d   1      26.472 -10.345  -5.366  0.00  0.00    -0.380 N 
ATOM     32  C   UNL d   1      26.688  -9.920  -3.984  0.00  0.00     0.123 C 
ATOM     33  C   UNL d   1      25.358  -9.383  -3.453  0.00  0.00     0.020 C 
ATOM     34  C   UNL d   1      24.813  -8.266  -4.347  0.00  0.00     0.003 C 
ATOM     35  C   UNL d   1      24.789  -8.678  -5.827  0.00  0.00     0.020 C 
ATOM     36  C   UNL d   1      26.142  -9.258  -6.286  0.00  0.00     0.123 C 
ENDBRANCH  24  31
ENDBRANCH   3  21
TORSDOF 5
ENDMDL
MODEL 9
REMARK VINA RESULT:    -7.372      7.482      8.797
REMARK INTER + INTRA:         -10.010
REMARK INTER:                  -8.863
REMARK INTRA:                  -1.147
REMARK CONF_INDEPENDENT:        1.492
REMARK UNBOUND:                -1.147
REMARK  5 active torsions:
REMARK  status: ('A' for Active; 'I' for Inactive)
REMARK    1  A    between atoms: C_2  and  C_3 
REMARK    2  A    between atoms: C_3  and  N_4 
REMARK    3  A    between atoms: C_12  and  C_13 
REMARK       I    between atoms: C_13  and  N_15 
REMARK    4  A    between atoms: N_15  and  C_16 
REMARK    5  A    between atoms: C_19  and  N_20 
ROOT
ATOM      1  C   UNL d   1      32.533 -20.832  -0.385  0.00  0.00     0.257 C 
ATOM      2  O   UNL d   1      33.650 -21.064  -0.837  0.00  0.00    -0.267 OA
ATOM      3  N   UNL d   1      31.444 -20.427  -1.152  0.00  0.00    -0.322 N 
ATOM      4  H   UNL d   1      30.618 -20.055  -0.703  0.00  0.00     0.169 HD
ENDROOT
BRANCH   1   5
ATOM      5  C   UNL d   1      32.354 -20.930   1.091  0.00  0.00     0.051 A 
ATOM      6  C   UNL d   1      31.158 -21.266   1.711  0.00  0.00     0.039 A 
ATOM      7  C   UNL d   1      31.103 -21.348   3.109  0.00  0.00     0.079 A 
ATOM      8  C   UNL d   1      29.856 -21.719   3.765  0.00  0.00     0.263 A 
ATOM      9  C   UNL d   1      32.221 -21.089   3.883  0.00  0.00     0.149 A 
ATOM     10  N   UNL d   1      29.881 -21.790   5.121  0.00  0.00    -0.274 N 
ATOM     11  O   UNL d   1      28.841 -21.950   3.102  0.00  0.00    -0.267 OA
ATOM     12  C   UNL d   1      30.966 -21.575   5.926  0.00  0.00     0.331 A 
ATOM     13  H   UNL d   1      29.024 -22.043   5.589  0.00  0.00     0.173 HD
ATOM     14  N   UNL d   1      32.149 -21.237   5.293  0.00  0.00    -0.283 N 
ATOM     15  O   UNL d   1      30.832 -21.693   7.141  0.00  0.00    -0.246 OA
ATOM     16  N   UNL d   1      33.383 -20.724   3.293  0.00  0.00    -0.241 NA
ATOM     17  C   UNL d   1      33.435 -20.672   1.929  0.00  0.00     0.136 A 
BRANCH  14  18
ATOM     18  C   UNL d   1      33.344 -21.001   6.105  0.00  0.00     0.135 C 
BRANCH  18  19
ATOM     19  C   UNL d   1      34.128 -22.276   6.427  0.00  0.00     0.016 C 
ATOM     20  C   UNL d   1      34.912 -22.138   7.717  0.00  0.00     0.006 C 
ENDBRANCH  18  19
ENDBRANCH  14  18
ENDBRANCH   1   5
BRANCH   3  21
ATOM     21  C   UNL d   1      31.522 -20.256  -2.562  0.00  0.00     0.047 A 
ATOM     22  C   UNL d   1      31.886 -21.337  -3.371  0.00  0.00     0.033 A 
ATOM     23  C   UNL d   1      31.943 -21.219  -4.767  0.00  0.00     0.032 A 
ATOM     24  C   UNL d   1      31.667 -20.007  -5.397  0.00  0.00     0.041 A 
ATOM     25  C   UNL d   1      31.257 -18.912  -4.586  0.00  0.00     0.006 A 
ATOM     26  C   UNL d   1      30.874 -17.695  -5.166  0.00  0.00     0.034 C 
ATOM     27  C   UNL d   1      31.161 -19.034  -3.176  0.00  0.00     0.021 A 
ATOM     28  C   UNL d   1      30.255 -16.737  -4.396  0.00  0.00     0.117 C 
ATOM     29  N   UNL d   1      30.211 -16.782  -3.055  0.00  0.00    -0.272 NA
ATOM     30  C   UNL d   1      30.729 -17.891  -2.483  0.00  0.00     0.130 C 
BRANCH  24  31
ATOM     31  N   UNL d   1      31.808 -19.831  -6.771  0.00  0.00    -0.380 N 
ATOM     32  C   UNL d   1      33.046 -19.186  -7.205  0.00  0.00     0.123 C 
ATOM     33  C   UNL d   1      32.691 -18.225  -8.342  0.00  0.00     0.020 C 
ATOM     34  C   UNL d   1      31.960 -18.950  -9.475  0.00  0.00     0.003 C 
ATOM     35  C   UNL d   1      30.780 -19.784  -8.953  0.00  0.00     0.020 C 
ATOM     36  C   UNL d   1      31.191 -20.693  -7.777  0.00  0.00     0.123 C 
ENDBRANCH  24  31
ENDBRANCH   3  21
TORSDOF 5
ENDMDL
