MODEL 1
REMARK VINA RESULT:    -8.318      0.000      0.000
REMARK INTER + INTRA:         -12.866
REMARK INTER:                 -11.002
REMARK INTRA:                  -1.864
REMARK CONF_INDEPENDENT:        2.685
REMARK UNBOUND:                -1.864
REMARK  9 active torsions:
REMARK  status: ('A' for Active; 'I' for Inactive)
REMARK    1  A    between atoms: O_2  and  C_3 
REMARK    2  A    between atoms: C_3  and  C_5 
REMARK    3  A    between atoms: C_9  and  C_10 
REMARK       I    between atoms: C_10  and  N_12 
REMARK    4  A    between atoms: N_12  and  C_13 
REMARK    5  A    between atoms: C_13  and  N_15 
REMARK    6  A    between atoms: N_15  and  N_16 
REMARK       I    between atoms: N_16  and  C_17 
REMARK    7  A    between atoms: C_17  and  C_19 
REMARK    8  A    between atoms: C_19  and  O_20 
REMARK    9  A    between atoms: O_20  and  C_21 
ROOT
ATOM      1  C   UNL d   1      30.077 -14.081   3.297  0.00  0.00     0.193 C 
ATOM      2  S   UNL d   1      31.487 -14.501   2.468  0.00  0.00    -0.039 SA
ENDROOT
BRANCH   1   3
ATOM      3  N   UNL d   1      30.010 -13.711   4.661  0.00  0.00    -0.298 N 
ATOM      4  C   UNL d   1      28.853 -13.278   5.360  0.00  0.00     0.257 C 
ATOM      5  O   UNL d   1      27.741 -13.181   4.844  0.00  0.00    -0.267 OA
ATOM      6  H   UNL d   1      30.868 -13.769   5.184  0.00  0.00     0.171 HD
BRANCH   4   7
ATOM      7  C   UNL d   1      28.903 -12.918   6.822  0.00  0.00     0.033 A 
ATOM      8  C   UNL d   1      28.877 -11.538   7.152  0.00  0.00     0.017 A 
ATOM      9  C   UNL d   1      28.842 -11.099   8.479  0.00  0.00     0.002 A 
ATOM     10  C   UNL d   1      28.882 -12.035   9.509  0.00  0.00     0.017 A 
ATOM     11  C   UNL d   1      28.894 -13.405   9.204  0.00  0.00     0.040 A 
ATOM     12  C   UNL d   1      28.917 -13.846   7.866  0.00  0.00     0.034 A 
BRANCH  11  13
ATOM     13  C   UNL d   1      28.718 -14.374  10.311  0.00  0.00     0.292 C 
ATOM     14  O   UNL d   1      28.130 -14.090  11.350  0.00  0.00    -0.259 OA
BRANCH  13  15
ATOM     15  O   UNL d   1      29.266 -15.575  10.007  0.00  0.00    -0.323 OA
ATOM     16  C   UNL d   1      30.693 -15.614  10.154  0.00  0.00     0.213 C 
ENDBRANCH  13  15
ENDBRANCH  11  13
ENDBRANCH   4   7
ENDBRANCH   1   3
BRANCH   1  17
ATOM     17  N   UNL d   1      28.848 -14.092   2.613  0.00  0.00    -0.273 N 
ATOM     18  H   UNL d   1      28.114 -13.387   2.674  0.00  0.00     0.189 HD
BRANCH  17  19
ATOM     19  N   UNL d   1      28.546 -15.207   1.721  0.00  0.00    -0.266 N 
ATOM     20  C   UNL d   1      27.402 -15.216   0.930  0.00  0.00     0.260 C 
ATOM     21  O   UNL d   1      26.607 -14.276   0.967  0.00  0.00    -0.269 OA
ATOM     22  H   UNL d   1      29.236 -15.959   1.722  0.00  0.00     0.190 HD
BRANCH  20  23
ATOM     23  C   UNL d   1      27.207 -16.478   0.022  0.00  0.00     0.280 C 
BRANCH  23  24
ATOM     24  O   UNL d   1      26.160 -16.239  -0.928  0.00  0.00    -0.342 OA
BRANCH  24  25
ATOM     25  C   UNL d   1      24.946 -16.843  -0.730  0.00  0.00     0.069 A 
ATOM     26  C   UNL d   1      24.994 -18.180  -0.315  0.00  0.00     0.038 A 
ATOM     27  C   UNL d   1      23.825 -18.943  -0.202  0.00  0.00     0.022 A 
ATOM     28  C   UNL d   1      22.593 -18.350  -0.454  0.00  0.00     0.011 A 
ATOM     29 BR   UNL d   1      21.002 -19.324  -0.138  0.00  0.00    -0.051 Br
ATOM     30  C   UNL d   1      22.531 -17.028  -0.895  0.00  0.00     0.022 A 
ATOM     31  C   UNL d   1      23.710 -16.278  -1.048  0.00  0.00     0.038 A 
ENDBRANCH  24  25
ENDBRANCH  23  24
ENDBRANCH  20  23
ENDBRANCH  17  19
ENDBRANCH   1  17
TORSDOF 9
ENDMDL
MODEL 2
REMARK VINA RESULT:    -8.078      7.938     10.947
REMARK INTER + INTRA:         -12.368
REMARK INTER:                 -10.763
REMARK INTRA:                  -1.605
REMARK CONF_INDEPENDENT:        2.685
REMARK UNBOUND:                -1.605
REMARK  9 active torsions:
REMARK  status: ('A' for Active; 'I' for Inactive)
REMARK    1  A    between atoms: O_2  and  C_3 
REMARK    2  A    between atoms: C_3  and  C_5 
REMARK    3  A    between atoms: C_9  and  C_10 
REMARK       I    between atoms: C_10  and  N_12 
REMARK    4  A    between atoms: N_12  and  C_13 
REMARK    5  A    between atoms: C_13  and  N_15 
REMARK    6  A    between atoms: N_15  and  N_16 
REMARK       I    between atoms: N_16  and  C_17 
REMARK    7  A    between atoms: C_17  and  C_19 
REMARK    8  A    between atoms: C_19  and  O_20 
REMARK    9  A    between atoms: O_20  and  C_21 
ROOT
ATOM      1  C   UNL d   1      26.025 -12.966  -4.549  0.00  0.00     0.193 C 
ATOM      2  S   UNL d   1      25.586 -11.457  -3.934  0.00  0.00    -0.039 SA
ENDROOT
BRANCH   1   3
ATOM      3  N   UNL d   1      27.261 -13.270  -5.167  0.00  0.00    -0.298 N 
ATOM      4  C   UNL d   1      27.620 -14.502  -5.772  0.00  0.00     0.257 C 
ATOM      5  O   UNL d   1      26.869 -15.474  -5.837  0.00  0.00    -0.267 OA
ATOM      6  H   UNL d   1      27.947 -12.534  -5.182  0.00  0.00     0.171 HD
BRANCH   4   7
ATOM      7  C   UNL d   1      28.969 -14.705  -6.409  0.00  0.00     0.033 A 
ATOM      8  C   UNL d   1      29.645 -13.551  -6.883  0.00  0.00     0.017 A 
ATOM      9  C   UNL d   1      30.934 -13.620  -7.421  0.00  0.00     0.002 A 
ATOM     10  C   UNL d   1      31.557 -14.859  -7.542  0.00  0.00     0.017 A 
ATOM     11  C   UNL d   1      30.912 -16.012  -7.068  0.00  0.00     0.040 A 
ATOM     12  C   UNL d   1      29.618 -15.939  -6.514  0.00  0.00     0.034 A 
BRANCH  11  13
ATOM     13  C   UNL d   1      31.682 -17.277  -7.011  0.00  0.00     0.292 C 
ATOM     14  O   UNL d   1      32.868 -17.314  -6.700  0.00  0.00    -0.259 OA
BRANCH  13  15
ATOM     15  O   UNL d   1      30.905 -18.341  -7.324  0.00  0.00    -0.323 OA
ATOM     16  C   UNL d   1      30.651 -19.219  -6.217  0.00  0.00     0.213 C 
ENDBRANCH  13  15
ENDBRANCH  11  13
ENDBRANCH   4   7
ENDBRANCH   1   3
BRANCH   1  17
ATOM     17  N   UNL d   1      25.114 -14.036  -4.463  0.00  0.00    -0.273 N 
ATOM     18  H   UNL d   1      24.180 -14.070  -4.871  0.00  0.00     0.189 HD
BRANCH  17  19
ATOM     19  N   UNL d   1      25.498 -15.232  -3.722  0.00  0.00    -0.266 N 
ATOM     20  C   UNL d   1      25.792 -15.182  -2.364  0.00  0.00     0.260 C 
ATOM     21  O   UNL d   1      25.739 -14.117  -1.749  0.00  0.00    -0.269 OA
ATOM     22  H   UNL d   1      25.522 -16.091  -4.272  0.00  0.00     0.190 HD
BRANCH  20  23
ATOM     23  C   UNL d   1      26.190 -16.545  -1.698  0.00  0.00     0.280 C 
BRANCH  23  24
ATOM     24  O   UNL d   1      25.485 -16.708  -0.460  0.00  0.00    -0.342 OA
BRANCH  24  25
ATOM     25  C   UNL d   1      24.210 -17.209  -0.495  0.00  0.00     0.069 A 
ATOM     26  C   UNL d   1      24.100 -18.599  -0.364  0.00  0.00     0.038 A 
ATOM     27  C   UNL d   1      22.864 -19.242  -0.511  0.00  0.00     0.022 A 
ATOM     28  C   UNL d   1      21.720 -18.485  -0.735  0.00  0.00     0.011 A 
ATOM     29 BR   UNL d   1      20.028 -19.330  -0.763  0.00  0.00    -0.051 Br
ATOM     30  C   UNL d   1      21.817 -17.102  -0.895  0.00  0.00     0.022 A 
ATOM     31  C   UNL d   1      23.067 -16.465  -0.789  0.00  0.00     0.038 A 
ENDBRANCH  24  25
ENDBRANCH  23  24
ENDBRANCH  20  23
ENDBRANCH  17  19
ENDBRANCH   1  17
TORSDOF 9
ENDMDL
MODEL 3
REMARK VINA RESULT:    -7.911      7.747      9.600
REMARK INTER + INTRA:         -13.469
REMARK INTER:                 -10.596
REMARK INTRA:                  -2.873
REMARK CONF_INDEPENDENT:        2.685
REMARK UNBOUND:                -2.873
REMARK  9 active torsions:
REMARK  status: ('A' for Active; 'I' for Inactive)
REMARK    1  A    between atoms: O_2  and  C_3 
REMARK    2  A    between atoms: C_3  and  C_5 
REMARK    3  A    between atoms: C_9  and  C_10 
REMARK       I    between atoms: C_10  and  N_12 
REMARK    4  A    between atoms: N_12  and  C_13 
REMARK    5  A    between atoms: C_13  and  N_15 
REMARK    6  A    between atoms: N_15  and  N_16 
REMARK       I    between atoms: N_16  and  C_17 
REMARK    7  A    between atoms: C_17  and  C_19 
REMARK    8  A    between atoms: C_19  and  O_20 
REMARK    9  A    between atoms: O_20  and  C_21 
ROOT
ATOM      1  C   UNL d   1      25.929 -12.477  -3.172  0.00  0.00     0.193 C 
ATOM      2  S   UNL d   1      26.466 -10.973  -2.627  0.00  0.00    -0.039 SA
ENDROOT
BRANCH   1   3
ATOM      3  N   UNL d   1      25.746 -13.623  -2.362  0.00  0.00    -0.298 N 
ATOM      4  C   UNL d   1      25.367 -14.916  -2.806  0.00  0.00     0.257 C 
ATOM      5  O   UNL d   1      25.156 -15.198  -3.984  0.00  0.00    -0.267 OA
ATOM      6  H   UNL d   1      25.908 -13.505  -1.376  0.00  0.00     0.171 HD
BRANCH   4   7
ATOM      7  C   UNL d   1      25.211 -16.066  -1.846  0.00  0.00     0.033 A 
ATOM      8  C   UNL d   1      26.337 -16.407  -1.052  0.00  0.00     0.017 A 
ATOM      9  C   UNL d   1      26.275 -17.407  -0.077  0.00  0.00     0.002 A 
ATOM     10  C   UNL d   1      25.094 -18.124   0.091  0.00  0.00     0.017 A 
ATOM     11  C   UNL d   1      23.965 -17.795  -0.676  0.00  0.00     0.040 A 
ATOM     12  C   UNL d   1      24.025 -16.778  -1.649  0.00  0.00     0.034 A 
BRANCH  11  13
ATOM     13  C   UNL d   1      22.669 -18.424  -0.327  0.00  0.00     0.292 C 
ATOM     14  O   UNL d   1      22.225 -18.430   0.817  0.00  0.00    -0.259 OA
BRANCH  13  15
ATOM     15  O   UNL d   1      22.069 -18.953  -1.419  0.00  0.00    -0.323 OA
ATOM     16  C   UNL d   1      20.654 -19.144  -1.268  0.00  0.00     0.213 C 
ENDBRANCH  13  15
ENDBRANCH  11  13
ENDBRANCH   4   7
ENDBRANCH   1   3
BRANCH   1  17
ATOM     17  N   UNL d   1      25.632 -12.648  -4.537  0.00  0.00    -0.273 N 
ATOM     18  H   UNL d   1      24.823 -12.273  -5.032  0.00  0.00     0.189 HD
BRANCH  17  19
ATOM     19  N   UNL d   1      26.537 -13.440  -5.363  0.00  0.00    -0.266 N 
ATOM     20  C   UNL d   1      27.643 -12.868  -5.982  0.00  0.00     0.260 C 
ATOM     21  O   UNL d   1      27.884 -11.667  -5.850  0.00  0.00    -0.269 OA
ATOM     22  H   UNL d   1      26.299 -14.429  -5.438  0.00  0.00     0.190 HD
BRANCH  20  23
ATOM     23  C   UNL d   1      28.527 -13.838  -6.839  0.00  0.00     0.280 C 
BRANCH  23  24
ATOM     24  O   UNL d   1      28.250 -15.198  -6.477  0.00  0.00    -0.342 OA
BRANCH  24  25
ATOM     25  C   UNL d   1      28.841 -15.708  -5.351  0.00  0.00     0.069 A 
ATOM     26  C   UNL d   1      29.957 -16.525  -5.568  0.00  0.00     0.038 A 
ATOM     27  C   UNL d   1      30.569 -17.208  -4.509  0.00  0.00     0.022 A 
ATOM     28  C   UNL d   1      30.095 -17.029  -3.214  0.00  0.00     0.011 A 
ATOM     29 BR   UNL d   1      31.021 -17.810  -1.761  0.00  0.00    -0.051 Br
ATOM     30  C   UNL d   1      28.967 -16.240  -2.986  0.00  0.00     0.022 A 
ATOM     31  C   UNL d   1      28.330 -15.591  -4.058  0.00  0.00     0.038 A 
ENDBRANCH  24  25
ENDBRANCH  23  24
ENDBRANCH  20  23
ENDBRANCH  17  19
ENDBRANCH   1  17
TORSDOF 9
ENDMDL
MODEL 4
REMARK VINA RESULT:    -7.745      4.209      9.773
REMARK INTER + INTRA:         -12.670
REMARK INTER:                 -10.429
REMARK INTRA:                  -2.241
REMARK CONF_INDEPENDENT:        2.685
REMARK UNBOUND:                -2.241
REMARK  9 active torsions:
REMARK  status: ('A' for Active; 'I' for Inactive)
REMARK    1  A    between atoms: O_2  and  C_3 
REMARK    2  A    between atoms: C_3  and  C_5 
REMARK    3  A    between atoms: C_9  and  C_10 
REMARK       I    between atoms: C_10  and  N_12 
REMARK    4  A    between atoms: N_12  and  C_13 
REMARK    5  A    between atoms: C_13  and  N_15 
REMARK    6  A    between atoms: N_15  and  N_16 
REMARK       I    between atoms: N_16  and  C_17 
REMARK    7  A    between atoms: C_17  and  C_19 
REMARK    8  A    between atoms: C_19  and  O_20 
REMARK    9  A    between atoms: O_20  and  C_21 
ROOT
ATOM      1  C   UNL d   1      26.835 -13.387  -1.899  0.00  0.00     0.193 C 
ATOM      2  S   UNL d   1      26.869 -12.873  -3.506  0.00  0.00    -0.039 SA
ENDROOT
BRANCH   1   3
ATOM      3  N   UNL d   1      26.267 -14.599  -1.439  0.00  0.00    -0.298 N 
ATOM      4  C   UNL d   1      25.104 -15.231  -1.949  0.00  0.00     0.257 C 
ATOM      5  O   UNL d   1      24.440 -14.785  -2.884  0.00  0.00    -0.267 OA
ATOM      6  H   UNL d   1      26.744 -15.057  -0.681  0.00  0.00     0.171 HD
BRANCH   4   7
ATOM      7  C   UNL d   1      24.598 -16.531  -1.381  0.00  0.00     0.033 A 
ATOM      8  C   UNL d   1      25.517 -17.317  -0.640  0.00  0.00     0.017 A 
ATOM      9  C   UNL d   1      25.129 -18.502  -0.006  0.00  0.00     0.002 A 
ATOM     10  C   UNL d   1      23.819 -18.952  -0.145  0.00  0.00     0.017 A 
ATOM     11  C   UNL d   1      22.891 -18.183  -0.864  0.00  0.00     0.040 A 
ATOM     12  C   UNL d   1      23.280 -16.983  -1.490  0.00  0.00     0.034 A 
BRANCH  11  13
ATOM     13  C   UNL d   1      21.462 -18.574  -0.811  0.00  0.00     0.292 C 
ATOM     14  O   UNL d   1      20.559 -17.822  -1.165  0.00  0.00    -0.259 OA
BRANCH  13  15
ATOM     15  O   UNL d   1      21.314 -19.839  -0.350  0.00  0.00    -0.323 OA
ATOM     16  C   UNL d   1      20.337 -19.964   0.693  0.00  0.00     0.213 C 
ENDBRANCH  13  15
ENDBRANCH  11  13
ENDBRANCH   4   7
ENDBRANCH   1   3
BRANCH   1  17
ATOM     17  N   UNL d   1      27.403 -12.570  -0.903  0.00  0.00    -0.273 N 
ATOM     18  H   UNL d   1      27.774 -11.629  -1.031  0.00  0.00     0.189 HD
BRANCH  17  19
ATOM     19  N   UNL d   1      27.499 -13.082   0.460  0.00  0.00    -0.266 N 
ATOM     20  C   UNL d   1      28.231 -14.226   0.756  0.00  0.00     0.260 C 
ATOM     21  O   UNL d   1      28.819 -14.842  -0.133  0.00  0.00    -0.269 OA
ATOM     22  H   UNL d   1      26.999 -12.535   1.161  0.00  0.00     0.190 HD
BRANCH  20  23
ATOM     23  C   UNL d   1      28.245 -14.659   2.263  0.00  0.00     0.280 C 
BRANCH  23  24
ATOM     24  O   UNL d   1      27.499 -13.719   3.048  0.00  0.00    -0.342 OA
BRANCH  24  25
ATOM     25  C   UNL d   1      27.785 -13.609   4.383  0.00  0.00     0.069 A 
ATOM     26  C   UNL d   1      27.778 -12.308   4.901  0.00  0.00     0.038 A 
ATOM     27  C   UNL d   1      28.179 -12.052   6.218  0.00  0.00     0.022 A 
ATOM     28  C   UNL d   1      28.537 -13.113   7.043  0.00  0.00     0.011 A 
ATOM     29 BR   UNL d   1      28.914 -12.793   8.869  0.00  0.00    -0.051 Br
ATOM     30  C   UNL d   1      28.577 -14.411   6.534  0.00  0.00     0.022 A 
ATOM     31  C   UNL d   1      28.214 -14.658   5.198  0.00  0.00     0.038 A 
ENDBRANCH  24  25
ENDBRANCH  23  24
ENDBRANCH  20  23
ENDBRANCH  17  19
ENDBRANCH   1  17
TORSDOF 9
ENDMDL
MODEL 5
REMARK VINA RESULT:    -7.600      8.003     11.574
REMARK INTER + INTRA:         -12.270
REMARK INTER:                 -10.285
REMARK INTRA:                  -1.985
REMARK CONF_INDEPENDENT:        2.685
REMARK UNBOUND:                -1.985
REMARK  9 active torsions:
REMARK  status: ('A' for Active; 'I' for Inactive)
REMARK    1  A    between atoms: O_2  and  C_3 
REMARK    2  A    between atoms: C_3  and  C_5 
REMARK    3  A    between atoms: C_9  and  C_10 
REMARK       I    between atoms: C_10  and  N_12 
REMARK    4  A    between atoms: N_12  and  C_13 
REMARK    5  A    between atoms: C_13  and  N_15 
REMARK    6  A    between atoms: N_15  and  N_16 
REMARK       I    between atoms: N_16  and  C_17 
REMARK    7  A    between atoms: C_17  and  C_19 
REMARK    8  A    between atoms: C_19  and  O_20 
REMARK    9  A    between atoms: O_20  and  C_21 
ROOT
ATOM      1  C   UNL d   1      28.185 -13.609  -6.428  0.00  0.00     0.193 C 
ATOM      2  S   UNL d   1      28.416 -11.957  -6.682  0.00  0.00    -0.039 SA
ENDROOT
BRANCH   1   3
ATOM      3  N   UNL d   1      29.006 -14.640  -6.946  0.00  0.00    -0.298 N 
ATOM      4  C   UNL d   1      29.744 -15.588  -6.192  0.00  0.00     0.257 C 
ATOM      5  O   UNL d   1      29.747 -15.628  -4.963  0.00  0.00    -0.267 OA
ATOM      6  H   UNL d   1      29.062 -14.706  -7.949  0.00  0.00     0.171 HD
BRANCH   4   7
ATOM      7  C   UNL d   1      30.579 -16.649  -6.859  0.00  0.00     0.033 A 
ATOM      8  C   UNL d   1      31.633 -16.212  -7.701  0.00  0.00     0.017 A 
ATOM      9  C   UNL d   1      32.515 -17.113  -8.307  0.00  0.00     0.002 A 
ATOM     10  C   UNL d   1      32.328 -18.480  -8.119  0.00  0.00     0.017 A 
ATOM     11  C   UNL d   1      31.299 -18.933  -7.279  0.00  0.00     0.040 A 
ATOM     12  C   UNL d   1      30.420 -18.023  -6.660  0.00  0.00     0.034 A 
BRANCH  11  13
ATOM     13  C   UNL d   1      31.259 -20.373  -6.928  0.00  0.00     0.292 C 
ATOM     14  O   UNL d   1      31.894 -21.221  -7.548  0.00  0.00    -0.259 OA
BRANCH  13  15
ATOM     15  O   UNL d   1      30.464 -20.596  -5.855  0.00  0.00    -0.323 OA
ATOM     16  C   UNL d   1      31.141 -21.214  -4.751  0.00  0.00     0.213 C 
ENDBRANCH  13  15
ENDBRANCH  11  13
ENDBRANCH   4   7
ENDBRANCH   1   3
BRANCH   1  17
ATOM     17  N   UNL d   1      27.096 -14.040  -5.647  0.00  0.00    -0.273 N 
ATOM     18  H   UNL d   1      26.108 -13.905  -5.858  0.00  0.00     0.189 HD
BRANCH  17  19
ATOM     19  N   UNL d   1      27.360 -14.749  -4.399  0.00  0.00    -0.266 N 
ATOM     20  C   UNL d   1      26.325 -15.213  -3.595  0.00  0.00     0.260 C 
ATOM     21  O   UNL d   1      25.150 -15.032  -3.918  0.00  0.00    -0.269 OA
ATOM     22  H   UNL d   1      28.347 -14.878  -4.177  0.00  0.00     0.190 HD
BRANCH  20  23
ATOM     23  C   UNL d   1      26.756 -15.956  -2.284  0.00  0.00     0.280 C 
BRANCH  23  24
ATOM     24  O   UNL d   1      25.806 -15.698  -1.241  0.00  0.00    -0.342 OA
BRANCH  24  25
ATOM     25  C   UNL d   1      24.794 -16.600  -1.041  0.00  0.00     0.069 A 
ATOM     26  C   UNL d   1      23.494 -16.098  -1.190  0.00  0.00     0.038 A 
ATOM     27  C   UNL d   1      22.377 -16.886  -0.888  0.00  0.00     0.022 A 
ATOM     28  C   UNL d   1      22.557 -18.205  -0.487  0.00  0.00     0.011 A 
ATOM     29 BR   UNL d   1      21.052 -19.324  -0.243  0.00  0.00    -0.051 Br
ATOM     30  C   UNL d   1      23.845 -18.711  -0.307  0.00  0.00     0.022 A 
ATOM     31  C   UNL d   1      24.965 -17.902  -0.571  0.00  0.00     0.038 A 
ENDBRANCH  24  25
ENDBRANCH  23  24
ENDBRANCH  20  23
ENDBRANCH  17  19
ENDBRANCH   1  17
TORSDOF 9
ENDMDL
MODEL 6
REMARK VINA RESULT:    -7.513      1.740      2.157
REMARK INTER + INTRA:         -12.424
REMARK INTER:                 -10.197
REMARK INTRA:                  -2.227
REMARK CONF_INDEPENDENT:        2.685
REMARK UNBOUND:                -2.227
REMARK  9 active torsions:
REMARK  status: ('A' for Active; 'I' for Inactive)
REMARK    1  A    between atoms: O_2  and  C_3 
REMARK    2  A    between atoms: C_3  and  C_5 
REMARK    3  A    between atoms: C_9  and  C_10 
REMARK       I    between atoms: C_10  and  N_12 
REMARK    4  A    between atoms: N_12  and  C_13 
REMARK    5  A    between atoms: C_13  and  N_15 
REMARK    6  A    between atoms: N_15  and  N_16 
REMARK       I    between atoms: N_16  and  C_17 
REMARK    7  A    between atoms: C_17  and  C_19 
REMARK    8  A    between atoms: C_19  and  O_20 
REMARK    9  A    between atoms: O_20  and  C_21 
ROOT
ATOM      1  C   UNL d   1      27.759 -13.511   2.522  0.00  0.00     0.193 C 
ATOM      2  S   UNL d   1      26.917 -12.509   1.456  0.00  0.00    -0.039 SA
ENDROOT
BRANCH   1   3
ATOM      3  N   UNL d   1      28.161 -13.157   3.832  0.00  0.00    -0.298 N 
ATOM      4  C   UNL d   1      28.527 -14.051   4.871  0.00  0.00     0.257 C 
ATOM      5  O   UNL d   1      28.544 -15.274   4.744  0.00  0.00    -0.267 OA
ATOM      6  H   UNL d   1      28.196 -12.173   4.039  0.00  0.00     0.171 HD
BRANCH   4   7
ATOM      7  C   UNL d   1      28.949 -13.554   6.228  0.00  0.00     0.033 A 
ATOM      8  C   UNL d   1      28.181 -12.510   6.805  0.00  0.00     0.017 A 
ATOM      9  C   UNL d   1      28.441 -12.029   8.093  0.00  0.00     0.002 A 
ATOM     10  C   UNL d   1      29.512 -12.551   8.813  0.00  0.00     0.017 A 
ATOM     11  C   UNL d   1      30.277 -13.593   8.265  0.00  0.00     0.040 A 
ATOM     12  C   UNL d   1      30.005 -14.085   6.973  0.00  0.00     0.034 A 
BRANCH  11  13
ATOM     13  C   UNL d   1      31.266 -14.273   9.136  0.00  0.00     0.292 C 
ATOM     14  O   UNL d   1      32.392 -13.826   9.328  0.00  0.00    -0.259 OA
BRANCH  13  15
ATOM     15  O   UNL d   1      30.751 -15.403   9.675  0.00  0.00    -0.323 OA
ATOM     16  C   UNL d   1      29.455 -15.226  10.265  0.00  0.00     0.213 C 
ENDBRANCH  13  15
ENDBRANCH  11  13
ENDBRANCH   4   7
ENDBRANCH   1   3
BRANCH   1  17
ATOM     17  N   UNL d   1      28.111 -14.811   2.112  0.00  0.00    -0.273 N 
ATOM     18  H   UNL d   1      28.869 -15.379   2.489  0.00  0.00     0.189 HD
BRANCH  17  19
ATOM     19  N   UNL d   1      27.349 -15.445   1.042  0.00  0.00    -0.266 N 
ATOM     20  C   UNL d   1      27.932 -16.373   0.186  0.00  0.00     0.260 C 
ATOM     21  O   UNL d   1      29.117 -16.682   0.311  0.00  0.00    -0.269 OA
ATOM     22  H   UNL d   1      26.371 -15.160   0.982  0.00  0.00     0.190 HD
BRANCH  20  23
ATOM     23  C   UNL d   1      26.993 -16.972  -0.917  0.00  0.00     0.280 C 
BRANCH  23  24
ATOM     24  O   UNL d   1      25.719 -16.316  -0.883  0.00  0.00    -0.342 OA
BRANCH  24  25
ATOM     25  C   UNL d   1      24.588 -17.087  -0.820  0.00  0.00     0.069 A 
ATOM     26  C   UNL d   1      23.375 -16.395  -0.932  0.00  0.00     0.038 A 
ATOM     27  C   UNL d   1      22.150 -17.052  -0.756  0.00  0.00     0.022 A 
ATOM     28  C   UNL d   1      22.136 -18.422  -0.522  0.00  0.00     0.011 A 
ATOM     29 BR   UNL d   1      20.485 -19.344  -0.454  0.00  0.00    -0.051 Br
ATOM     30  C   UNL d   1      23.336 -19.120  -0.380  0.00  0.00     0.022 A 
ATOM     31  C   UNL d   1      24.564 -18.448  -0.515  0.00  0.00     0.038 A 
ENDBRANCH  24  25
ENDBRANCH  23  24
ENDBRANCH  20  23
ENDBRANCH  17  19
ENDBRANCH   1  17
TORSDOF 9
ENDMDL
MODEL 7
REMARK VINA RESULT:    -7.412      7.326      9.228
REMARK INTER + INTRA:         -12.319
REMARK INTER:                 -10.097
REMARK INTRA:                  -2.223
REMARK CONF_INDEPENDENT:        2.685
REMARK UNBOUND:                -2.223
REMARK  9 active torsions:
REMARK  status: ('A' for Active; 'I' for Inactive)
REMARK    1  A    between atoms: O_2  and  C_3 
REMARK    2  A    between atoms: C_3  and  C_5 
REMARK    3  A    between atoms: C_9  and  C_10 
REMARK       I    between atoms: C_10  and  N_12 
REMARK    4  A    between atoms: N_12  and  C_13 
REMARK    5  A    between atoms: C_13  and  N_15 
REMARK    6  A    between atoms: N_15  and  N_16 
REMARK       I    between atoms: N_16  and  C_17 
REMARK    7  A    between atoms: C_17  and  C_19 
REMARK    8  A    between atoms: C_19  and  O_20 
REMARK    9  A    between atoms: O_20  and  C_21 
ROOT
ATOM      1  C   UNL d   1      27.996 -13.590  -0.974  0.00  0.00     0.193 C 
ATOM      2  S   UNL d   1      27.535 -12.032  -0.519  0.00  0.00    -0.039 SA
ENDROOT
BRANCH   1   3
ATOM      3  N   UNL d   1      27.242 -14.766  -0.747  0.00  0.00    -0.298 N 
ATOM      4  C   UNL d   1      25.942 -15.042  -1.243  0.00  0.00     0.257 C 
ATOM      5  O   UNL d   1      25.306 -14.268  -1.957  0.00  0.00    -0.267 OA
ATOM      6  H   UNL d   1      27.679 -15.476  -0.183  0.00  0.00     0.171 HD
BRANCH   4   7
ATOM      7  C   UNL d   1      25.240 -16.339  -0.940  0.00  0.00     0.033 A 
ATOM      8  C   UNL d   1      26.000 -17.356  -0.305  0.00  0.00     0.017 A 
ATOM      9  C   UNL d   1      25.424 -18.568   0.089  0.00  0.00     0.002 A 
ATOM     10  C   UNL d   1      24.082 -18.809  -0.191  0.00  0.00     0.017 A 
ATOM     11  C   UNL d   1      23.309 -17.812  -0.807  0.00  0.00     0.040 A 
ATOM     12  C   UNL d   1      23.888 -16.586  -1.191  0.00  0.00     0.034 A 
BRANCH  11  13
ATOM     13  C   UNL d   1      21.843 -18.010  -0.895  0.00  0.00     0.292 C 
ATOM     14  O   UNL d   1      21.049 -17.075  -0.895  0.00  0.00    -0.259 OA
BRANCH  13  15
ATOM     15  O   UNL d   1      21.529 -19.325  -0.987  0.00  0.00    -0.323 OA
ATOM     16  C   UNL d   1      20.150 -19.612  -0.716  0.00  0.00     0.213 C 
ENDBRANCH  13  15
ENDBRANCH  11  13
ENDBRANCH   4   7
ENDBRANCH   1   3
BRANCH   1  17
ATOM     17  N   UNL d   1      29.225 -13.779  -1.633  0.00  0.00    -0.273 N 
ATOM     18  H   UNL d   1      30.153 -13.626  -1.239  0.00  0.00     0.189 HD
BRANCH  17  19
ATOM     19  N   UNL d   1      29.221 -14.231  -3.020  0.00  0.00    -0.266 N 
ATOM     20  C   UNL d   1      28.801 -15.511  -3.365  0.00  0.00     0.260 C 
ATOM     21  O   UNL d   1      28.422 -16.301  -2.500  0.00  0.00    -0.269 OA
ATOM     22  H   UNL d   1      29.538 -13.540  -3.700  0.00  0.00     0.190 HD
BRANCH  20  23
ATOM     23  C   UNL d   1      28.850 -15.859  -4.893  0.00  0.00     0.280 C 
BRANCH  23  24
ATOM     24  O   UNL d   1      27.583 -15.574  -5.500  0.00  0.00    -0.342 OA
BRANCH  24  25
ATOM     25  C   UNL d   1      27.061 -14.315  -5.363  0.00  0.00     0.069 A 
ATOM     26  C   UNL d   1      27.833 -13.276  -5.897  0.00  0.00     0.038 A 
ATOM     27  C   UNL d   1      27.471 -11.936  -5.709  0.00  0.00     0.022 A 
ATOM     28  C   UNL d   1      26.296 -11.634  -5.029  0.00  0.00     0.011 A 
ATOM     29 BR   UNL d   1      25.712  -9.838  -4.921  0.00  0.00    -0.051 Br
ATOM     30  C   UNL d   1      25.531 -12.656  -4.468  0.00  0.00     0.022 A 
ATOM     31  C   UNL d   1      25.921 -13.998  -4.623  0.00  0.00     0.038 A 
ENDBRANCH  24  25
ENDBRANCH  23  24
ENDBRANCH  20  23
ENDBRANCH  17  19
ENDBRANCH   1  17
TORSDOF 9
ENDMDL
MODEL 8
REMARK VINA RESULT:    -7.155      5.342      9.388
REMARK INTER + INTRA:         -12.428
REMARK INTER:                  -9.840
REMARK INTRA:                  -2.589
REMARK CONF_INDEPENDENT:        2.685
REMARK UNBOUND:                -2.589
REMARK  9 active torsions:
REMARK  status: ('A' for Active; 'I' for Inactive)
REMARK    1  A    between atoms: O_2  and  C_3 
REMARK    2  A    between atoms: C_3  and  C_5 
REMARK    3  A    between atoms: C_9  and  C_10 
REMARK       I    between atoms: C_10  and  N_12 
REMARK    4  A    between atoms: N_12  and  C_13 
REMARK    5  A    between atoms: C_13  and  N_15 
REMARK    6  A    between atoms: N_15  and  N_16 
REMARK       I    between atoms: N_16  and  C_17 
REMARK    7  A    between atoms: C_17  and  C_19 
REMARK    8  A    between atoms: C_19  and  O_20 
REMARK    9  A    between atoms: O_20  and  C_21 
ROOT
ATOM      1  C   UNL d   1      27.877 -15.080  -3.812  0.00  0.00     0.193 C 
ATOM      2  S   UNL d   1      27.173 -14.199  -5.066  0.00  0.00    -0.039 SA
ENDROOT
BRANCH   1   3
ATOM      3  N   UNL d   1      27.179 -15.909  -2.901  0.00  0.00    -0.298 N 
ATOM      4  C   UNL d   1      25.792 -15.856  -2.608  0.00  0.00     0.257 C 
ATOM      5  O   UNL d   1      25.013 -15.064  -3.136  0.00  0.00    -0.267 OA
ATOM      6  H   UNL d   1      27.724 -16.606  -2.422  0.00  0.00     0.171 HD
BRANCH   4   7
ATOM      7  C   UNL d   1      25.157 -16.800  -1.622  0.00  0.00     0.033 A 
ATOM      8  C   UNL d   1      25.974 -17.286  -0.568  0.00  0.00     0.017 A 
ATOM      9  C   UNL d   1      25.462 -18.106   0.443  0.00  0.00     0.002 A 
ATOM     10  C   UNL d   1      24.128 -18.499   0.392  0.00  0.00     0.017 A 
ATOM     11  C   UNL d   1      23.299 -18.020  -0.634  0.00  0.00     0.040 A 
ATOM     12  C   UNL d   1      23.813 -17.183  -1.645  0.00  0.00     0.034 A 
BRANCH  11  13
ATOM     13  C   UNL d   1      21.842 -18.277  -0.540  0.00  0.00     0.292 C 
ATOM     14  O   UNL d   1      21.003 -17.464  -0.915  0.00  0.00    -0.259 OA
BRANCH  13  15
ATOM     15  O   UNL d   1      21.592 -19.501  -0.017  0.00  0.00    -0.323 OA
ATOM     16  C   UNL d   1      20.194 -19.805   0.101  0.00  0.00     0.213 C 
ENDBRANCH  13  15
ENDBRANCH  11  13
ENDBRANCH   4   7
ENDBRANCH   1   3
BRANCH   1  17
ATOM     17  N   UNL d   1      29.270 -15.010  -3.619  0.00  0.00    -0.273 N 
ATOM     18  H   UNL d   1      29.977 -14.901  -4.345  0.00  0.00     0.189 HD
BRANCH  17  19
ATOM     19  N   UNL d   1      29.800 -15.106  -2.263  0.00  0.00    -0.266 N 
ATOM     20  C   UNL d   1      29.981 -16.336  -1.639  0.00  0.00     0.260 C 
ATOM     21  O   UNL d   1      29.692 -17.382  -2.220  0.00  0.00    -0.269 OA
ATOM     22  H   UNL d   1      30.029 -14.213  -1.826  0.00  0.00     0.190 HD
BRANCH  20  23
ATOM     23  C   UNL d   1      30.559 -16.287  -0.183  0.00  0.00     0.280 C 
BRANCH  23  24
ATOM     24  O   UNL d   1      30.604 -14.930   0.279  0.00  0.00    -0.342 OA
BRANCH  24  25
ATOM     25  C   UNL d   1      29.889 -14.596   1.399  0.00  0.00     0.069 A 
ATOM     26  C   UNL d   1      30.638 -14.431   2.571  0.00  0.00     0.038 A 
ATOM     27  C   UNL d   1      30.010 -14.215   3.804  0.00  0.00     0.022 A 
ATOM     28  C   UNL d   1      28.625 -14.108   3.858  0.00  0.00     0.011 A 
ATOM     29 BR   UNL d   1      27.784 -13.646   5.488  0.00  0.00    -0.051 Br
ATOM     30  C   UNL d   1      27.864 -14.297   2.704  0.00  0.00     0.022 A 
ATOM     31  C   UNL d   1      28.496 -14.556   1.475  0.00  0.00     0.038 A 
ENDBRANCH  24  25
ENDBRANCH  23  24
ENDBRANCH  20  23
ENDBRANCH  17  19
ENDBRANCH   1  17
TORSDOF 9
ENDMDL
MODEL 9
REMARK VINA RESULT:    -7.072      5.171      8.625
REMARK INTER + INTRA:         -12.627
REMARK INTER:                  -9.757
REMARK INTRA:                  -2.870
REMARK CONF_INDEPENDENT:        2.685
REMARK UNBOUND:                -2.870
REMARK  9 active torsions:
REMARK  status: ('A' for Active; 'I' for Inactive)
REMARK    1  A    between atoms: O_2  and  C_3 
REMARK    2  A    between atoms: C_3  and  C_5 
REMARK    3  A    between atoms: C_9  and  C_10 
REMARK       I    between atoms: C_10  and  N_12 
REMARK    4  A    between atoms: N_12  and  C_13 
REMARK    5  A    between atoms: C_13  and  N_15 
REMARK    6  A    between atoms: N_15  and  N_16 
REMARK       I    between atoms: N_16  and  C_17 
REMARK    7  A    between atoms: C_17  and  C_19 
REMARK    8  A    between atoms: C_19  and  O_20 
REMARK    9  A    between atoms: O_20  and  C_21 
ROOT
ATOM      1  C   UNL d   1      27.781 -13.118   1.767  0.00  0.00     0.193 C 
ATOM      2  S   UNL d   1      27.590 -11.916   2.936  0.00  0.00    -0.039 SA
ENDROOT
BRANCH   1   3
ATOM      3  N   UNL d   1      27.573 -12.947   0.377  0.00  0.00    -0.298 N 
ATOM      4  C   UNL d   1      26.655 -13.665  -0.432  0.00  0.00     0.257 C 
ATOM      5  O   UNL d   1      25.906 -14.540  -0.000  0.00  0.00    -0.267 OA
ATOM      6  H   UNL d   1      28.129 -12.241  -0.076  0.00  0.00     0.171 HD
BRANCH   4   7
ATOM      7  C   UNL d   1      26.516 -13.388  -1.905  0.00  0.00     0.033 A 
ATOM      8  C   UNL d   1      26.590 -12.033  -2.321  0.00  0.00     0.017 A 
ATOM      9  C   UNL d   1      26.549 -11.674  -3.673  0.00  0.00     0.002 A 
ATOM     10  C   UNL d   1      26.383 -12.664  -4.637  0.00  0.00     0.017 A 
ATOM     11  C   UNL d   1      26.321 -14.012  -4.248  0.00  0.00     0.040 A 
ATOM     12  C   UNL d   1      26.375 -14.373  -2.887  0.00  0.00     0.034 A 
BRANCH  11  13
ATOM     13  C   UNL d   1      26.363 -15.052  -5.303  0.00  0.00     0.292 C 
ATOM     14  O   UNL d   1      25.530 -15.950  -5.377  0.00  0.00    -0.259 OA
BRANCH  13  15
ATOM     15  O   UNL d   1      27.405 -14.857  -6.145  0.00  0.00    -0.323 OA
ATOM     16  C   UNL d   1      28.679 -15.200  -5.579  0.00  0.00     0.213 C 
ENDBRANCH  13  15
ENDBRANCH  11  13
ENDBRANCH   4   7
ENDBRANCH   1   3
BRANCH   1  17
ATOM     17  N   UNL d   1      28.174 -14.409   2.164  0.00  0.00    -0.273 N 
ATOM     18  H   UNL d   1      28.582 -14.668   3.062  0.00  0.00     0.189 HD
BRANCH  17  19
ATOM     19  N   UNL d   1      28.006 -15.517   1.230  0.00  0.00    -0.266 N 
ATOM     20  C   UNL d   1      29.057 -15.964   0.437  0.00  0.00     0.260 C 
ATOM     21  O   UNL d   1      30.164 -15.428   0.502  0.00  0.00    -0.269 OA
ATOM     22  H   UNL d   1      27.074 -15.931   1.216  0.00  0.00     0.190 HD
BRANCH  20  23
ATOM     23  C   UNL d   1      28.732 -17.162  -0.520  0.00  0.00     0.280 C 
BRANCH  23  24
ATOM     24  O   UNL d   1      27.618 -16.828  -1.359  0.00  0.00    -0.342 OA
BRANCH  24  25
ATOM     25  C   UNL d   1      26.378 -17.300  -1.018  0.00  0.00     0.069 A 
ATOM     26  C   UNL d   1      25.363 -17.075  -1.957  0.00  0.00     0.038 A 
ATOM     27  C   UNL d   1      24.030 -17.394  -1.671  0.00  0.00     0.022 A 
ATOM     28  C   UNL d   1      23.716 -17.995  -0.457  0.00  0.00     0.011 A 
ATOM     29 BR   UNL d   1      21.947 -18.585  -0.134  0.00  0.00    -0.051 Br
ATOM     30  C   UNL d   1      24.710 -18.200   0.499  0.00  0.00     0.022 A 
ATOM     31  C   UNL d   1      26.041 -17.839   0.224  0.00  0.00     0.038 A 
ENDBRANCH  24  25
ENDBRANCH  23  24
ENDBRANCH  20  23
ENDBRANCH  17  19
ENDBRANCH   1  17
TORSDOF 9
ENDMDL
