MODEL 1
REMARK VINA RESULT:    -8.292      0.000      0.000
REMARK INTER + INTRA:         -10.098
REMARK INTER:                  -9.485
REMARK INTRA:                  -0.613
REMARK CONF_INDEPENDENT:        1.193
REMARK UNBOUND:                -0.613
REMARK  4 active torsions:
REMARK  status: ('A' for Active; 'I' for Inactive)
REMARK    1  A    between atoms: C_4  and  C_5 
REMARK    2  A    between atoms: C_5  and  C_6 
REMARK       I    between atoms: C_6  and  N_8 
REMARK    3  A    between atoms: N_8  and  N_9 
REMARK    4  A    between atoms: N_9  and  C_10 
ROOT
ATOM      1  C   UNL d   1      23.391 -18.437  -0.472  0.00  0.00     0.240 C 
ATOM      2  O   UNL d   1      23.310 -19.284  -1.372  0.00  0.00    -0.272 OA
ATOM      3  N   UNL d   1      22.288 -17.616  -0.249  0.00  0.00    -0.269 N 
ATOM      4  H   UNL d   1      22.154 -17.122   0.627  0.00  0.00     0.190 HD
ENDROOT
BRANCH   1   5
ATOM      5  C   UNL d   1      24.632 -18.205   0.426  0.00  0.00     0.145 C 
BRANCH   5   6
ATOM      6  C   UNL d   1      25.816 -17.540  -0.267  0.00  0.00    -0.021 A 
ATOM      7  C   UNL d   1      27.154 -17.795  -0.028  0.00  0.00     0.099 A 
ATOM      8  N   UNL d   1      27.931 -17.037  -0.847  0.00  0.00    -0.360 N 
ATOM      9  C   UNL d   1      29.372 -17.117  -0.876  0.00  0.00     0.155 C 
ATOM     10  C   UNL d   1      27.143 -16.239  -1.633  0.00  0.00     0.044 A 
ATOM     11  C   UNL d   1      27.507 -15.295  -2.605  0.00  0.00     0.030 A 
ATOM     12  C   UNL d   1      25.808 -16.532  -1.307  0.00  0.00    -0.001 A 
ATOM     13  C   UNL d   1      26.491 -14.631  -3.286  0.00  0.00     0.002 A 
ATOM     14  C   UNL d   1      25.155 -14.898  -3.000  0.00  0.00     0.001 A 
ATOM     15  C   UNL d   1      24.800 -15.836  -2.015  0.00  0.00     0.014 A 
ENDBRANCH   5   6
ENDBRANCH   1   5
BRANCH   3  16
ATOM     16  N   UNL d   1      21.118 -18.069  -0.887  0.00  0.00    -0.298 N 
ATOM     17  H   UNL d   1      20.736 -17.454  -1.615  0.00  0.00     0.187 HD
BRANCH  16  18
ATOM     18  C   UNL d   1      20.303 -19.037  -0.300  0.00  0.00     0.048 A 
ATOM     19  C   UNL d   1      19.155 -19.551  -0.911  0.00  0.00     0.034 A 
ATOM     20  C   UNL d   1      18.322 -20.445  -0.230  0.00  0.00     0.044 A 
ATOM     21  C   UNL d   1      18.627 -20.818   1.073  0.00  0.00     0.116 A 
ATOM     22  F   UNL d   1      17.816 -21.659   1.728  0.00  0.00    -0.206 F 
ATOM     23  C   UNL d   1      19.761 -20.327   1.703  0.00  0.00     0.044 A 
ATOM     24  C   UNL d   1      20.599 -19.448   1.013  0.00  0.00     0.034 A 
ENDBRANCH  16  18
ENDBRANCH   3  16
TORSDOF 4
ENDMDL
MODEL 2
REMARK VINA RESULT:    -7.640      1.134      1.517
REMARK INTER + INTRA:          -9.930
REMARK INTER:                  -8.833
REMARK INTRA:                  -1.097
REMARK CONF_INDEPENDENT:        1.193
REMARK UNBOUND:                -1.097
REMARK  4 active torsions:
REMARK  status: ('A' for Active; 'I' for Inactive)
REMARK    1  A    between atoms: C_4  and  C_5 
REMARK    2  A    between atoms: C_5  and  C_6 
REMARK       I    between atoms: C_6  and  N_8 
REMARK    3  A    between atoms: N_8  and  N_9 
REMARK    4  A    between atoms: N_9  and  C_10 
ROOT
ATOM      1  C   UNL d   1      23.846 -17.768  -0.156  0.00  0.00     0.240 C 
ATOM      2  O   UNL d   1      23.364 -16.715  -0.598  0.00  0.00    -0.272 OA
ATOM      3  N   UNL d   1      22.971 -18.812   0.135  0.00  0.00    -0.269 N 
ATOM      4  H   UNL d   1      23.288 -19.774   0.208  0.00  0.00     0.190 HD
ENDROOT
BRANCH   1   5
ATOM      5  C   UNL d   1      25.352 -18.017   0.110  0.00  0.00     0.145 C 
BRANCH   5   6
ATOM      6  C   UNL d   1      26.285 -16.917  -0.380  0.00  0.00    -0.021 A 
ATOM      7  C   UNL d   1      27.423 -16.461   0.260  0.00  0.00     0.099 A 
ATOM      8  N   UNL d   1      28.022 -15.490  -0.479  0.00  0.00    -0.360 N 
ATOM      9  C   UNL d   1      29.263 -14.854  -0.103  0.00  0.00     0.155 C 
ATOM     10  C   UNL d   1      27.294 -15.249  -1.614  0.00  0.00     0.044 A 
ATOM     11  C   UNL d   1      27.523 -14.332  -2.651  0.00  0.00     0.030 A 
ATOM     12  C   UNL d   1      26.201 -16.131  -1.595  0.00  0.00    -0.001 A 
ATOM     13  C   UNL d   1      26.628 -14.311  -3.716  0.00  0.00     0.002 A 
ATOM     14  C   UNL d   1      25.536 -15.174  -3.741  0.00  0.00     0.001 A 
ATOM     15  C   UNL d   1      25.308 -16.081  -2.691  0.00  0.00     0.014 A 
ENDBRANCH   5   6
ENDBRANCH   1   5
BRANCH   3  16
ATOM     16  N   UNL d   1      21.682 -18.626  -0.397  0.00  0.00    -0.298 N 
ATOM     17  H   UNL d   1      21.562 -17.810  -1.008  0.00  0.00     0.187 HD
BRANCH  16  18
ATOM     18  C   UNL d   1      20.566 -19.224   0.187  0.00  0.00     0.048 A 
ATOM     19  C   UNL d   1      20.431 -19.421   1.565  0.00  0.00     0.034 A 
ATOM     20  C   UNL d   1      19.335 -20.119   2.084  0.00  0.00     0.044 A 
ATOM     21  C   UNL d   1      18.376 -20.637   1.224  0.00  0.00     0.116 A 
ATOM     22  F   UNL d   1      17.338 -21.321   1.723  0.00  0.00    -0.206 F 
ATOM     23  C   UNL d   1      18.482 -20.455  -0.147  0.00  0.00     0.044 A 
ATOM     24  C   UNL d   1      19.569 -19.742  -0.660  0.00  0.00     0.034 A 
ENDBRANCH  16  18
ENDBRANCH   3  16
TORSDOF 4
ENDMDL
MODEL 3
REMARK VINA RESULT:    -7.575      1.172      2.572
REMARK INTER + INTRA:          -9.802
REMARK INTER:                  -8.769
REMARK INTRA:                  -1.034
REMARK CONF_INDEPENDENT:        1.193
REMARK UNBOUND:                -1.034
REMARK  4 active torsions:
REMARK  status: ('A' for Active; 'I' for Inactive)
REMARK    1  A    between atoms: C_4  and  C_5 
REMARK    2  A    between atoms: C_5  and  C_6 
REMARK       I    between atoms: C_6  and  N_8 
REMARK    3  A    between atoms: N_8  and  N_9 
REMARK    4  A    between atoms: N_9  and  C_10 
ROOT
ATOM      1  C   UNL d   1      23.163 -17.625  -0.188  0.00  0.00     0.240 C 
ATOM      2  O   UNL d   1      22.545 -16.665  -0.668  0.00  0.00    -0.272 OA
ATOM      3  N   UNL d   1      22.438 -18.771   0.133  0.00  0.00    -0.269 N 
ATOM      4  H   UNL d   1      22.884 -19.677   0.241  0.00  0.00     0.190 HD
ENDROOT
BRANCH   1   5
ATOM      5  C   UNL d   1      24.685 -17.653   0.099  0.00  0.00     0.145 C 
BRANCH   5   6
ATOM      6  C   UNL d   1      25.554 -16.980  -0.956  0.00  0.00    -0.021 A 
ATOM      7  C   UNL d   1      25.109 -16.362  -2.111  0.00  0.00     0.099 A 
ATOM      8  N   UNL d   1      26.160 -15.848  -2.804  0.00  0.00    -0.360 N 
ATOM      9  C   UNL d   1      26.015 -15.095  -4.028  0.00  0.00     0.155 C 
ATOM     10  C   UNL d   1      27.333 -16.128  -2.153  0.00  0.00     0.044 A 
ATOM     11  C   UNL d   1      28.653 -15.809  -2.503  0.00  0.00     0.030 A 
ATOM     12  C   UNL d   1      26.994 -16.828  -0.983  0.00  0.00    -0.001 A 
ATOM     13  C   UNL d   1      29.672 -16.195  -1.637  0.00  0.00     0.002 A 
ATOM     14  C   UNL d   1      29.380 -16.883  -0.463  0.00  0.00     0.001 A 
ATOM     15  C   UNL d   1      28.054 -17.209  -0.127  0.00  0.00     0.014 A 
ENDBRANCH   5   6
ENDBRANCH   1   5
BRANCH   3  16
ATOM     16  N   UNL d   1      21.142 -18.783  -0.416  0.00  0.00    -0.298 N 
ATOM     17  H   UNL d   1      20.925 -18.025  -1.073  0.00  0.00     0.187 HD
BRANCH  16  18
ATOM     18  C   UNL d   1      20.106 -19.489   0.195  0.00  0.00     0.048 A 
ATOM     19  C   UNL d   1      20.080 -19.789   1.561  0.00  0.00     0.034 A 
ATOM     20  C   UNL d   1      19.064 -20.588   2.098  0.00  0.00     0.044 A 
ATOM     21  C   UNL d   1      18.078 -21.104   1.267  0.00  0.00     0.116 A 
ATOM     22  F   UNL d   1      17.119 -21.884   1.782  0.00  0.00    -0.206 F 
ATOM     23  C   UNL d   1      18.078 -20.821  -0.091  0.00  0.00     0.044 A 
ATOM     24  C   UNL d   1      19.083 -20.008  -0.620  0.00  0.00     0.034 A 
ENDBRANCH  16  18
ENDBRANCH   3  16
TORSDOF 4
ENDMDL
MODEL 4
REMARK VINA RESULT:    -6.870      5.242      9.203
REMARK INTER + INTRA:          -9.159
REMARK INTER:                  -8.063
REMARK INTRA:                  -1.096
REMARK CONF_INDEPENDENT:        1.193
REMARK UNBOUND:                -1.096
REMARK  4 active torsions:
REMARK  status: ('A' for Active; 'I' for Inactive)
REMARK    1  A    between atoms: C_4  and  C_5 
REMARK    2  A    between atoms: C_5  and  C_6 
REMARK       I    between atoms: C_6  and  N_8 
REMARK    3  A    between atoms: N_8  and  N_9 
REMARK    4  A    between atoms: N_9  and  C_10 
ROOT
ATOM      1  C   UNL d   1      26.023 -14.782  -3.790  0.00  0.00     0.240 C 
ATOM      2  O   UNL d   1      25.116 -14.789  -4.633  0.00  0.00    -0.272 OA
ATOM      3  N   UNL d   1      27.327 -14.992  -4.235  0.00  0.00    -0.269 N 
ATOM      4  H   UNL d   1      28.134 -14.712  -3.686  0.00  0.00     0.190 HD
ENDROOT
BRANCH   1   5
ATOM      5  C   UNL d   1      25.826 -14.567  -2.268  0.00  0.00     0.145 C 
BRANCH   5   6
ATOM      6  C   UNL d   1      25.683 -15.844  -1.449  0.00  0.00    -0.021 A 
ATOM      7  C   UNL d   1      26.714 -16.586  -0.902  0.00  0.00     0.099 A 
ATOM      8  N   UNL d   1      26.215 -17.647  -0.214  0.00  0.00    -0.360 N 
ATOM      9  C   UNL d   1      27.039 -18.581   0.518  0.00  0.00     0.155 C 
ATOM     10  C   UNL d   1      24.848 -17.663  -0.302  0.00  0.00     0.044 A 
ATOM     11  C   UNL d   1      23.923 -18.571   0.235  0.00  0.00     0.030 A 
ATOM     12  C   UNL d   1      24.474 -16.541  -1.061  0.00  0.00    -0.001 A 
ATOM     13  C   UNL d   1      22.570 -18.334   0.014  0.00  0.00     0.002 A 
ATOM     14  C   UNL d   1      22.155 -17.230  -0.725  0.00  0.00     0.001 A 
ATOM     15  C   UNL d   1      23.091 -16.333  -1.270  0.00  0.00     0.014 A 
ENDBRANCH   5   6
ENDBRANCH   1   5
BRANCH   3  16
ATOM     16  N   UNL d   1      27.463 -14.887  -5.632  0.00  0.00    -0.298 N 
ATOM     17  H   UNL d   1      26.626 -15.108  -6.183  0.00  0.00     0.187 HD
BRANCH  16  18
ATOM     18  C   UNL d   1      28.719 -14.911  -6.238  0.00  0.00     0.048 A 
ATOM     19  C   UNL d   1      29.640 -15.948  -6.059  0.00  0.00     0.034 A 
ATOM     20  C   UNL d   1      30.923 -15.868  -6.611  0.00  0.00     0.044 A 
ATOM     21  C   UNL d   1      31.296 -14.742  -7.333  0.00  0.00     0.116 A 
ATOM     22  F   UNL d   1      32.531 -14.661  -7.844  0.00  0.00    -0.206 F 
ATOM     23  C   UNL d   1      30.402 -13.700  -7.530  0.00  0.00     0.044 A 
ATOM     24  C   UNL d   1      29.116 -13.791  -6.992  0.00  0.00     0.034 A 
ENDBRANCH  16  18
ENDBRANCH   3  16
TORSDOF 4
ENDMDL
MODEL 5
REMARK VINA RESULT:    -6.704      6.141      8.749
REMARK INTER + INTRA:          -8.991
REMARK INTER:                  -7.897
REMARK INTRA:                  -1.093
REMARK CONF_INDEPENDENT:        1.193
REMARK UNBOUND:                -1.093
REMARK  4 active torsions:
REMARK  status: ('A' for Active; 'I' for Inactive)
REMARK    1  A    between atoms: C_4  and  C_5 
REMARK    2  A    between atoms: C_5  and  C_6 
REMARK       I    between atoms: C_6  and  N_8 
REMARK    3  A    between atoms: N_8  and  N_9 
REMARK    4  A    between atoms: N_9  and  C_10 
ROOT
ATOM      1  C   UNL d   1      27.626 -14.627   1.850  0.00  0.00     0.240 C 
ATOM      2  O   UNL d   1      26.911 -13.636   1.646  0.00  0.00    -0.272 OA
ATOM      3  N   UNL d   1      28.116 -14.821   3.139  0.00  0.00    -0.269 N 
ATOM      4  H   UNL d   1      28.444 -15.727   3.459  0.00  0.00     0.190 HD
ENDROOT
BRANCH   1   5
ATOM      5  C   UNL d   1      28.033 -15.669   0.778  0.00  0.00     0.145 C 
BRANCH   5   6
ATOM      6  C   UNL d   1      27.000 -15.908  -0.316  0.00  0.00    -0.021 A 
ATOM      7  C   UNL d   1      26.935 -15.261  -1.537  0.00  0.00     0.099 A 
ATOM      8  N   UNL d   1      25.899 -15.745  -2.271  0.00  0.00    -0.360 N 
ATOM      9  C   UNL d   1      25.603 -15.310  -3.616  0.00  0.00     0.155 C 
ATOM     10  C   UNL d   1      25.228 -16.705  -1.560  0.00  0.00     0.044 A 
ATOM     11  C   UNL d   1      24.098 -17.459  -1.911  0.00  0.00     0.030 A 
ATOM     12  C   UNL d   1      25.894 -16.843  -0.330  0.00  0.00    -0.001 A 
ATOM     13  C   UNL d   1      23.629 -18.399  -0.999  0.00  0.00     0.002 A 
ATOM     14  C   UNL d   1      24.265 -18.575   0.227  0.00  0.00     0.001 A 
ATOM     15  C   UNL d   1      25.388 -17.805   0.575  0.00  0.00     0.014 A 
ENDBRANCH   5   6
ENDBRANCH   1   5
BRANCH   3  16
ATOM     16  N   UNL d   1      27.480 -14.019   4.105  0.00  0.00    -0.298 N 
ATOM     17  H   UNL d   1      26.671 -13.479   3.778  0.00  0.00     0.187 HD
BRANCH  16  18
ATOM     18  C   UNL d   1      28.135 -13.644   5.278  0.00  0.00     0.048 A 
ATOM     19  C   UNL d   1      29.057 -14.463   5.939  0.00  0.00     0.034 A 
ATOM     20  C   UNL d   1      29.606 -14.075   7.167  0.00  0.00     0.044 A 
ATOM     21  C   UNL d   1      29.222 -12.872   7.745  0.00  0.00     0.116 A 
ATOM     22  F   UNL d   1      29.735 -12.513   8.930  0.00  0.00    -0.206 F 
ATOM     23  C   UNL d   1      28.313 -12.039   7.111  0.00  0.00     0.044 A 
ATOM     24  C   UNL d   1      27.781 -12.422   5.877  0.00  0.00     0.034 A 
ENDBRANCH  16  18
ENDBRANCH   3  16
TORSDOF 4
ENDMDL
MODEL 6
REMARK VINA RESULT:    -6.346      4.609      8.582
REMARK INTER + INTRA:          -8.942
REMARK INTER:                  -7.539
REMARK INTRA:                  -1.403
REMARK CONF_INDEPENDENT:        1.193
REMARK UNBOUND:                -1.403
REMARK  4 active torsions:
REMARK  status: ('A' for Active; 'I' for Inactive)
REMARK    1  A    between atoms: C_4  and  C_5 
REMARK    2  A    between atoms: C_5  and  C_6 
REMARK       I    between atoms: C_6  and  N_8 
REMARK    3  A    between atoms: N_8  and  N_9 
REMARK    4  A    between atoms: N_9  and  C_10 
ROOT
ATOM      1  C   UNL d   1      25.584 -14.723  -3.889  0.00  0.00     0.240 C 
ATOM      2  O   UNL d   1      25.080 -14.765  -5.020  0.00  0.00    -0.272 OA
ATOM      3  N   UNL d   1      26.967 -14.854  -3.787  0.00  0.00    -0.269 N 
ATOM      4  H   UNL d   1      27.479 -14.540  -2.969  0.00  0.00     0.190 HD
ENDROOT
BRANCH   1   5
ATOM      5  C   UNL d   1      24.796 -14.546  -2.567  0.00  0.00     0.145 C 
BRANCH   5   6
ATOM      6  C   UNL d   1      24.725 -15.787  -1.686  0.00  0.00    -0.021 A 
ATOM      7  C   UNL d   1      23.574 -16.424  -1.259  0.00  0.00     0.099 A 
ATOM      8  N   UNL d   1      23.890 -17.514  -0.510  0.00  0.00    -0.360 N 
ATOM      9  C   UNL d   1      22.905 -18.419   0.035  0.00  0.00     0.155 C 
ATOM     10  C   UNL d   1      25.251 -17.623  -0.391  0.00  0.00     0.044 A 
ATOM     11  C   UNL d   1      26.020 -18.574   0.296  0.00  0.00     0.030 A 
ATOM     12  C   UNL d   1      25.812 -16.563  -1.124  0.00  0.00    -0.001 A 
ATOM     13  C   UNL d   1      27.406 -18.466   0.231  0.00  0.00     0.002 A 
ATOM     14  C   UNL d   1      28.003 -17.437  -0.492  0.00  0.00     0.001 A 
ATOM     15  C   UNL d   1      27.223 -16.480  -1.166  0.00  0.00     0.014 A 
ENDBRANCH   5   6
ENDBRANCH   1   5
BRANCH   3  16
ATOM     16  N   UNL d   1      27.633 -14.717  -5.020  0.00  0.00    -0.298 N 
ATOM     17  H   UNL d   1      27.068 -14.355  -5.797  0.00  0.00     0.187 HD
BRANCH  16  18
ATOM     18  C   UNL d   1      28.812 -15.413  -5.285  0.00  0.00     0.048 A 
ATOM     19  C   UNL d   1      29.504 -15.321  -6.497  0.00  0.00     0.034 A 
ATOM     20  C   UNL d   1      30.626 -16.121  -6.742  0.00  0.00     0.044 A 
ATOM     21  C   UNL d   1      31.052 -17.027  -5.780  0.00  0.00     0.116 A 
ATOM     22  F   UNL d   1      32.115 -17.804  -6.026  0.00  0.00    -0.206 F 
ATOM     23  C   UNL d   1      30.387 -17.137  -4.568  0.00  0.00     0.044 A 
ATOM     24  C   UNL d   1      29.278 -16.325  -4.320  0.00  0.00     0.034 A 
ENDBRANCH  16  18
ENDBRANCH   3  16
TORSDOF 4
ENDMDL
MODEL 7
REMARK VINA RESULT:    -6.272      2.876      4.306
REMARK INTER + INTRA:          -8.880
REMARK INTER:                  -7.465
REMARK INTRA:                  -1.415
REMARK CONF_INDEPENDENT:        1.193
REMARK UNBOUND:                -1.415
REMARK  4 active torsions:
REMARK  status: ('A' for Active; 'I' for Inactive)
REMARK    1  A    between atoms: C_4  and  C_5 
REMARK    2  A    between atoms: C_5  and  C_6 
REMARK       I    between atoms: C_6  and  N_8 
REMARK    3  A    between atoms: N_8  and  N_9 
REMARK    4  A    between atoms: N_9  and  C_10 
ROOT
ATOM      1  C   UNL d   1      27.892 -16.804  -0.560  0.00  0.00     0.240 C 
ATOM      2  O   UNL d   1      28.035 -16.372   0.592  0.00  0.00    -0.272 OA
ATOM      3  N   UNL d   1      26.701 -17.459  -0.866  0.00  0.00    -0.269 N 
ATOM      4  H   UNL d   1      26.380 -17.572  -1.823  0.00  0.00     0.190 HD
ENDROOT
BRANCH   1   5
ATOM      5  C   UNL d   1      28.940 -16.686  -1.695  0.00  0.00     0.145 C 
BRANCH   5   6
ATOM      6  C   UNL d   1      28.462 -15.954  -2.942  0.00  0.00    -0.021 A 
ATOM      7  C   UNL d   1      29.153 -15.828  -4.134  0.00  0.00     0.099 A 
ATOM      8  N   UNL d   1      28.412 -15.132  -5.036  0.00  0.00    -0.360 N 
ATOM      9  C   UNL d   1      28.837 -14.881  -6.393  0.00  0.00     0.155 C 
ATOM     10  C   UNL d   1      27.222 -14.751  -4.472  0.00  0.00     0.044 A 
ATOM     11  C   UNL d   1      26.163 -14.013  -5.020  0.00  0.00     0.030 A 
ATOM     12  C   UNL d   1      27.211 -15.257  -3.161  0.00  0.00    -0.001 A 
ATOM     13  C   UNL d   1      25.043 -13.787  -4.226  0.00  0.00     0.002 A 
ATOM     14  C   UNL d   1      24.987 -14.277  -2.924  0.00  0.00     0.001 A 
ATOM     15  C   UNL d   1      26.059 -15.005  -2.379  0.00  0.00     0.014 A 
ENDBRANCH   5   6
ENDBRANCH   1   5
BRANCH   3  16
ATOM     16  N   UNL d   1      25.697 -17.273   0.103  0.00  0.00    -0.298 N 
ATOM     17  H   UNL d   1      26.021 -17.173   1.072  0.00  0.00     0.187 HD
BRANCH  16  18
ATOM     18  C   UNL d   1      24.372 -17.628  -0.152  0.00  0.00     0.048 A 
ATOM     19  C   UNL d   1      23.918 -18.951  -0.158  0.00  0.00     0.034 A 
ATOM     20  C   UNL d   1      22.601 -19.253  -0.521  0.00  0.00     0.044 A 
ATOM     21  C   UNL d   1      21.736 -18.232  -0.895  0.00  0.00     0.116 A 
ATOM     22  F   UNL d   1      20.482 -18.527  -1.260  0.00  0.00    -0.206 F 
ATOM     23  C   UNL d   1      22.158 -16.911  -0.895  0.00  0.00     0.044 A 
ATOM     24  C   UNL d   1      23.469 -16.612  -0.515  0.00  0.00     0.034 A 
ENDBRANCH  16  18
ENDBRANCH   3  16
TORSDOF 4
ENDMDL
MODEL 8
REMARK VINA RESULT:    -6.142      4.684      8.651
REMARK INTER + INTRA:          -8.716
REMARK INTER:                  -7.335
REMARK INTRA:                  -1.380
REMARK CONF_INDEPENDENT:        1.193
REMARK UNBOUND:                -1.380
REMARK  4 active torsions:
REMARK  status: ('A' for Active; 'I' for Inactive)
REMARK    1  A    between atoms: C_4  and  C_5 
REMARK    2  A    between atoms: C_5  and  C_6 
REMARK       I    between atoms: C_6  and  N_8 
REMARK    3  A    between atoms: N_8  and  N_9 
REMARK    4  A    between atoms: N_9  and  C_10 
ROOT
ATOM      1  C   UNL d   1      27.242 -15.157  -4.507  0.00  0.00     0.240 C 
ATOM      2  O   UNL d   1      26.943 -15.214  -5.708  0.00  0.00    -0.272 OA
ATOM      3  N   UNL d   1      28.427 -15.768  -4.102  0.00  0.00    -0.269 N 
ATOM      4  H   UNL d   1      28.889 -15.522  -3.232  0.00  0.00     0.190 HD
ENDROOT
BRANCH   1   5
ATOM      5  C   UNL d   1      26.395 -14.468  -3.408  0.00  0.00     0.145 C 
BRANCH   5   6
ATOM      6  C   UNL d   1      25.764 -15.412  -2.392  0.00  0.00    -0.021 A 
ATOM      7  C   UNL d   1      24.412 -15.573  -2.152  0.00  0.00     0.099 A 
ATOM      8  N   UNL d   1      24.212 -16.518  -1.196  0.00  0.00    -0.360 N 
ATOM      9  C   UNL d   1      22.903 -16.951  -0.765  0.00  0.00     0.155 C 
ATOM     10  C   UNL d   1      25.416 -16.997  -0.752  0.00  0.00     0.044 A 
ATOM     11  C   UNL d   1      25.694 -17.962   0.228  0.00  0.00     0.030 A 
ATOM     12  C   UNL d   1      26.415 -16.335  -1.485  0.00  0.00    -0.001 A 
ATOM     13  C   UNL d   1      27.025 -18.286   0.469  0.00  0.00     0.002 A 
ATOM     14  C   UNL d   1      28.046 -17.660  -0.241  0.00  0.00     0.001 A 
ATOM     15  C   UNL d   1      27.758 -16.685  -1.212  0.00  0.00     0.014 A 
ENDBRANCH   5   6
ENDBRANCH   1   5
BRANCH   3  16
ATOM     16  N   UNL d   1      29.274 -16.109  -5.174  0.00  0.00    -0.298 N 
ATOM     17  H   UNL d   1      29.058 -15.668  -6.075  0.00  0.00     0.187 HD
BRANCH  16  18
ATOM     18  C   UNL d   1      30.055 -17.263  -5.137  0.00  0.00     0.048 A 
ATOM     19  C   UNL d   1      30.406 -17.992  -6.278  0.00  0.00     0.034 A 
ATOM     20  C   UNL d   1      31.107 -19.199  -6.168  0.00  0.00     0.044 A 
ATOM     21  C   UNL d   1      31.447 -19.689  -4.914  0.00  0.00     0.116 A 
ATOM     22  F   UNL d   1      32.101 -20.853  -4.813  0.00  0.00    -0.206 F 
ATOM     23  C   UNL d   1      31.115 -18.985  -3.765  0.00  0.00     0.044 A 
ATOM     24  C   UNL d   1      30.431 -17.773  -3.880  0.00  0.00     0.034 A 
ENDBRANCH  16  18
ENDBRANCH   3  16
TORSDOF 4
ENDMDL
