MODEL 1
REMARK VINA RESULT:   -30.138      0.000      0.000
REMARK INTER + INTRA:         -34.801
REMARK INTER:                 -33.121
REMARK INTRA:                  -1.680
REMARK CONF_INDEPENDENT:        2.983
REMARK UNBOUND:                -1.680
REMARK  10 active torsions:
REMARK  status: ('A' for Active; 'I' for Inactive)
REMARK    1  A    between atoms: C_7  and  N_8 
REMARK       I    between atoms: N_8  and  C_9 
REMARK    2  A    between atoms: C_9  and  C_11 
REMARK    3  A    between atoms: C_14  and  N_15 
REMARK    4  A    between atoms: N_15  and  C_16 
REMARK    5  A    between atoms: C_16  and  C_17 
REMARK    6  A    between atoms: C_17  and  C_18 
REMARK    7  A    between atoms: C_17  and  C_20 
REMARK    8  A    between atoms: C_18  and  O_19 
REMARK    9  A    between atoms: C_20  and  C_21 
REMARK   10  A    between atoms: C_26  and  N_27 
ROOT
ATOM      1  N   UNL d   1      19.904 -18.925  -0.895  0.00  0.00    -0.191 NA
ATOM      2  C   UNL d   1      21.006 -18.623  -0.719  0.00  0.00     0.099 C 
ATOM      3  C   UNL d   1      22.380 -18.242  -0.552  0.00  0.00     0.046 A 
ATOM      4  C   UNL d   1      23.240 -18.943   0.283  0.00  0.00     0.023 A 
ATOM      5  C   UNL d   1      24.587 -18.576   0.342  0.00  0.00     0.004 A 
ATOM      6  C   UNL d   1      25.077 -17.506  -0.435  0.00  0.00     0.029 A 
ATOM      7  C   UNL d   1      24.205 -16.773  -1.253  0.00  0.00     0.036 A 
ATOM      8  C   UNL d   1      22.863 -17.162  -1.284  0.00  0.00     0.052 A 
ENDROOT
BRANCH   7   9
ATOM      9  N   UNL d   1      24.673 -15.673  -2.028  0.00  0.00    -0.323 N 
ATOM     10  C   UNL d   1      25.995 -15.521  -2.453  0.00  0.00     0.256 C 
ATOM     11  O   UNL d   1      26.940 -16.268  -2.222  0.00  0.00    -0.267 OA
ATOM     12  H   UNL d   1      23.984 -14.982  -2.307  0.00  0.00     0.169 HD
BRANCH  10  13
ATOM     13  C   UNL d   1      26.354 -14.326  -3.237  0.00  0.00     0.034 A 
ATOM     14  C   UNL d   1      25.743 -13.107  -2.960  0.00  0.00     0.019 A 
ATOM     15  C   UNL d   1      25.877 -12.046  -3.864  0.00  0.00     0.032 A 
ATOM     16  C   UNL d   1      26.693 -12.126  -5.034  0.00  0.00     0.061 A 
ATOM     17  C   UNL d   1      27.272 -13.401  -5.313  0.00  0.00     0.130 A 
ATOM     18  C   UNL d   1      27.097 -14.466  -4.396  0.00  0.00     0.055 A 
BRANCH  16  19
ATOM     19  N   UNL d   1      26.689 -10.945  -5.800  0.00  0.00    -0.387 N 
ATOM     20  H   UNL d   1      27.343 -10.963  -6.588  0.00  0.00     0.159 HD
BRANCH  19  21
ATOM     21  C   UNL d   1      25.421 -10.330  -6.135  0.00  0.00     0.127 C 
BRANCH  21  22
ATOM     22  C   UNL d   1      24.934  -9.193  -5.268  0.00  0.00     0.033 C 
BRANCH  22  23
ATOM     23  C   UNL d   1      25.881  -8.993  -4.091  0.00  0.00     0.170 C 
BRANCH  23  24
ATOM     24  O   UNL d   1      25.156  -8.530  -2.955  0.00  0.00    -0.400 OA
ATOM     25  H   UNL d   1      24.448  -7.959  -3.304  0.00  0.00     0.209 HD
ENDBRANCH  23  24
ENDBRANCH  22  23
BRANCH  22  26
ATOM     26  C   UNL d   1      24.875  -7.933  -6.162  0.00  0.00     0.073 C 
BRANCH  26  27
ATOM     27  C   UNL d   1      23.647  -7.151  -5.910  0.00  0.00     0.053 A 
ATOM     28  C   UNL d   1      22.613  -6.798  -6.744  0.00  0.00     0.034 A 
ATOM     29  C   UNL d   1      21.782  -5.939  -5.995  0.00  0.00     0.027 A 
ATOM     30  C   UNL d   1      22.362  -5.829  -4.751  0.00  0.00     0.142 A 
ATOM     31  O   UNL d   1      23.503  -6.566  -4.690  0.00  0.00    -0.327 OA
ENDBRANCH  26  27
ENDBRANCH  22  26
ENDBRANCH  21  22
ENDBRANCH  19  21
ENDBRANCH  16  19
BRANCH  17  32
ATOM     32  N   UNL d   1      28.064 -13.839  -6.511  0.00  0.00    -0.113 N 
ATOM     33  O   UNL d   1      28.518 -13.051  -7.336  0.00  0.00    -0.532 OA
ATOM     34  O   UNL d   1      28.269 -15.056  -6.632  0.00  0.00    -0.532 OA
ENDBRANCH  17  32
ENDBRANCH  10  13
ENDBRANCH   7   9
TORSDOF 10
ENDMDL
MODEL 2
REMARK VINA RESULT:   -29.173      1.182      2.175
REMARK INTER + INTRA:         -33.912
REMARK INTER:                 -32.156
REMARK INTRA:                  -1.756
REMARK CONF_INDEPENDENT:        2.983
REMARK UNBOUND:                -1.756
REMARK  10 active torsions:
REMARK  status: ('A' for Active; 'I' for Inactive)
REMARK    1  A    between atoms: C_7  and  N_8 
REMARK       I    between atoms: N_8  and  C_9 
REMARK    2  A    between atoms: C_9  and  C_11 
REMARK    3  A    between atoms: C_14  and  N_15 
REMARK    4  A    between atoms: N_15  and  C_16 
REMARK    5  A    between atoms: C_16  and  C_17 
REMARK    6  A    between atoms: C_17  and  C_18 
REMARK    7  A    between atoms: C_17  and  C_20 
REMARK    8  A    between atoms: C_18  and  O_19 
REMARK    9  A    between atoms: C_20  and  C_21 
REMARK   10  A    between atoms: C_26  and  N_27 
ROOT
ATOM      1  N   UNL d   1      19.905 -18.589  -0.896  0.00  0.00    -0.191 NA
ATOM      2  C   UNL d   1      21.041 -18.410  -0.786  0.00  0.00     0.099 C 
ATOM      3  C   UNL d   1      22.455 -18.171  -0.699  0.00  0.00     0.046 A 
ATOM      4  C   UNL d   1      23.322 -19.094  -0.131  0.00  0.00     0.023 A 
ATOM      5  C   UNL d   1      24.697 -18.843  -0.149  0.00  0.00     0.004 A 
ATOM      6  C   UNL d   1      25.206 -17.667  -0.736  0.00  0.00     0.029 A 
ATOM      7  C   UNL d   1      24.332 -16.716  -1.280  0.00  0.00     0.036 A 
ATOM      8  C   UNL d   1      22.963 -16.994  -1.240  0.00  0.00     0.052 A 
ENDROOT
BRANCH   7   9
ATOM      9  N   UNL d   1      24.823 -15.509  -1.857  0.00  0.00    -0.323 N 
ATOM     10  C   UNL d   1      25.340 -15.414  -3.152  0.00  0.00     0.256 C 
ATOM     11  O   UNL d   1      25.472 -16.321  -3.967  0.00  0.00    -0.267 OA
ATOM     12  H   UNL d   1      24.756 -14.670  -1.291  0.00  0.00     0.169 HD
BRANCH  10  13
ATOM     13  C   UNL d   1      25.832 -14.107  -3.624  0.00  0.00     0.034 A 
ATOM     14  C   UNL d   1      25.172 -12.942  -3.247  0.00  0.00     0.019 A 
ATOM     15  C   UNL d   1      25.466 -11.739  -3.901  0.00  0.00     0.032 A 
ATOM     16  C   UNL d   1      26.487 -11.629  -4.893  0.00  0.00     0.061 A 
ATOM     17  C   UNL d   1      27.118 -12.849  -5.289  0.00  0.00     0.130 A 
ATOM     18  C   UNL d   1      26.780 -14.056  -4.630  0.00  0.00     0.055 A 
BRANCH  16  19
ATOM     19  N   UNL d   1      26.620 -10.330  -5.418  0.00  0.00    -0.387 N 
ATOM     20  H   UNL d   1      27.483 -10.185  -5.950  0.00  0.00     0.159 HD
BRANCH  19  21
ATOM     21  C   UNL d   1      25.469  -9.701  -6.034  0.00  0.00     0.127 C 
BRANCH  21  22
ATOM     22  C   UNL d   1      25.309  -8.207  -5.878  0.00  0.00     0.033 C 
BRANCH  22  23
ATOM     23  C   UNL d   1      23.977  -7.895  -5.204  0.00  0.00     0.170 C 
BRANCH  23  24
ATOM     24  O   UNL d   1      24.030  -6.609  -4.593  0.00  0.00    -0.400 OA
ATOM     25  H   UNL d   1      24.023  -6.769  -3.632  0.00  0.00     0.209 HD
ENDBRANCH  23  24
ENDBRANCH  22  23
BRANCH  22  26
ATOM     26  C   UNL d   1      26.499  -7.709  -5.028  0.00  0.00     0.073 C 
BRANCH  26  27
ATOM     27  C   UNL d   1      26.197  -7.785  -3.583  0.00  0.00     0.053 A 
ATOM     28  C   UNL d   1      25.882  -8.855  -2.780  0.00  0.00     0.034 A 
ATOM     29  C   UNL d   1      25.566  -8.317  -1.517  0.00  0.00     0.027 A 
ATOM     30  C   UNL d   1      25.714  -6.953  -1.629  0.00  0.00     0.142 A 
ATOM     31  O   UNL d   1      26.099  -6.618  -2.889  0.00  0.00    -0.327 OA
ENDBRANCH  26  27
ENDBRANCH  22  26
ENDBRANCH  21  22
ENDBRANCH  19  21
ENDBRANCH  16  19
BRANCH  17  32
ATOM     32  N   UNL d   1      28.123 -13.085  -6.378  0.00  0.00    -0.113 N 
ATOM     33  O   UNL d   1      28.565 -12.184  -7.085  0.00  0.00    -0.532 OA
ATOM     34  O   UNL d   1      28.520 -14.250  -6.530  0.00  0.00    -0.532 OA
ENDBRANCH  17  32
ENDBRANCH  10  13
ENDBRANCH   7   9
TORSDOF 10
ENDMDL
MODEL 3
REMARK VINA RESULT:   -28.500      2.405      3.720
REMARK INTER + INTRA:         -33.478
REMARK INTER:                 -31.483
REMARK INTRA:                  -1.995
REMARK CONF_INDEPENDENT:        2.983
REMARK UNBOUND:                -1.995
REMARK  10 active torsions:
REMARK  status: ('A' for Active; 'I' for Inactive)
REMARK    1  A    between atoms: C_7  and  N_8 
REMARK       I    between atoms: N_8  and  C_9 
REMARK    2  A    between atoms: C_9  and  C_11 
REMARK    3  A    between atoms: C_14  and  N_15 
REMARK    4  A    between atoms: N_15  and  C_16 
REMARK    5  A    between atoms: C_16  and  C_17 
REMARK    6  A    between atoms: C_17  and  C_18 
REMARK    7  A    between atoms: C_17  and  C_20 
REMARK    8  A    between atoms: C_18  and  O_19 
REMARK    9  A    between atoms: C_20  and  C_21 
REMARK   10  A    between atoms: C_26  and  N_27 
ROOT
ATOM      1  N   UNL d   1      19.905 -18.702  -0.896  0.00  0.00    -0.191 NA
ATOM      2  C   UNL d   1      21.036 -18.513  -0.758  0.00  0.00     0.099 C 
ATOM      3  C   UNL d   1      22.444 -18.255  -0.635  0.00  0.00     0.046 A 
ATOM      4  C   UNL d   1      23.328 -19.216  -0.165  0.00  0.00     0.023 A 
ATOM      5  C   UNL d   1      24.697 -18.935  -0.145  0.00  0.00     0.004 A 
ATOM      6  C   UNL d   1      25.184 -17.691  -0.596  0.00  0.00     0.029 A 
ATOM      7  C   UNL d   1      24.291 -16.704  -1.039  0.00  0.00     0.036 A 
ATOM      8  C   UNL d   1      22.929 -17.014  -1.040  0.00  0.00     0.052 A 
ENDROOT
BRANCH   7   9
ATOM      9  N   UNL d   1      24.758 -15.431  -1.475  0.00  0.00    -0.323 N 
ATOM     10  C   UNL d   1      25.141 -15.146  -2.789  0.00  0.00     0.256 C 
ATOM     11  O   UNL d   1      25.158 -15.918  -3.742  0.00  0.00    -0.267 OA
ATOM     12  H   UNL d   1      24.778 -14.688  -0.785  0.00  0.00     0.169 HD
BRANCH  10  13
ATOM     13  C   UNL d   1      25.623 -13.790  -3.108  0.00  0.00     0.034 A 
ATOM     14  C   UNL d   1      25.526 -13.310  -4.410  0.00  0.00     0.019 A 
ATOM     15  C   UNL d   1      26.218 -12.147  -4.770  0.00  0.00     0.032 A 
ATOM     16  C   UNL d   1      26.963 -11.369  -3.832  0.00  0.00     0.061 A 
ATOM     17  C   UNL d   1      27.079 -11.909  -2.515  0.00  0.00     0.130 A 
ATOM     18  C   UNL d   1      26.391 -13.103  -2.185  0.00  0.00     0.055 A 
BRANCH  16  19
ATOM     19  N   UNL d   1      27.576 -10.238  -4.404  0.00  0.00    -0.387 N 
ATOM     20  H   UNL d   1      27.354 -10.105  -5.395  0.00  0.00     0.159 HD
BRANCH  19  21
ATOM     21  C   UNL d   1      27.589  -8.996  -3.660  0.00  0.00     0.127 C 
BRANCH  21  22
ATOM     22  C   UNL d   1      26.608  -7.919  -4.058  0.00  0.00     0.033 C 
BRANCH  22  23
ATOM     23  C   UNL d   1      25.223  -8.524  -4.254  0.00  0.00     0.170 C 
BRANCH  23  24
ATOM     24  O   UNL d   1      25.241  -9.442  -5.343  0.00  0.00    -0.400 OA
ATOM     25  H   UNL d   1      24.636 -10.165  -5.095  0.00  0.00     0.209 HD
ENDBRANCH  23  24
ENDBRANCH  22  23
BRANCH  22  26
ATOM     26  C   UNL d   1      26.606  -6.865  -2.928  0.00  0.00     0.073 C 
BRANCH  26  27
ATOM     27  C   UNL d   1      26.561  -7.505  -1.596  0.00  0.00     0.053 A 
ATOM     28  C   UNL d   1      25.520  -8.075  -0.902  0.00  0.00     0.034 A 
ATOM     29  C   UNL d   1      26.032  -8.405   0.369  0.00  0.00     0.027 A 
ATOM     30  C   UNL d   1      27.353  -8.019   0.366  0.00  0.00     0.142 A 
ATOM     31  O   UNL d   1      27.685  -7.467  -0.831  0.00  0.00    -0.327 OA
ENDBRANCH  26  27
ENDBRANCH  22  26
ENDBRANCH  21  22
ENDBRANCH  19  21
ENDBRANCH  16  19
BRANCH  17  32
ATOM     32  N   UNL d   1      27.884 -11.406  -1.353  0.00  0.00    -0.113 N 
ATOM     33  O   UNL d   1      27.407 -11.235  -0.234  0.00  0.00    -0.532 OA
ATOM     34  O   UNL d   1      29.086 -11.183  -1.559  0.00  0.00    -0.532 OA
ENDBRANCH  17  32
ENDBRANCH  10  13
ENDBRANCH   7   9
TORSDOF 10
ENDMDL
MODEL 4
REMARK VINA RESULT:   -28.388      1.913      2.660
REMARK INTER + INTRA:         -32.960
REMARK INTER:                 -31.371
REMARK INTRA:                  -1.588
REMARK CONF_INDEPENDENT:        2.983
REMARK UNBOUND:                -1.588
REMARK  10 active torsions:
REMARK  status: ('A' for Active; 'I' for Inactive)
REMARK    1  A    between atoms: C_7  and  N_8 
REMARK       I    between atoms: N_8  and  C_9 
REMARK    2  A    between atoms: C_9  and  C_11 
REMARK    3  A    between atoms: C_14  and  N_15 
REMARK    4  A    between atoms: N_15  and  C_16 
REMARK    5  A    between atoms: C_16  and  C_17 
REMARK    6  A    between atoms: C_17  and  C_18 
REMARK    7  A    between atoms: C_17  and  C_20 
REMARK    8  A    between atoms: C_18  and  O_19 
REMARK    9  A    between atoms: C_20  and  C_21 
REMARK   10  A    between atoms: C_26  and  N_27 
ROOT
ATOM      1  N   UNL d   1      19.904 -18.602  -0.895  0.00  0.00    -0.191 NA
ATOM      2  C   UNL d   1      21.039 -18.415  -0.785  0.00  0.00     0.099 C 
ATOM      3  C   UNL d   1      22.450 -18.161  -0.697  0.00  0.00     0.046 A 
ATOM      4  C   UNL d   1      23.341 -19.118  -0.233  0.00  0.00     0.023 A 
ATOM      5  C   UNL d   1      24.711 -18.842  -0.247  0.00  0.00     0.004 A 
ATOM      6  C   UNL d   1      25.192 -17.607  -0.727  0.00  0.00     0.029 A 
ATOM      7  C   UNL d   1      24.293 -16.623  -1.163  0.00  0.00     0.036 A 
ATOM      8  C   UNL d   1      22.930 -16.928  -1.130  0.00  0.00     0.052 A 
ENDROOT
BRANCH   7   9
ATOM      9  N   UNL d   1      24.755 -15.358  -1.628  0.00  0.00    -0.323 N 
ATOM     10  C   UNL d   1      25.147 -15.104  -2.945  0.00  0.00     0.256 C 
ATOM     11  O   UNL d   1      25.180 -15.899  -3.877  0.00  0.00    -0.267 OA
ATOM     12  H   UNL d   1      24.762 -14.597  -0.957  0.00  0.00     0.169 HD
BRANCH  10  13
ATOM     13  C   UNL d   1      25.623 -13.752  -3.294  0.00  0.00     0.034 A 
ATOM     14  C   UNL d   1      25.665 -13.356  -4.627  0.00  0.00     0.019 A 
ATOM     15  C   UNL d   1      26.358 -12.192  -4.980  0.00  0.00     0.032 A 
ATOM     16  C   UNL d   1      26.964 -11.332  -4.015  0.00  0.00     0.061 A 
ATOM     17  C   UNL d   1      26.942 -11.786  -2.661  0.00  0.00     0.130 A 
ATOM     18  C   UNL d   1      26.257 -12.982  -2.335  0.00  0.00     0.055 A 
BRANCH  16  19
ATOM     19  N   UNL d   1      27.606 -10.215  -4.585  0.00  0.00    -0.387 N 
ATOM     20  H   UNL d   1      27.302 -10.009  -5.541  0.00  0.00     0.159 HD
BRANCH  19  21
ATOM     21  C   UNL d   1      27.785  -9.023  -3.782  0.00  0.00     0.127 C 
BRANCH  21  22
ATOM     22  C   UNL d   1      26.567  -8.183  -3.478  0.00  0.00     0.033 C 
BRANCH  22  23
ATOM     23  C   UNL d   1      26.883  -7.194  -2.362  0.00  0.00     0.170 C 
BRANCH  23  24
ATOM     24  O   UNL d   1      27.678  -7.825  -1.362  0.00  0.00    -0.400 OA
ATOM     25  H   UNL d   1      27.084  -7.976  -0.605  0.00  0.00     0.209 HD
ENDBRANCH  23  24
ENDBRANCH  22  23
BRANCH  22  26
ATOM     26  C   UNL d   1      26.182  -7.452  -4.785  0.00  0.00     0.073 C 
BRANCH  26  27
ATOM     27  C   UNL d   1      24.717  -7.301  -4.904  0.00  0.00     0.053 A 
ATOM     28  C   UNL d   1      23.774  -8.088  -5.523  0.00  0.00     0.034 A 
ATOM     29  C   UNL d   1      22.555  -7.387  -5.429  0.00  0.00     0.027 A 
ATOM     30  C   UNL d   1      22.833  -6.219  -4.754  0.00  0.00     0.142 A 
ATOM     31  O   UNL d   1      24.152  -6.158  -4.430  0.00  0.00    -0.327 OA
ENDBRANCH  26  27
ENDBRANCH  22  26
ENDBRANCH  21  22
ENDBRANCH  19  21
ENDBRANCH  16  19
BRANCH  17  32
ATOM     32  N   UNL d   1      27.591 -11.183  -1.449  0.00  0.00    -0.113 N 
ATOM     33  O   UNL d   1      28.597 -11.654  -0.927  0.00  0.00    -0.532 OA
ATOM     34  O   UNL d   1      27.074 -10.153  -0.991  0.00  0.00    -0.532 OA
ENDBRANCH  17  32
ENDBRANCH  10  13
ENDBRANCH   7   9
TORSDOF 10
ENDMDL
MODEL 5
REMARK VINA RESULT:   -28.351      2.112      2.805
REMARK INTER + INTRA:         -33.433
REMARK INTER:                 -31.334
REMARK INTRA:                  -2.100
REMARK CONF_INDEPENDENT:        2.983
REMARK UNBOUND:                -2.100
REMARK  10 active torsions:
REMARK  status: ('A' for Active; 'I' for Inactive)
REMARK    1  A    between atoms: C_7  and  N_8 
REMARK       I    between atoms: N_8  and  C_9 
REMARK    2  A    between atoms: C_9  and  C_11 
REMARK    3  A    between atoms: C_14  and  N_15 
REMARK    4  A    between atoms: N_15  and  C_16 
REMARK    5  A    between atoms: C_16  and  C_17 
REMARK    6  A    between atoms: C_17  and  C_18 
REMARK    7  A    between atoms: C_17  and  C_20 
REMARK    8  A    between atoms: C_18  and  O_19 
REMARK    9  A    between atoms: C_20  and  C_21 
REMARK   10  A    between atoms: C_26  and  N_27 
ROOT
ATOM      1  N   UNL d   1      19.905 -18.670  -0.895  0.00  0.00    -0.191 NA
ATOM      2  C   UNL d   1      21.038 -18.490  -0.751  0.00  0.00     0.099 C 
ATOM      3  C   UNL d   1      22.447 -18.244  -0.621  0.00  0.00     0.046 A 
ATOM      4  C   UNL d   1      23.324 -19.222  -0.173  0.00  0.00     0.023 A 
ATOM      5  C   UNL d   1      24.695 -18.950  -0.145  0.00  0.00     0.004 A 
ATOM      6  C   UNL d   1      25.190 -17.699  -0.565  0.00  0.00     0.029 A 
ATOM      7  C   UNL d   1      24.304 -16.696  -0.985  0.00  0.00     0.036 A 
ATOM      8  C   UNL d   1      22.940 -16.997  -0.995  0.00  0.00     0.052 A 
ENDROOT
BRANCH   7   9
ATOM      9  N   UNL d   1      24.779 -15.415  -1.390  0.00  0.00    -0.323 N 
ATOM     10  C   UNL d   1      25.179 -15.105  -2.693  0.00  0.00     0.256 C 
ATOM     11  O   UNL d   1      25.207 -15.858  -3.660  0.00  0.00    -0.267 OA
ATOM     12  H   UNL d   1      24.792 -14.686  -0.685  0.00  0.00     0.169 HD
BRANCH  10  13
ATOM     13  C   UNL d   1      25.669 -13.744  -2.978  0.00  0.00     0.034 A 
ATOM     14  C   UNL d   1      25.248 -13.085  -4.129  0.00  0.00     0.019 A 
ATOM     15  C   UNL d   1      25.908 -11.920  -4.538  0.00  0.00     0.032 A 
ATOM     16  C   UNL d   1      26.955 -11.318  -3.776  0.00  0.00     0.061 A 
ATOM     17  C   UNL d   1      27.393 -12.039  -2.624  0.00  0.00     0.130 A 
ATOM     18  C   UNL d   1      26.726 -13.231  -2.249  0.00  0.00     0.055 A 
BRANCH  16  19
ATOM     19  N   UNL d   1      27.477 -10.151  -4.367  0.00  0.00    -0.387 N 
ATOM     20  H   UNL d   1      28.191  -9.685  -3.799  0.00  0.00     0.159 HD
BRANCH  19  21
ATOM     21  C   UNL d   1      27.802 -10.165  -5.778  0.00  0.00     0.127 C 
BRANCH  21  22
ATOM     22  C   UNL d   1      27.011  -9.264  -6.697  0.00  0.00     0.033 C 
BRANCH  22  23
ATOM     23  C   UNL d   1      27.460  -9.469  -8.140  0.00  0.00     0.170 C 
BRANCH  23  24
ATOM     24  O   UNL d   1      26.488  -8.934  -9.033  0.00  0.00    -0.400 OA
ATOM     25  H   UNL d   1      25.933  -8.338  -8.499  0.00  0.00     0.209 HD
ENDBRANCH  23  24
ENDBRANCH  22  23
BRANCH  22  26
ATOM     26  C   UNL d   1      25.519  -9.628  -6.516  0.00  0.00     0.073 C 
BRANCH  26  27
ATOM     27  C   UNL d   1      24.715  -8.439  -6.162  0.00  0.00     0.053 A 
ATOM     28  C   UNL d   1      23.791  -8.237  -5.165  0.00  0.00     0.034 A 
ATOM     29  C   UNL d   1      23.248  -6.956  -5.388  0.00  0.00     0.027 A 
ATOM     30  C   UNL d   1      23.880  -6.457  -6.506  0.00  0.00     0.142 A 
ATOM     31  O   UNL d   1      24.778  -7.358  -6.986  0.00  0.00    -0.327 OA
ENDBRANCH  26  27
ENDBRANCH  22  26
ENDBRANCH  21  22
ENDBRANCH  19  21
ENDBRANCH  16  19
BRANCH  17  32
ATOM     32  N   UNL d   1      28.538 -11.743  -1.700  0.00  0.00    -0.113 N 
ATOM     33  O   UNL d   1      28.807 -12.440  -0.725  0.00  0.00    -0.532 OA
ATOM     34  O   UNL d   1      29.236 -10.754  -1.972  0.00  0.00    -0.532 OA
ENDBRANCH  17  32
ENDBRANCH  10  13
ENDBRANCH   7   9
TORSDOF 10
ENDMDL
MODEL 6
REMARK VINA RESULT:   -28.291      3.301      4.968
REMARK INTER + INTRA:         -34.845
REMARK INTER:                 -31.274
REMARK INTRA:                  -3.570
REMARK CONF_INDEPENDENT:        2.983
REMARK UNBOUND:                -3.570
REMARK  10 active torsions:
REMARK  status: ('A' for Active; 'I' for Inactive)
REMARK    1  A    between atoms: C_7  and  N_8 
REMARK       I    between atoms: N_8  and  C_9 
REMARK    2  A    between atoms: C_9  and  C_11 
REMARK    3  A    between atoms: C_14  and  N_15 
REMARK    4  A    between atoms: N_15  and  C_16 
REMARK    5  A    between atoms: C_16  and  C_17 
REMARK    6  A    between atoms: C_17  and  C_18 
REMARK    7  A    between atoms: C_17  and  C_20 
REMARK    8  A    between atoms: C_18  and  O_19 
REMARK    9  A    between atoms: C_20  and  C_21 
REMARK   10  A    between atoms: C_26  and  N_27 
ROOT
ATOM      1  N   UNL d   1      19.884 -18.827  -0.895  0.00  0.00    -0.191 NA
ATOM      2  C   UNL d   1      20.992 -18.539  -0.741  0.00  0.00     0.099 C 
ATOM      3  C   UNL d   1      22.373 -18.170  -0.602  0.00  0.00     0.046 A 
ATOM      4  C   UNL d   1      23.270 -18.940   0.125  0.00  0.00     0.023 A 
ATOM      5  C   UNL d   1      24.618 -18.575   0.156  0.00  0.00     0.004 A 
ATOM      6  C   UNL d   1      25.072 -17.436  -0.540  0.00  0.00     0.029 A 
ATOM      7  C   UNL d   1      24.164 -16.634  -1.246  0.00  0.00     0.036 A 
ATOM      8  C   UNL d   1      22.822 -17.024  -1.252  0.00  0.00     0.052 A 
ENDROOT
BRANCH   7   9
ATOM      9  N   UNL d   1      24.596 -15.465  -1.936  0.00  0.00    -0.323 N 
ATOM     10  C   UNL d   1      25.875 -15.302  -2.475  0.00  0.00     0.256 C 
ATOM     11  O   UNL d   1      26.808 -16.097  -2.428  0.00  0.00    -0.267 OA
ATOM     12  H   UNL d   1      23.911 -14.727  -2.063  0.00  0.00     0.169 HD
BRANCH  10  13
ATOM     13  C   UNL d   1      26.202 -14.034  -3.153  0.00  0.00     0.034 A 
ATOM     14  C   UNL d   1      25.434 -13.608  -4.232  0.00  0.00     0.019 A 
ATOM     15  C   UNL d   1      25.896 -12.559  -5.037  0.00  0.00     0.032 A 
ATOM     16  C   UNL d   1      27.095 -11.838  -4.752  0.00  0.00     0.061 A 
ATOM     17  C   UNL d   1      27.883 -12.325  -3.665  0.00  0.00     0.130 A 
ATOM     18  C   UNL d   1      27.405 -13.406  -2.884  0.00  0.00     0.055 A 
BRANCH  16  19
ATOM     19  N   UNL d   1      27.371 -10.821  -5.687  0.00  0.00    -0.387 N 
ATOM     20  H   UNL d   1      28.137 -10.201  -5.407  0.00  0.00     0.159 HD
BRANCH  19  21
ATOM     21  C   UNL d   1      27.404 -11.154  -7.096  0.00  0.00     0.127 C 
BRANCH  21  22
ATOM     22  C   UNL d   1      28.751 -11.376  -7.742  0.00  0.00     0.033 C 
BRANCH  22  23
ATOM     23  C   UNL d   1      29.858 -11.203  -6.708  0.00  0.00     0.170 C 
BRANCH  23  24
ATOM     24  O   UNL d   1      29.904  -9.850  -6.265  0.00  0.00    -0.400 OA
ATOM     25  H   UNL d   1      29.653  -9.868  -5.323  0.00  0.00     0.209 HD
ENDBRANCH  23  24
ENDBRANCH  22  23
BRANCH  22  26
ATOM     26  C   UNL d   1      28.745 -12.807  -8.325  0.00  0.00     0.073 C 
BRANCH  26  27
ATOM     27  C   UNL d   1      28.917 -13.821  -7.264  0.00  0.00     0.053 A 
ATOM     28  C   UNL d   1      30.007 -14.578  -6.904  0.00  0.00     0.034 A 
ATOM     29  C   UNL d   1      29.554 -15.469  -5.910  0.00  0.00     0.027 A 
ATOM     30  C   UNL d   1      28.218 -15.194  -5.724  0.00  0.00     0.142 A 
ATOM     31  O   UNL d   1      27.820 -14.188  -6.548  0.00  0.00    -0.327 OA
ENDBRANCH  26  27
ENDBRANCH  22  26
ENDBRANCH  21  22
ENDBRANCH  19  21
ENDBRANCH  16  19
BRANCH  17  32
ATOM     32  N   UNL d   1      29.236 -11.873  -3.198  0.00  0.00    -0.113 N 
ATOM     33  O   UNL d   1      30.033 -12.621  -2.640  0.00  0.00    -0.532 OA
ATOM     34  O   UNL d   1      29.538 -10.691  -3.420  0.00  0.00    -0.532 OA
ENDBRANCH  17  32
ENDBRANCH  10  13
ENDBRANCH   7   9
TORSDOF 10
ENDMDL
MODEL 7
REMARK VINA RESULT:   -28.016      2.125      3.271
REMARK INTER + INTRA:         -34.160
REMARK INTER:                 -30.999
REMARK INTRA:                  -3.161
REMARK CONF_INDEPENDENT:        2.983
REMARK UNBOUND:                -3.161
REMARK  10 active torsions:
REMARK  status: ('A' for Active; 'I' for Inactive)
REMARK    1  A    between atoms: C_7  and  N_8 
REMARK       I    between atoms: N_8  and  C_9 
REMARK    2  A    between atoms: C_9  and  C_11 
REMARK    3  A    between atoms: C_14  and  N_15 
REMARK    4  A    between atoms: N_15  and  C_16 
REMARK    5  A    between atoms: C_16  and  C_17 
REMARK    6  A    between atoms: C_17  and  C_18 
REMARK    7  A    between atoms: C_17  and  C_20 
REMARK    8  A    between atoms: C_18  and  O_19 
REMARK    9  A    between atoms: C_20  and  C_21 
REMARK   10  A    between atoms: C_26  and  N_27 
ROOT
ATOM      1  N   UNL d   1      19.904 -18.576  -1.107  0.00  0.00    -0.191 NA
ATOM      2  C   UNL d   1      21.015 -18.348  -0.884  0.00  0.00     0.099 C 
ATOM      3  C   UNL d   1      22.402 -18.055  -0.658  0.00  0.00     0.046 A 
ATOM      4  C   UNL d   1      23.212 -18.881   0.108  0.00  0.00     0.023 A 
ATOM      5  C   UNL d   1      24.574 -18.588   0.225  0.00  0.00     0.004 A 
ATOM      6  C   UNL d   1      25.127 -17.467  -0.426  0.00  0.00     0.029 A 
ATOM      7  C   UNL d   1      24.306 -16.609  -1.173  0.00  0.00     0.036 A 
ATOM      8  C   UNL d   1      22.949 -16.927  -1.264  0.00  0.00     0.052 A 
ENDROOT
BRANCH   7   9
ATOM      9  N   UNL d   1      24.839 -15.457  -1.818  0.00  0.00    -0.323 N 
ATOM     10  C   UNL d   1      25.344 -15.453  -3.122  0.00  0.00     0.256 C 
ATOM     11  O   UNL d   1      25.429 -16.406  -3.889  0.00  0.00    -0.267 OA
ATOM     12  H   UNL d   1      24.814 -14.586  -1.298  0.00  0.00     0.169 HD
BRANCH  10  13
ATOM     13  C   UNL d   1      25.883 -14.194  -3.669  0.00  0.00     0.034 A 
ATOM     14  C   UNL d   1      25.186 -13.004  -3.484  0.00  0.00     0.019 A 
ATOM     15  C   UNL d   1      25.548 -11.870  -4.221  0.00  0.00     0.032 A 
ATOM     16  C   UNL d   1      26.669 -11.850  -5.106  0.00  0.00     0.061 A 
ATOM     17  C   UNL d   1      27.337 -13.096  -5.308  0.00  0.00     0.130 A 
ATOM     18  C   UNL d   1      26.932 -14.235  -4.570  0.00  0.00     0.055 A 
BRANCH  16  19
ATOM     19  N   UNL d   1      26.856 -10.608  -5.742  0.00  0.00    -0.387 N 
ATOM     20  H   UNL d   1      27.759 -10.520  -6.218  0.00  0.00     0.159 HD
BRANCH  19  21
ATOM     21  C   UNL d   1      25.763 -10.036  -6.501  0.00  0.00     0.127 C 
BRANCH  21  22
ATOM     22  C   UNL d   1      25.878  -8.594  -6.936  0.00  0.00     0.033 C 
BRANCH  22  23
ATOM     23  C   UNL d   1      26.875  -7.861  -6.045  0.00  0.00     0.170 C 
BRANCH  23  24
ATOM     24  O   UNL d   1      28.136  -8.522  -6.079  0.00  0.00    -0.400 OA
ATOM     25  H   UNL d   1      28.501  -8.360  -6.968  0.00  0.00     0.209 HD
ENDBRANCH  23  24
ENDBRANCH  22  23
BRANCH  22  26
ATOM     26  C   UNL d   1      26.341  -8.600  -8.410  0.00  0.00     0.073 C 
BRANCH  26  27
ATOM     27  C   UNL d   1      27.092  -9.832  -8.733  0.00  0.00     0.053 A 
ATOM     28  C   UNL d   1      26.709 -10.978  -9.388  0.00  0.00     0.034 A 
ATOM     29  C   UNL d   1      27.798 -11.868  -9.287  0.00  0.00     0.027 A 
ATOM     30  C   UNL d   1      28.776 -11.204  -8.582  0.00  0.00     0.142 A 
ATOM     31  O   UNL d   1      28.353  -9.958  -8.239  0.00  0.00    -0.327 OA
ENDBRANCH  26  27
ENDBRANCH  22  26
ENDBRANCH  21  22
ENDBRANCH  19  21
ENDBRANCH  16  19
BRANCH  17  32
ATOM     32  N   UNL d   1      28.453 -13.429  -6.255  0.00  0.00    -0.113 N 
ATOM     33  O   UNL d   1      29.583 -12.962  -6.146  0.00  0.00    -0.532 OA
ATOM     34  O   UNL d   1      28.194 -14.231  -7.165  0.00  0.00    -0.532 OA
ENDBRANCH  17  32
ENDBRANCH  10  13
ENDBRANCH   7   9
TORSDOF 10
ENDMDL
MODEL 8
REMARK VINA RESULT:   -27.712      2.404      3.022
REMARK INTER + INTRA:         -33.770
REMARK INTER:                 -30.695
REMARK INTRA:                  -3.076
REMARK CONF_INDEPENDENT:        2.983
REMARK UNBOUND:                -3.076
REMARK  10 active torsions:
REMARK  status: ('A' for Active; 'I' for Inactive)
REMARK    1  A    between atoms: C_7  and  N_8 
REMARK       I    between atoms: N_8  and  C_9 
REMARK    2  A    between atoms: C_9  and  C_11 
REMARK    3  A    between atoms: C_14  and  N_15 
REMARK    4  A    between atoms: N_15  and  C_16 
REMARK    5  A    between atoms: C_16  and  C_17 
REMARK    6  A    between atoms: C_17  and  C_18 
REMARK    7  A    between atoms: C_17  and  C_20 
REMARK    8  A    between atoms: C_18  and  O_19 
REMARK    9  A    between atoms: C_20  and  C_21 
REMARK   10  A    between atoms: C_26  and  N_27 
ROOT
ATOM      1  N   UNL d   1      19.903 -18.930  -0.897  0.00  0.00    -0.191 NA
ATOM      2  C   UNL d   1      21.003 -18.619  -0.728  0.00  0.00     0.099 C 
ATOM      3  C   UNL d   1      22.375 -18.225  -0.569  0.00  0.00     0.046 A 
ATOM      4  C   UNL d   1      23.257 -18.942   0.226  0.00  0.00     0.023 A 
ATOM      5  C   UNL d   1      24.600 -18.558   0.276  0.00  0.00     0.004 A 
ATOM      6  C   UNL d   1      25.062 -17.454  -0.469  0.00  0.00     0.029 A 
ATOM      7  C   UNL d   1      24.166 -16.705  -1.245  0.00  0.00     0.036 A 
ATOM      8  C   UNL d   1      22.830 -17.111  -1.269  0.00  0.00     0.052 A 
ENDROOT
BRANCH   7   9
ATOM      9  N   UNL d   1      24.606 -15.570  -1.987  0.00  0.00    -0.323 N 
ATOM     10  C   UNL d   1      25.855 -15.477  -2.607  0.00  0.00     0.256 C 
ATOM     11  O   UNL d   1      26.753 -16.312  -2.599  0.00  0.00    -0.267 OA
ATOM     12  H   UNL d   1      23.948 -14.805  -2.089  0.00  0.00     0.169 HD
BRANCH  10  13
ATOM     13  C   UNL d   1      26.195 -14.239  -3.332  0.00  0.00     0.034 A 
ATOM     14  C   UNL d   1      25.389 -13.113  -3.194  0.00  0.00     0.019 A 
ATOM     15  C   UNL d   1      25.550 -12.037  -4.075  0.00  0.00     0.032 A 
ATOM     16  C   UNL d   1      26.572 -12.001  -5.072  0.00  0.00     0.061 A 
ATOM     17  C   UNL d   1      27.354 -13.187  -5.218  0.00  0.00     0.130 A 
ATOM     18  C   UNL d   1      27.151 -14.272  -4.331  0.00  0.00     0.055 A 
BRANCH  16  19
ATOM     19  N   UNL d   1      26.557 -10.825  -5.847  0.00  0.00    -0.387 N 
ATOM     20  H   UNL d   1      27.223 -10.114  -5.530  0.00  0.00     0.159 HD
BRANCH  19  21
ATOM     21  C   UNL d   1      26.496 -10.936  -7.290  0.00  0.00     0.127 C 
BRANCH  21  22
ATOM     22  C   UNL d   1      27.625 -10.337  -8.096  0.00  0.00     0.033 C 
BRANCH  22  23
ATOM     23  C   UNL d   1      27.850 -11.156  -9.362  0.00  0.00     0.170 C 
BRANCH  23  24
ATOM     24  O   UNL d   1      28.189 -12.497  -9.022  0.00  0.00    -0.400 OA
ATOM     25  H   UNL d   1      28.273 -12.514  -8.051  0.00  0.00     0.209 HD
ENDBRANCH  23  24
ENDBRANCH  22  23
BRANCH  22  26
ATOM     26  C   UNL d   1      27.222  -8.883  -8.431  0.00  0.00     0.073 C 
BRANCH  26  27
ATOM     27  C   UNL d   1      27.632  -7.951  -7.360  0.00  0.00     0.053 A 
ATOM     28  C   UNL d   1      28.517  -6.899  -7.366  0.00  0.00     0.034 A 
ATOM     29  C   UNL d   1      28.607  -6.456  -6.031  0.00  0.00     0.027 A 
ATOM     30  C   UNL d   1      27.767  -7.264  -5.297  0.00  0.00     0.142 A 
ATOM     31  O   UNL d   1      27.167  -8.182  -6.101  0.00  0.00    -0.327 OA
ENDBRANCH  26  27
ENDBRANCH  22  26
ENDBRANCH  21  22
ENDBRANCH  19  21
ENDBRANCH  16  19
BRANCH  17  32
ATOM     32  N   UNL d   1      28.405 -13.508  -6.241  0.00  0.00    -0.113 N 
ATOM     33  O   UNL d   1      29.478 -12.915  -6.304  0.00  0.00    -0.532 OA
ATOM     34  O   UNL d   1      28.155 -14.433  -7.028  0.00  0.00    -0.532 OA
ENDBRANCH  17  32
ENDBRANCH  10  13
ENDBRANCH   7   9
TORSDOF 10
ENDMDL
MODEL 9
REMARK VINA RESULT:   -27.620      3.446      5.541
REMARK INTER + INTRA:         -33.295
REMARK INTER:                 -30.603
REMARK INTRA:                  -2.692
REMARK CONF_INDEPENDENT:        2.983
REMARK UNBOUND:                -2.692
REMARK  10 active torsions:
REMARK  status: ('A' for Active; 'I' for Inactive)
REMARK    1  A    between atoms: C_7  and  N_8 
REMARK       I    between atoms: N_8  and  C_9 
REMARK    2  A    between atoms: C_9  and  C_11 
REMARK    3  A    between atoms: C_14  and  N_15 
REMARK    4  A    between atoms: N_15  and  C_16 
REMARK    5  A    between atoms: C_16  and  C_17 
REMARK    6  A    between atoms: C_17  and  C_18 
REMARK    7  A    between atoms: C_17  and  C_20 
REMARK    8  A    between atoms: C_18  and  O_19 
REMARK    9  A    between atoms: C_20  and  C_21 
REMARK   10  A    between atoms: C_26  and  N_27 
ROOT
ATOM      1  N   UNL d   1      19.905 -18.767  -0.961  0.00  0.00    -0.191 NA
ATOM      2  C   UNL d   1      21.011 -18.485  -0.780  0.00  0.00     0.099 C 
ATOM      3  C   UNL d   1      22.397 -18.152  -0.604  0.00  0.00     0.046 A 
ATOM      4  C   UNL d   1      23.092 -18.487   0.550  0.00  0.00     0.023 A 
ATOM      5  C   UNL d   1      24.459 -18.210   0.630  0.00  0.00     0.004 A 
ATOM      6  C   UNL d   1      25.134 -17.597  -0.445  0.00  0.00     0.029 A 
ATOM      7  C   UNL d   1      24.429 -17.225  -1.599  0.00  0.00     0.036 A 
ATOM      8  C   UNL d   1      23.062 -17.510  -1.645  0.00  0.00     0.052 A 
ENDROOT
BRANCH   7   9
ATOM      9  N   UNL d   1      25.086 -16.582  -2.688  0.00  0.00    -0.323 N 
ATOM     10  C   UNL d   1      25.641 -15.301  -2.621  0.00  0.00     0.256 C 
ATOM     11  O   UNL d   1      25.637 -14.539  -1.660  0.00  0.00    -0.267 OA
ATOM     12  H   UNL d   1      25.176 -17.113  -3.548  0.00  0.00     0.169 HD
BRANCH  10  13
ATOM     13  C   UNL d   1      26.280 -14.742  -3.826  0.00  0.00     0.034 A 
ATOM     14  C   UNL d   1      27.375 -15.388  -4.392  0.00  0.00     0.019 A 
ATOM     15  C   UNL d   1      28.141 -14.728  -5.360  0.00  0.00     0.032 A 
ATOM     16  C   UNL d   1      27.802 -13.436  -5.865  0.00  0.00     0.061 A 
ATOM     17  C   UNL d   1      26.699 -12.782  -5.236  0.00  0.00     0.130 A 
ATOM     18  C   UNL d   1      25.958 -13.462  -4.239  0.00  0.00     0.055 A 
BRANCH  16  19
ATOM     19  N   UNL d   1      28.704 -12.960  -6.835  0.00  0.00    -0.387 N 
ATOM     20  H   UNL d   1      29.666 -13.286  -6.700  0.00  0.00     0.159 HD
BRANCH  19  21
ATOM     21  C   UNL d   1      28.302 -12.958  -8.227  0.00  0.00     0.127 C 
BRANCH  21  22
ATOM     22  C   UNL d   1      28.781 -11.823  -9.102  0.00  0.00     0.033 C 
BRANCH  22  23
ATOM     23  C   UNL d   1      27.691 -10.763  -9.221  0.00  0.00     0.170 C 
BRANCH  23  24
ATOM     24  O   UNL d   1      27.495 -10.122  -7.964  0.00  0.00    -0.400 OA
ATOM     25  H   UNL d   1      26.845 -10.667  -7.484  0.00  0.00     0.209 HD
ENDBRANCH  23  24
ENDBRANCH  22  23
BRANCH  22  26
ATOM     26  C   UNL d   1      30.055 -11.248  -8.443  0.00  0.00     0.073 C 
BRANCH  26  27
ATOM     27  C   UNL d   1      31.153 -12.237  -8.440  0.00  0.00     0.053 A 
ATOM     28  C   UNL d   1      31.726 -12.953  -9.463  0.00  0.00     0.034 A 
ATOM     29  C   UNL d   1      32.639 -13.840  -8.856  0.00  0.00     0.027 A 
ATOM     30  C   UNL d   1      32.566 -13.603  -7.502  0.00  0.00     0.142 A 
ATOM     31  O   UNL d   1      31.660 -12.624  -7.238  0.00  0.00    -0.327 OA
ENDBRANCH  26  27
ENDBRANCH  22  26
ENDBRANCH  21  22
ENDBRANCH  19  21
ENDBRANCH  16  19
BRANCH  17  32
ATOM     32  N   UNL d   1      26.178 -11.390  -5.448  0.00  0.00    -0.113 N 
ATOM     33  O   UNL d   1      26.641 -10.409  -4.872  0.00  0.00    -0.532 OA
ATOM     34  O   UNL d   1      25.253 -11.257  -6.262  0.00  0.00    -0.532 OA
ENDBRANCH  17  32
ENDBRANCH  10  13
ENDBRANCH   7   9
TORSDOF 10
ENDMDL
