MODEL 1
REMARK VINA RESULT:   -30.323      0.000      0.000
REMARK INTER + INTRA:         -33.450
REMARK INTER:                 -32.411
REMARK INTRA:                  -1.040
REMARK CONF_INDEPENDENT:        2.088
REMARK UNBOUND:                -1.040
REMARK  7 active torsions:
REMARK  status: ('A' for Active; 'I' for Inactive)
REMARK    1  A    between atoms: O_2  and  C_3 
REMARK    2  A    between atoms: C_6  and  C_7 
REMARK       I    between atoms: C_7  and  N_9 
REMARK    3  A    between atoms: N_9  and  C_10 
REMARK    4  A    between atoms: C_10  and  N_12 
REMARK    5  A    between atoms: N_12  and  C_13 
REMARK    6  A    between atoms: C_16  and  C_17 
REMARK    7  A    between atoms: C_29  and  O_30 
ROOT
ATOM      1  N   UNL d   1      25.515 -16.203  -2.333  0.00  0.00    -0.333 N 
ATOM      2  H   UNL d   1      25.820 -16.699  -3.160  0.00  0.00     0.168 HD
ENDROOT
BRANCH   1   3
ATOM      3  C   UNL d   1      26.385 -15.246  -1.720  0.00  0.00     0.179 C 
ATOM      4  S   UNL d   1      27.300 -15.602  -0.338  0.00  0.00    -0.040 SA
BRANCH   3   5
ATOM      5  N   UNL d   1      26.464 -13.989  -2.385  0.00  0.00    -0.299 N 
ATOM      6  C   UNL d   1      25.816 -13.681  -3.622  0.00  0.00     0.257 C 
ATOM      7  O   UNL d   1      25.181 -14.486  -4.282  0.00  0.00    -0.267 OA
ATOM      8  H   UNL d   1      27.017 -13.268  -1.955  0.00  0.00     0.171 HD
BRANCH   6   9
ATOM      9  C   UNL d   1      25.910 -12.332  -4.270  0.00  0.00     0.035 A 
ATOM     10  C   UNL d   1      25.554 -11.203  -3.503  0.00  0.00     0.020 A 
ATOM     11  C   UNL d   1      25.482  -9.917  -4.069  0.00  0.00     0.040 A 
ATOM     12  C   UNL d   1      25.832  -9.694  -5.411  0.00  0.00     0.101 A 
ATOM     13  C   UNL d   1      26.283 -10.814  -6.150  0.00  0.00     0.102 A 
ATOM     14  C   UNL d   1      26.294 -12.113  -5.578  0.00  0.00     0.056 A 
BRANCH  12  15
ATOM     15  O   UNL d   1      25.905  -8.356  -5.731  0.00  0.00    -0.353 OA
ATOM     16  C   UNL d   1      27.106  -7.794  -6.266  0.00  0.00     0.210 C 
ENDBRANCH  12  15
BRANCH  13  17
ATOM     17  O   UNL d   1      26.823 -10.909  -7.410  0.00  0.00    -0.353 OA
ATOM     18  C   UNL d   1      28.020 -11.625  -7.501  0.00  0.00     0.210 C 
ENDBRANCH  13  17
ENDBRANCH   6   9
ENDBRANCH   3   5
ENDBRANCH   1   3
BRANCH   1  19
ATOM     19  C   UNL d   1      24.364 -16.768  -1.641  0.00  0.00     0.034 A 
ATOM     20  C   UNL d   1      23.174 -16.073  -1.357  0.00  0.00     0.030 A 
ATOM     21  C   UNL d   1      22.015 -16.742  -0.800  0.00  0.00     0.017 A 
ATOM     22  C   UNL d   1      22.016 -18.122  -0.557  0.00  0.00     0.010 A 
ATOM     23  C   UNL d   1      23.262 -18.755  -0.757  0.00  0.00     0.017 A 
ATOM     24  C   UNL d   1      24.401 -18.099  -1.245  0.00  0.00     0.030 A 
BRANCH  22  25
ATOM     25  C   UNL d   1      20.914 -19.026  -0.081  0.00  0.00     0.139 C 
ATOM     26  N   UNL d   1      19.903 -19.265  -0.896  0.00  0.00    -0.228 NA
ATOM     27  C   UNL d   1      19.051 -20.108  -0.270  0.00  0.00     0.086 C 
ATOM     28  C   UNL d   1      17.979 -20.789  -0.846  0.00  0.00     0.034 C 
ATOM     29  C   UNL d   1      19.370 -20.268   1.068  0.00  0.00     0.062 C 
ATOM     30  C   UNL d   1      17.120 -21.529  -0.046  0.00  0.00     0.002 C 
ATOM     31  C   UNL d   1      17.321 -21.554   1.333  0.00  0.00     0.002 C 
ATOM     32  C   UNL d   1      18.451 -20.927   1.932  0.00  0.00     0.032 C 
ATOM     33  N   UNL d   1      20.679 -19.744   1.105  0.00  0.00    -0.338 N 
ATOM     34  H   UNL d   1      21.402 -20.043   1.744  0.00  0.00     0.167 HD
ENDBRANCH  22  25
ENDBRANCH   1  19
TORSDOF 7
ENDMDL
MODEL 2
REMARK VINA RESULT:   -30.196      3.922      5.508
REMARK INTER + INTRA:         -33.402
REMARK INTER:                 -32.284
REMARK INTRA:                  -1.119
REMARK CONF_INDEPENDENT:        2.088
REMARK UNBOUND:                -1.119
REMARK  7 active torsions:
REMARK  status: ('A' for Active; 'I' for Inactive)
REMARK    1  A    between atoms: O_2  and  C_3 
REMARK    2  A    between atoms: C_6  and  C_7 
REMARK       I    between atoms: C_7  and  N_9 
REMARK    3  A    between atoms: N_9  and  C_10 
REMARK    4  A    between atoms: C_10  and  N_12 
REMARK    5  A    between atoms: N_12  and  C_13 
REMARK    6  A    between atoms: C_16  and  C_17 
REMARK    7  A    between atoms: C_29  and  O_30 
ROOT
ATOM      1  N   UNL d   1      25.467 -16.080  -2.307  0.00  0.00    -0.333 N 
ATOM      2  H   UNL d   1      26.282 -16.676  -2.381  0.00  0.00     0.168 HD
ENDROOT
BRANCH   1   3
ATOM      3  C   UNL d   1      25.597 -14.674  -2.534  0.00  0.00     0.179 C 
ATOM      4  S   UNL d   1      25.287 -13.962  -4.041  0.00  0.00    -0.040 SA
BRANCH   3   5
ATOM      5  N   UNL d   1      25.959 -13.907  -1.389  0.00  0.00    -0.299 N 
ATOM      6  C   UNL d   1      26.607 -14.436  -0.229  0.00  0.00     0.257 C 
ATOM      7  O   UNL d   1      26.857 -15.619  -0.061  0.00  0.00    -0.267 OA
ATOM      8  H   UNL d   1      25.742 -12.926  -1.396  0.00  0.00     0.171 HD
BRANCH   6   9
ATOM      9  C   UNL d   1      26.990 -13.582   0.943  0.00  0.00     0.035 A 
ATOM     10  C   UNL d   1      26.954 -12.182   0.780  0.00  0.00     0.020 A 
ATOM     11  C   UNL d   1      27.426 -11.309   1.778  0.00  0.00     0.040 A 
ATOM     12  C   UNL d   1      27.889 -11.797   3.010  0.00  0.00     0.101 A 
ATOM     13  C   UNL d   1      27.832 -13.199   3.206  0.00  0.00     0.102 A 
ATOM     14  C   UNL d   1      27.407 -14.067   2.167  0.00  0.00     0.056 A 
BRANCH  12  15
ATOM     15  O   UNL d   1      28.109 -10.800   3.934  0.00  0.00    -0.353 OA
ATOM     16  C   UNL d   1      28.222 -11.102   5.328  0.00  0.00     0.210 C 
ENDBRANCH  12  15
BRANCH  13  17
ATOM     17  O   UNL d   1      28.068 -13.967   4.321  0.00  0.00    -0.353 OA
ATOM     18  C   UNL d   1      29.334 -14.557   4.390  0.00  0.00     0.210 C 
ENDBRANCH  13  17
ENDBRANCH   6   9
ENDBRANCH   3   5
ENDBRANCH   1   3
BRANCH   1  19
ATOM     19  C   UNL d   1      24.316 -16.660  -1.627  0.00  0.00     0.034 A 
ATOM     20  C   UNL d   1      23.092 -16.000  -1.413  0.00  0.00     0.030 A 
ATOM     21  C   UNL d   1      21.941 -16.689  -0.863  0.00  0.00     0.017 A 
ATOM     22  C   UNL d   1      21.987 -18.056  -0.558  0.00  0.00     0.010 A 
ATOM     23  C   UNL d   1      23.261 -18.648  -0.690  0.00  0.00     0.017 A 
ATOM     24  C   UNL d   1      24.390 -17.970  -1.172  0.00  0.00     0.030 A 
BRANCH  22  25
ATOM     25  C   UNL d   1      20.904 -18.981  -0.078  0.00  0.00     0.139 C 
ATOM     26  N   UNL d   1      19.905 -19.255  -0.895  0.00  0.00    -0.228 NA
ATOM     27  C   UNL d   1      19.069 -20.110  -0.264  0.00  0.00     0.086 C 
ATOM     28  C   UNL d   1      18.018 -20.825  -0.837  0.00  0.00     0.034 C 
ATOM     29  C   UNL d   1      19.384 -20.245   1.078  0.00  0.00     0.062 C 
ATOM     30  C   UNL d   1      17.173 -21.576  -0.032  0.00  0.00     0.002 C 
ATOM     31  C   UNL d   1      17.365 -21.578   1.348  0.00  0.00     0.002 C 
ATOM     32  C   UNL d   1      18.476 -20.916   1.945  0.00  0.00     0.032 C 
ATOM     33  N   UNL d   1      20.679 -19.689   1.117  0.00  0.00    -0.338 N 
ATOM     34  H   UNL d   1      21.405 -19.961   1.764  0.00  0.00     0.167 HD
ENDBRANCH  22  25
ENDBRANCH   1  19
TORSDOF 7
ENDMDL
MODEL 3
REMARK VINA RESULT:   -30.181      3.869      5.482
REMARK INTER + INTRA:         -33.333
REMARK INTER:                 -32.269
REMARK INTRA:                  -1.064
REMARK CONF_INDEPENDENT:        2.088
REMARK UNBOUND:                -1.064
REMARK  7 active torsions:
REMARK  status: ('A' for Active; 'I' for Inactive)
REMARK    1  A    between atoms: O_2  and  C_3 
REMARK    2  A    between atoms: C_6  and  C_7 
REMARK       I    between atoms: C_7  and  N_9 
REMARK    3  A    between atoms: N_9  and  C_10 
REMARK    4  A    between atoms: C_10  and  N_12 
REMARK    5  A    between atoms: N_12  and  C_13 
REMARK    6  A    between atoms: C_16  and  C_17 
REMARK    7  A    between atoms: C_29  and  O_30 
ROOT
ATOM      1  N   UNL d   1      25.483 -16.080  -2.287  0.00  0.00    -0.333 N 
ATOM      2  H   UNL d   1      26.280 -16.695  -2.399  0.00  0.00     0.168 HD
ENDROOT
BRANCH   1   3
ATOM      3  C   UNL d   1      25.650 -14.669  -2.456  0.00  0.00     0.179 C 
ATOM      4  S   UNL d   1      25.316 -13.883  -3.920  0.00  0.00    -0.040 SA
BRANCH   3   5
ATOM      5  N   UNL d   1      26.070 -13.966  -1.291  0.00  0.00    -0.299 N 
ATOM      6  C   UNL d   1      26.575 -14.586  -0.105  0.00  0.00     0.257 C 
ATOM      7  O   UNL d   1      26.633 -15.792   0.067  0.00  0.00    -0.267 OA
ATOM      8  H   UNL d   1      26.005 -12.963  -1.303  0.00  0.00     0.171 HD
BRANCH   6   9
ATOM      9  C   UNL d   1      27.028 -13.799   1.088  0.00  0.00     0.035 A 
ATOM     10  C   UNL d   1      27.710 -14.485   2.114  0.00  0.00     0.020 A 
ATOM     11  C   UNL d   1      28.049 -13.857   3.326  0.00  0.00     0.040 A 
ATOM     12  C   UNL d   1      27.783 -12.494   3.537  0.00  0.00     0.101 A 
ATOM     13  C   UNL d   1      27.186 -11.785   2.466  0.00  0.00     0.102 A 
ATOM     14  C   UNL d   1      26.799 -12.449   1.273  0.00  0.00     0.056 A 
BRANCH  12  15
ATOM     15  O   UNL d   1      28.369 -12.004   4.683  0.00  0.00    -0.353 OA
ATOM     16  C   UNL d   1      28.129 -12.621   5.951  0.00  0.00     0.210 C 
ENDBRANCH  12  15
BRANCH  13  17
ATOM     17  O   UNL d   1      26.932 -10.445   2.298  0.00  0.00    -0.353 OA
ATOM     18  C   UNL d   1      28.004  -9.589   2.570  0.00  0.00     0.210 C 
ENDBRANCH  13  17
ENDBRANCH   6   9
ENDBRANCH   3   5
ENDBRANCH   1   3
BRANCH   1  19
ATOM     19  C   UNL d   1      24.326 -16.656  -1.614  0.00  0.00     0.034 A 
ATOM     20  C   UNL d   1      23.096 -15.999  -1.424  0.00  0.00     0.030 A 
ATOM     21  C   UNL d   1      21.942 -16.686  -0.880  0.00  0.00     0.017 A 
ATOM     22  C   UNL d   1      21.989 -18.049  -0.556  0.00  0.00     0.010 A 
ATOM     23  C   UNL d   1      23.268 -18.636  -0.664  0.00  0.00     0.017 A 
ATOM     24  C   UNL d   1      24.400 -17.959  -1.140  0.00  0.00     0.030 A 
BRANCH  22  25
ATOM     25  C   UNL d   1      20.905 -18.972  -0.077  0.00  0.00     0.139 C 
ATOM     26  N   UNL d   1      19.905 -19.243  -0.895  0.00  0.00    -0.228 NA
ATOM     27  C   UNL d   1      19.068 -20.097  -0.265  0.00  0.00     0.086 C 
ATOM     28  C   UNL d   1      18.015 -20.809  -0.839  0.00  0.00     0.034 C 
ATOM     29  C   UNL d   1      19.383 -20.236   1.076  0.00  0.00     0.062 C 
ATOM     30  C   UNL d   1      17.169 -21.560  -0.036  0.00  0.00     0.002 C 
ATOM     31  C   UNL d   1      17.361 -21.565   1.345  0.00  0.00     0.002 C 
ATOM     32  C   UNL d   1      18.474 -20.906   1.943  0.00  0.00     0.032 C 
ATOM     33  N   UNL d   1      20.679 -19.682   1.116  0.00  0.00    -0.338 N 
ATOM     34  H   UNL d   1      21.404 -19.957   1.762  0.00  0.00     0.167 HD
ENDBRANCH  22  25
ENDBRANCH   1  19
TORSDOF 7
ENDMDL
MODEL 4
REMARK VINA RESULT:   -30.177      2.452      3.332
REMARK INTER + INTRA:         -33.642
REMARK INTER:                 -32.265
REMARK INTRA:                  -1.377
REMARK CONF_INDEPENDENT:        2.088
REMARK UNBOUND:                -1.377
REMARK  7 active torsions:
REMARK  status: ('A' for Active; 'I' for Inactive)
REMARK    1  A    between atoms: O_2  and  C_3 
REMARK    2  A    between atoms: C_6  and  C_7 
REMARK       I    between atoms: C_7  and  N_9 
REMARK    3  A    between atoms: N_9  and  C_10 
REMARK    4  A    between atoms: C_10  and  N_12 
REMARK    5  A    between atoms: N_12  and  C_13 
REMARK    6  A    between atoms: C_16  and  C_17 
REMARK    7  A    between atoms: C_29  and  O_30 
ROOT
ATOM      1  N   UNL d   1      25.300 -15.689  -2.700  0.00  0.00    -0.333 N 
ATOM      2  H   UNL d   1      25.053 -15.419  -3.644  0.00  0.00     0.168 HD
ENDROOT
BRANCH   1   3
ATOM      3  C   UNL d   1      26.676 -15.733  -2.314  0.00  0.00     0.179 C 
ATOM      4  S   UNL d   1      27.181 -16.319  -0.805  0.00  0.00    -0.040 SA
BRANCH   3   5
ATOM      5  N   UNL d   1      27.597 -15.294  -3.308  0.00  0.00    -0.299 N 
ATOM      6  C   UNL d   1      27.302 -15.201  -4.704  0.00  0.00     0.257 C 
ATOM      7  O   UNL d   1      26.250 -15.557  -5.209  0.00  0.00    -0.267 OA
ATOM      8  H   UNL d   1      28.520 -15.033  -3.006  0.00  0.00     0.171 HD
BRANCH   6   9
ATOM      9  C   UNL d   1      28.300 -14.708  -5.709  0.00  0.00     0.035 A 
ATOM     10  C   UNL d   1      29.556 -15.347  -5.763  0.00  0.00     0.020 A 
ATOM     11  C   UNL d   1      30.597 -14.865  -6.577  0.00  0.00     0.040 A 
ATOM     12  C   UNL d   1      30.404 -13.763  -7.427  0.00  0.00     0.101 A 
ATOM     13  C   UNL d   1      29.111 -13.186  -7.442  0.00  0.00     0.102 A 
ATOM     14  C   UNL d   1      28.091 -13.650  -6.572  0.00  0.00     0.056 A 
BRANCH  12  15
ATOM     15  O   UNL d   1      31.454 -13.566  -8.297  0.00  0.00    -0.353 OA
ATOM     16  C   UNL d   1      32.296 -14.653  -8.688  0.00  0.00     0.210 C 
ENDBRANCH  12  15
BRANCH  13  17
ATOM     17  O   UNL d   1      28.564 -12.213  -8.244  0.00  0.00    -0.353 OA
ATOM     18  C   UNL d   1      28.961 -12.244  -9.585  0.00  0.00     0.210 C 
ENDBRANCH  13  17
ENDBRANCH   6   9
ENDBRANCH   3   5
ENDBRANCH   1   3
BRANCH   1  19
ATOM     19  C   UNL d   1      24.251 -16.350  -1.934  0.00  0.00     0.034 A 
ATOM     20  C   UNL d   1      23.120 -15.708  -1.398  0.00  0.00     0.030 A 
ATOM     21  C   UNL d   1      22.043 -16.453  -0.776  0.00  0.00     0.017 A 
ATOM     22  C   UNL d   1      22.064 -17.853  -0.718  0.00  0.00     0.010 A 
ATOM     23  C   UNL d   1      23.262 -18.445  -1.172  0.00  0.00     0.017 A 
ATOM     24  C   UNL d   1      24.329 -17.721  -1.725  0.00  0.00     0.030 A 
BRANCH  22  25
ATOM     25  C   UNL d   1      21.030 -18.820  -0.216  0.00  0.00     0.139 C 
ATOM     26  N   UNL d   1      19.905 -18.945  -0.895  0.00  0.00    -0.228 NA
ATOM     27  C   UNL d   1      19.141 -19.872  -0.274  0.00  0.00     0.086 C 
ATOM     28  C   UNL d   1      17.984 -20.469  -0.773  0.00  0.00     0.034 C 
ATOM     29  C   UNL d   1      19.653 -20.220   0.965  0.00  0.00     0.062 C 
ATOM     30  C   UNL d   1      17.241 -21.320   0.034  0.00  0.00     0.002 C 
ATOM     31  C   UNL d   1      17.644 -21.539   1.350  0.00  0.00     0.002 C 
ATOM     32  C   UNL d   1      18.862 -20.999   1.855  0.00  0.00     0.032 C 
ATOM     33  N   UNL d   1      20.962 -19.701   0.879  0.00  0.00    -0.338 N 
ATOM     34  H   UNL d   1      21.766 -20.084   1.354  0.00  0.00     0.167 HD
ENDBRANCH  22  25
ENDBRANCH   1  19
TORSDOF 7
ENDMDL
MODEL 5
REMARK VINA RESULT:   -30.164      2.667      3.523
REMARK INTER + INTRA:         -33.636
REMARK INTER:                 -32.252
REMARK INTRA:                  -1.384
REMARK CONF_INDEPENDENT:        2.088
REMARK UNBOUND:                -1.384
REMARK  7 active torsions:
REMARK  status: ('A' for Active; 'I' for Inactive)
REMARK    1  A    between atoms: O_2  and  C_3 
REMARK    2  A    between atoms: C_6  and  C_7 
REMARK       I    between atoms: C_7  and  N_9 
REMARK    3  A    between atoms: N_9  and  C_10 
REMARK    4  A    between atoms: C_10  and  N_12 
REMARK    5  A    between atoms: N_12  and  C_13 
REMARK    6  A    between atoms: C_16  and  C_17 
REMARK    7  A    between atoms: C_29  and  O_30 
ROOT
ATOM      1  N   UNL d   1      25.298 -16.107  -2.732  0.00  0.00    -0.333 N 
ATOM      2  H   UNL d   1      25.377 -16.451  -3.681  0.00  0.00     0.168 HD
ENDROOT
BRANCH   1   3
ATOM      3  C   UNL d   1      26.385 -15.381  -2.151  0.00  0.00     0.179 C 
ATOM      4  S   UNL d   1      26.462 -15.029  -0.495  0.00  0.00    -0.040 SA
BRANCH   3   5
ATOM      5  N   UNL d   1      27.423 -15.017  -3.057  0.00  0.00    -0.299 N 
ATOM      6  C   UNL d   1      27.328 -15.114  -4.481  0.00  0.00     0.257 C 
ATOM      7  O   UNL d   1      26.374 -15.588  -5.075  0.00  0.00    -0.267 OA
ATOM      8  H   UNL d   1      28.282 -14.671  -2.668  0.00  0.00     0.171 HD
BRANCH   6   9
ATOM      9  C   UNL d   1      28.441 -14.695  -5.394  0.00  0.00     0.035 A 
ATOM     10  C   UNL d   1      28.652 -13.315  -5.591  0.00  0.00     0.020 A 
ATOM     11  C   UNL d   1      29.581 -12.835  -6.533  0.00  0.00     0.040 A 
ATOM     12  C   UNL d   1      30.390 -13.716  -7.269  0.00  0.00     0.101 A 
ATOM     13  C   UNL d   1      30.244 -15.098  -6.997  0.00  0.00     0.102 A 
ATOM     14  C   UNL d   1      29.262 -15.565  -6.085  0.00  0.00     0.056 A 
BRANCH  12  15
ATOM     15  O   UNL d   1      31.378 -13.071  -7.979  0.00  0.00    -0.353 OA
ATOM     16  C   UNL d   1      32.261 -13.800  -8.836  0.00  0.00     0.210 C 
ENDBRANCH  12  15
BRANCH  13  17
ATOM     17  O   UNL d   1      30.965 -16.186  -7.426  0.00  0.00    -0.353 OA
ATOM     18  C   UNL d   1      30.743 -17.374  -6.722  0.00  0.00     0.210 C 
ENDBRANCH  13  17
ENDBRANCH   6   9
ENDBRANCH   3   5
ENDBRANCH   1   3
BRANCH   1  19
ATOM     19  C   UNL d   1      24.230 -16.691  -1.931  0.00  0.00     0.034 A 
ATOM     20  C   UNL d   1      23.157 -15.971  -1.373  0.00  0.00     0.030 A 
ATOM     21  C   UNL d   1      22.052 -16.640  -0.714  0.00  0.00     0.017 A 
ATOM     22  C   UNL d   1      21.985 -18.037  -0.641  0.00  0.00     0.010 A 
ATOM     23  C   UNL d   1      23.130 -18.709  -1.119  0.00  0.00     0.017 A 
ATOM     24  C   UNL d   1      24.225 -18.062  -1.709  0.00  0.00     0.030 A 
BRANCH  22  25
ATOM     25  C   UNL d   1      20.904 -18.931  -0.100  0.00  0.00     0.139 C 
ATOM     26  N   UNL d   1      19.905 -19.259  -0.897  0.00  0.00    -0.228 NA
ATOM     27  C   UNL d   1      19.071 -20.073  -0.210  0.00  0.00     0.086 C 
ATOM     28  C   UNL d   1      18.021 -20.825  -0.734  0.00  0.00     0.034 C 
ATOM     29  C   UNL d   1      19.388 -20.120   1.137  0.00  0.00     0.062 C 
ATOM     30  C   UNL d   1      17.178 -21.524   0.119  0.00  0.00     0.002 C 
ATOM     31  C   UNL d   1      17.371 -21.435   1.496  0.00  0.00     0.002 C 
ATOM     32  C   UNL d   1      18.482 -20.734   2.048  0.00  0.00     0.032 C 
ATOM     33  N   UNL d   1      20.682 -19.560   1.138  0.00  0.00    -0.338 N 
ATOM     34  H   UNL d   1      21.409 -19.788   1.801  0.00  0.00     0.167 HD
ENDBRANCH  22  25
ENDBRANCH   1  19
TORSDOF 7
ENDMDL
MODEL 6
REMARK VINA RESULT:   -30.130      1.101      2.263
REMARK INTER + INTRA:         -33.597
REMARK INTER:                 -32.218
REMARK INTRA:                  -1.379
REMARK CONF_INDEPENDENT:        2.088
REMARK UNBOUND:                -1.379
REMARK  7 active torsions:
REMARK  status: ('A' for Active; 'I' for Inactive)
REMARK    1  A    between atoms: O_2  and  C_3 
REMARK    2  A    between atoms: C_6  and  C_7 
REMARK       I    between atoms: C_7  and  N_9 
REMARK    3  A    between atoms: N_9  and  C_10 
REMARK    4  A    between atoms: C_10  and  N_12 
REMARK    5  A    between atoms: N_12  and  C_13 
REMARK    6  A    between atoms: C_16  and  C_17 
REMARK    7  A    between atoms: C_29  and  O_30 
ROOT
ATOM      1  N   UNL d   1      25.287 -16.013  -2.631  0.00  0.00    -0.333 N 
ATOM      2  H   UNL d   1      25.700 -16.598  -3.346  0.00  0.00     0.168 HD
ENDROOT
BRANCH   1   3
ATOM      3  C   UNL d   1      25.966 -14.826  -2.209  0.00  0.00     0.179 C 
ATOM      4  S   UNL d   1      26.287 -14.492  -0.578  0.00  0.00    -0.040 SA
BRANCH   3   5
ATOM      5  N   UNL d   1      26.396 -13.969  -3.262  0.00  0.00    -0.299 N 
ATOM      6  C   UNL d   1      26.748 -14.410  -4.576  0.00  0.00     0.257 C 
ATOM      7  O   UNL d   1      26.790 -15.580  -4.919  0.00  0.00    -0.267 OA
ATOM      8  H   UNL d   1      26.457 -12.985  -3.067  0.00  0.00     0.171 HD
BRANCH   6   9
ATOM      9  C   UNL d   1      27.172 -13.464  -5.659  0.00  0.00     0.035 A 
ATOM     10  C   UNL d   1      28.159 -13.897  -6.569  0.00  0.00     0.020 A 
ATOM     11  C   UNL d   1      28.712 -13.030  -7.528  0.00  0.00     0.040 A 
ATOM     12  C   UNL d   1      28.253 -11.711  -7.667  0.00  0.00     0.101 A 
ATOM     13  C   UNL d   1      27.193 -11.309  -6.817  0.00  0.00     0.102 A 
ATOM     14  C   UNL d   1      26.687 -12.180  -5.817  0.00  0.00     0.056 A 
BRANCH  12  15
ATOM     15  O   UNL d   1      28.754 -11.082  -8.785  0.00  0.00    -0.353 OA
ATOM     16  C   UNL d   1      28.887 -11.784 -10.024  0.00  0.00     0.210 C 
ENDBRANCH  12  15
BRANCH  13  17
ATOM     17  O   UNL d   1      26.436 -10.163  -6.794  0.00  0.00    -0.353 OA
ATOM     18  C   UNL d   1      25.982  -9.765  -5.532  0.00  0.00     0.210 C 
ENDBRANCH  13  17
ENDBRANCH   6   9
ENDBRANCH   3   5
ENDBRANCH   1   3
BRANCH   1  19
ATOM     19  C   UNL d   1      24.219 -16.623  -1.849  0.00  0.00     0.034 A 
ATOM     20  C   UNL d   1      23.137 -15.925  -1.282  0.00  0.00     0.030 A 
ATOM     21  C   UNL d   1      22.034 -16.617  -0.646  0.00  0.00     0.017 A 
ATOM     22  C   UNL d   1      21.978 -18.016  -0.603  0.00  0.00     0.010 A 
ATOM     23  C   UNL d   1      23.132 -18.668  -1.088  0.00  0.00     0.017 A 
ATOM     24  C   UNL d   1      24.225 -17.998  -1.657  0.00  0.00     0.030 A 
BRANCH  22  25
ATOM     25  C   UNL d   1      20.902 -18.930  -0.088  0.00  0.00     0.139 C 
ATOM     26  N   UNL d   1      19.905 -19.243  -0.895  0.00  0.00    -0.228 NA
ATOM     27  C   UNL d   1      19.075 -20.079  -0.232  0.00  0.00     0.086 C 
ATOM     28  C   UNL d   1      18.030 -20.823  -0.778  0.00  0.00     0.034 C 
ATOM     29  C   UNL d   1      19.390 -20.161   1.114  0.00  0.00     0.062 C 
ATOM     30  C   UNL d   1      17.190 -21.550   0.054  0.00  0.00     0.002 C 
ATOM     31  C   UNL d   1      17.381 -21.498   1.433  0.00  0.00     0.002 C 
ATOM     32  C   UNL d   1      18.487 -20.806   2.006  0.00  0.00     0.032 C 
ATOM     33  N   UNL d   1      20.681 -19.594   1.132  0.00  0.00    -0.338 N 
ATOM     34  H   UNL d   1      21.409 -19.836   1.789  0.00  0.00     0.167 HD
ENDBRANCH  22  25
ENDBRANCH   1  19
TORSDOF 7
ENDMDL
MODEL 7
REMARK VINA RESULT:   -30.046      3.289      4.381
REMARK INTER + INTRA:         -33.539
REMARK INTER:                 -32.135
REMARK INTRA:                  -1.404
REMARK CONF_INDEPENDENT:        2.088
REMARK UNBOUND:                -1.404
REMARK  7 active torsions:
REMARK  status: ('A' for Active; 'I' for Inactive)
REMARK    1  A    between atoms: O_2  and  C_3 
REMARK    2  A    between atoms: C_6  and  C_7 
REMARK       I    between atoms: C_7  and  N_9 
REMARK    3  A    between atoms: N_9  and  C_10 
REMARK    4  A    between atoms: C_10  and  N_12 
REMARK    5  A    between atoms: N_12  and  C_13 
REMARK    6  A    between atoms: C_16  and  C_17 
REMARK    7  A    between atoms: C_29  and  O_30 
ROOT
ATOM      1  N   UNL d   1      25.442 -16.025  -2.321  0.00  0.00    -0.333 N 
ATOM      2  H   UNL d   1      25.321 -15.842  -3.309  0.00  0.00     0.168 HD
ENDROOT
BRANCH   1   3
ATOM      3  C   UNL d   1      26.758 -16.037  -1.760  0.00  0.00     0.179 C 
ATOM      4  S   UNL d   1      27.035 -16.074  -0.088  0.00  0.00    -0.040 SA
BRANCH   3   5
ATOM      5  N   UNL d   1      27.820 -16.067  -2.709  0.00  0.00    -0.299 N 
ATOM      6  C   UNL d   1      27.727 -15.569  -4.047  0.00  0.00     0.257 C 
ATOM      7  O   UNL d   1      26.704 -15.131  -4.547  0.00  0.00    -0.267 OA
ATOM      8  H   UNL d   1      28.695 -16.467  -2.419  0.00  0.00     0.171 HD
BRANCH   6   9
ATOM      9  C   UNL d   1      28.882 -15.601  -5.002  0.00  0.00     0.035 A 
ATOM     10  C   UNL d   1      29.224 -14.405  -5.668  0.00  0.00     0.020 A 
ATOM     11  C   UNL d   1      30.202 -14.374  -6.678  0.00  0.00     0.040 A 
ATOM     12  C   UNL d   1      30.931 -15.525  -7.019  0.00  0.00     0.101 A 
ATOM     13  C   UNL d   1      30.653 -16.701  -6.280  0.00  0.00     0.102 A 
ATOM     14  C   UNL d   1      29.624 -16.726  -5.304  0.00  0.00     0.056 A 
BRANCH  12  15
ATOM     15  O   UNL d   1      31.982 -15.262  -7.870  0.00  0.00    -0.353 OA
ATOM     16  C   UNL d   1      32.700 -16.327  -8.499  0.00  0.00     0.210 C 
ENDBRANCH  12  15
BRANCH  13  17
ATOM     17  O   UNL d   1      31.272 -17.927  -6.266  0.00  0.00    -0.353 OA
ATOM     18  C   UNL d   1      30.419 -19.033  -6.191  0.00  0.00     0.210 C 
ENDBRANCH  13  17
ENDBRANCH   6   9
ENDBRANCH   3   5
ENDBRANCH   1   3
BRANCH   1  19
ATOM     19  C   UNL d   1      24.295 -16.610  -1.638  0.00  0.00     0.034 A 
ATOM     20  C   UNL d   1      23.067 -15.958  -1.426  0.00  0.00     0.030 A 
ATOM     21  C   UNL d   1      21.921 -16.653  -0.873  0.00  0.00     0.017 A 
ATOM     22  C   UNL d   1      21.976 -18.018  -0.562  0.00  0.00     0.010 A 
ATOM     23  C   UNL d   1      23.254 -18.602  -0.693  0.00  0.00     0.017 A 
ATOM     24  C   UNL d   1      24.379 -17.918  -1.178  0.00  0.00     0.030 A 
BRANCH  22  25
ATOM     25  C   UNL d   1      20.900 -18.949  -0.078  0.00  0.00     0.139 C 
ATOM     26  N   UNL d   1      19.905 -19.237  -0.895  0.00  0.00    -0.228 NA
ATOM     27  C   UNL d   1      19.075 -20.094  -0.260  0.00  0.00     0.086 C 
ATOM     28  C   UNL d   1      18.031 -20.822  -0.830  0.00  0.00     0.034 C 
ATOM     29  C   UNL d   1      19.388 -20.217   1.084  0.00  0.00     0.062 C 
ATOM     30  C   UNL d   1      17.190 -21.574  -0.022  0.00  0.00     0.002 C 
ATOM     31  C   UNL d   1      17.379 -21.565   1.359  0.00  0.00     0.002 C 
ATOM     32  C   UNL d   1      18.484 -20.890   1.954  0.00  0.00     0.032 C 
ATOM     33  N   UNL d   1      20.678 -19.650   1.121  0.00  0.00    -0.338 N 
ATOM     34  H   UNL d   1      21.405 -19.912   1.772  0.00  0.00     0.167 HD
ENDBRANCH  22  25
ENDBRANCH   1  19
TORSDOF 7
ENDMDL
MODEL 8
REMARK VINA RESULT:   -29.491      3.163      4.218
REMARK INTER + INTRA:         -32.906
REMARK INTER:                 -31.579
REMARK INTRA:                  -1.327
REMARK CONF_INDEPENDENT:        2.088
REMARK UNBOUND:                -1.327
REMARK  7 active torsions:
REMARK  status: ('A' for Active; 'I' for Inactive)
REMARK    1  A    between atoms: O_2  and  C_3 
REMARK    2  A    between atoms: C_6  and  C_7 
REMARK       I    between atoms: C_7  and  N_9 
REMARK    3  A    between atoms: N_9  and  C_10 
REMARK    4  A    between atoms: C_10  and  N_12 
REMARK    5  A    between atoms: N_12  and  C_13 
REMARK    6  A    between atoms: C_16  and  C_17 
REMARK    7  A    between atoms: C_29  and  O_30 
ROOT
ATOM      1  N   UNL d   1      25.385 -15.470  -2.252  0.00  0.00    -0.333 N 
ATOM      2  H   UNL d   1      26.186 -15.284  -1.662  0.00  0.00     0.168 HD
ENDROOT
BRANCH   1   3
ATOM      3  C   UNL d   1      25.251 -14.784  -3.500  0.00  0.00     0.179 C 
ATOM      4  S   UNL d   1      23.938 -13.768  -3.844  0.00  0.00    -0.040 SA
BRANCH   3   5
ATOM      5  N   UNL d   1      26.326 -14.977  -4.415  0.00  0.00    -0.299 N 
ATOM      6  C   UNL d   1      27.669 -15.291  -4.035  0.00  0.00     0.257 C 
ATOM      7  O   UNL d   1      28.059 -15.356  -2.881  0.00  0.00    -0.267 OA
ATOM      8  H   UNL d   1      26.126 -14.885  -5.395  0.00  0.00     0.171 HD
BRANCH   6   9
ATOM      9  C   UNL d   1      28.761 -15.510  -5.039  0.00  0.00     0.035 A 
ATOM     10  C   UNL d   1      29.429 -16.753  -5.031  0.00  0.00     0.020 A 
ATOM     11  C   UNL d   1      30.552 -16.994  -5.843  0.00  0.00     0.040 A 
ATOM     12  C   UNL d   1      31.015 -16.027  -6.749  0.00  0.00     0.101 A 
ATOM     13  C   UNL d   1      30.282 -14.817  -6.824  0.00  0.00     0.102 A 
ATOM     14  C   UNL d   1      29.186 -14.570  -5.957  0.00  0.00     0.056 A 
BRANCH  12  15
ATOM     15  O   UNL d   1      31.982 -16.510  -7.602  0.00  0.00    -0.353 OA
ATOM     16  C   UNL d   1      33.119 -15.714  -7.948  0.00  0.00     0.210 C 
ENDBRANCH  12  15
BRANCH  13  17
ATOM     17  O   UNL d   1      30.381 -13.751  -7.686  0.00  0.00    -0.353 OA
ATOM     18  C   UNL d   1      29.282 -12.886  -7.702  0.00  0.00     0.210 C 
ENDBRANCH  13  17
ENDBRANCH   6   9
ENDBRANCH   3   5
ENDBRANCH   1   3
BRANCH   1  19
ATOM     19  C   UNL d   1      24.268 -16.151  -1.610  0.00  0.00     0.034 A 
ATOM     20  C   UNL d   1      22.994 -15.590  -1.404  0.00  0.00     0.030 A 
ATOM     21  C   UNL d   1      21.889 -16.376  -0.894  0.00  0.00     0.017 A 
ATOM     22  C   UNL d   1      22.031 -17.743  -0.622  0.00  0.00     0.010 A 
ATOM     23  C   UNL d   1      23.348 -18.236  -0.742  0.00  0.00     0.017 A 
ATOM     24  C   UNL d   1      24.432 -17.463  -1.184  0.00  0.00     0.030 A 
BRANCH  22  25
ATOM     25  C   UNL d   1      21.012 -18.758  -0.185  0.00  0.00     0.139 C 
ATOM     26  N   UNL d   1      19.906 -18.882  -0.895  0.00  0.00    -0.228 NA
ATOM     27  C   UNL d   1      19.153 -19.854  -0.333  0.00  0.00     0.086 C 
ATOM     28  C   UNL d   1      18.023 -20.458  -0.883  0.00  0.00     0.034 C 
ATOM     29  C   UNL d   1      19.648 -20.243   0.901  0.00  0.00     0.062 C 
ATOM     30  C   UNL d   1      17.287 -21.362  -0.131  0.00  0.00     0.002 C 
ATOM     31  C   UNL d   1      17.667 -21.630   1.183  0.00  0.00     0.002 C 
ATOM     32  C   UNL d   1      18.859 -21.082   1.738  0.00  0.00     0.032 C 
ATOM     33  N   UNL d   1      20.944 -19.688   0.868  0.00  0.00    -0.338 N 
ATOM     34  H   UNL d   1      21.748 -20.071   1.344  0.00  0.00     0.167 HD
ENDBRANCH  22  25
ENDBRANCH   1  19
TORSDOF 7
ENDMDL
MODEL 9
REMARK VINA RESULT:   -28.703      4.238      6.269
REMARK INTER + INTRA:         -31.557
REMARK INTER:                 -30.791
REMARK INTRA:                  -0.767
REMARK CONF_INDEPENDENT:        2.088
REMARK UNBOUND:                -0.767
REMARK  7 active torsions:
REMARK  status: ('A' for Active; 'I' for Inactive)
REMARK    1  A    between atoms: O_2  and  C_3 
REMARK    2  A    between atoms: C_6  and  C_7 
REMARK       I    between atoms: C_7  and  N_9 
REMARK    3  A    between atoms: N_9  and  C_10 
REMARK    4  A    between atoms: C_10  and  N_12 
REMARK    5  A    between atoms: N_12  and  C_13 
REMARK    6  A    between atoms: C_16  and  C_17 
REMARK    7  A    between atoms: C_29  and  O_30 
ROOT
ATOM      1  N   UNL d   1      24.930 -15.114  -1.832  0.00  0.00    -0.333 N 
ATOM      2  H   UNL d   1      24.568 -14.300  -2.313  0.00  0.00     0.168 HD
ENDROOT
BRANCH   1   3
ATOM      3  C   UNL d   1      26.344 -15.320  -1.757  0.00  0.00     0.179 C 
ATOM      4  S   UNL d   1      27.297 -15.600  -3.130  0.00  0.00    -0.040 SA
BRANCH   3   5
ATOM      5  N   UNL d   1      26.900 -15.224  -0.449  0.00  0.00    -0.299 N 
ATOM      6  C   UNL d   1      28.196 -14.693  -0.154  0.00  0.00     0.257 C 
ATOM      7  O   UNL d   1      28.998 -14.331  -0.999  0.00  0.00    -0.267 OA
ATOM      8  H   UNL d   1      26.344 -15.554   0.320  0.00  0.00     0.171 HD
BRANCH   6   9
ATOM      9  C   UNL d   1      28.727 -14.591   1.244  0.00  0.00     0.035 A 
ATOM     10  C   UNL d   1      27.798 -14.574   2.306  0.00  0.00     0.020 A 
ATOM     11  C   UNL d   1      28.198 -14.343   3.635  0.00  0.00     0.040 A 
ATOM     12  C   UNL d   1      29.553 -14.190   3.969  0.00  0.00     0.101 A 
ATOM     13  C   UNL d   1      30.491 -14.306   2.914  0.00  0.00     0.102 A 
ATOM     14  C   UNL d   1      30.064 -14.481   1.572  0.00  0.00     0.056 A 
BRANCH  12  15
ATOM     15  O   UNL d   1      29.773 -14.185   5.329  0.00  0.00    -0.353 OA
ATOM     16  C   UNL d   1      28.679 -14.224   6.249  0.00  0.00     0.210 C 
ENDBRANCH  12  15
BRANCH  13  17
ATOM     17  O   UNL d   1      31.864 -14.348   2.924  0.00  0.00    -0.353 OA
ATOM     18  C   UNL d   1      32.433 -15.556   2.508  0.00  0.00     0.210 C 
ENDBRANCH  13  17
ENDBRANCH   6   9
ENDBRANCH   3   5
ENDBRANCH   1   3
BRANCH   1  19
ATOM     19  C   UNL d   1      23.970 -16.178  -1.573  0.00  0.00     0.034 A 
ATOM     20  C   UNL d   1      24.269 -17.554  -1.588  0.00  0.00     0.030 A 
ATOM     21  C   UNL d   1      23.299 -18.549  -1.175  0.00  0.00     0.017 A 
ATOM     22  C   UNL d   1      22.033 -18.181  -0.702  0.00  0.00     0.010 A 
ATOM     23  C   UNL d   1      21.742 -16.803  -0.804  0.00  0.00     0.017 A 
ATOM     24  C   UNL d   1      22.660 -15.843  -1.255  0.00  0.00     0.030 A 
BRANCH  22  25
ATOM     25  C   UNL d   1      20.923 -19.023  -0.140  0.00  0.00     0.139 C 
ATOM     26  N   UNL d   1      19.905 -19.325  -0.924  0.00  0.00    -0.228 NA
ATOM     27  C   UNL d   1      19.046 -20.095  -0.219  0.00  0.00     0.086 C 
ATOM     28  C   UNL d   1      17.963 -20.814  -0.724  0.00  0.00     0.034 C 
ATOM     29  C   UNL d   1      19.370 -20.133   1.127  0.00  0.00     0.062 C 
ATOM     30  C   UNL d   1      17.100 -21.466   0.145  0.00  0.00     0.002 C 
ATOM     31  C   UNL d   1      17.307 -21.364   1.520  0.00  0.00     0.002 C 
ATOM     32  C   UNL d   1      18.448 -20.698   2.053  0.00  0.00     0.032 C 
ATOM     33  N   UNL d   1      20.685 -19.624   1.110  0.00  0.00    -0.338 N 
ATOM     34  H   UNL d   1      21.408 -19.870   1.771  0.00  0.00     0.167 HD
ENDBRANCH  22  25
ENDBRANCH   1  19
TORSDOF 7
ENDMDL
