MODEL 1
REMARK VINA RESULT:    -7.910      0.000      0.000
REMARK INTER + INTRA:          -9.328
REMARK INTER:                  -9.103
REMARK INTRA:                  -0.225
REMARK CONF_INDEPENDENT:        1.193
REMARK UNBOUND:                -0.225
REMARK  4 active torsions:
REMARK  status: ('A' for Active; 'I' for Inactive)
REMARK       I    between atoms: C_2  and  N_3 
REMARK    1  A    between atoms: C_2  and  C_15 
REMARK    2  A    between atoms: N_3  and  C_4 
REMARK    3  A    between atoms: C_4  and  N_6 
REMARK    4  A    between atoms: N_6  and  C_7 
ROOT
ATOM      1  C   UNL d   1      23.209 -17.447  -0.381  0.00  0.00     0.179 C 
ATOM      2  S   UNL d   1      23.130 -15.953  -1.179  0.00  0.00    -0.040 SA
ENDROOT
BRANCH   1   3
ATOM      3  N   UNL d   1      22.073 -18.046   0.218  0.00  0.00    -0.299 N 
ATOM      4  C   UNL d   1      21.232 -18.987  -0.415  0.00  0.00     0.257 C 
ATOM      5  O   UNL d   1      21.287 -19.320  -1.604  0.00  0.00    -0.267 OA
ATOM      6  H   UNL d   1      21.915 -17.890   1.205  0.00  0.00     0.171 HD
BRANCH   4   7
ATOM      7  C   UNL d   1      20.177 -19.696   0.338  0.00  0.00     0.032 A 
ATOM      8  C   UNL d   1      20.148 -19.759   1.730  0.00  0.00     0.017 A 
ATOM      9  C   UNL d   1      19.100 -20.444   2.361  0.00  0.00     0.001 A 
ATOM     10  C   UNL d   1      18.044 -20.983   1.617  0.00  0.00     0.000 A 
ATOM     11  C   UNL d   1      18.032 -20.854   0.233  0.00  0.00     0.001 A 
ATOM     12  C   UNL d   1      19.092 -20.211  -0.403  0.00  0.00     0.017 A 
ENDBRANCH   4   7
ENDBRANCH   1   3
BRANCH   1  13
ATOM     13  N   UNL d   1      24.410 -18.202  -0.281  0.00  0.00    -0.331 N 
ATOM     14  H   UNL d   1      24.365 -19.211  -0.391  0.00  0.00     0.168 HD
BRANCH  13  15
ATOM     15  C   UNL d   1      25.713 -17.626  -0.551  0.00  0.00     0.073 A 
ATOM     16  C   UNL d   1      25.892 -16.790  -1.666  0.00  0.00     0.036 A 
ATOM     17  C   UNL d   1      27.152 -16.323  -2.044  0.00  0.00     0.044 A 
ATOM     18  C   UNL d   1      28.254 -16.634  -1.265  0.00  0.00     0.119 A 
ATOM     19  F   UNL d   1      29.460 -16.169  -1.621  0.00  0.00    -0.206 F 
ATOM     20  C   UNL d   1      28.114 -17.408  -0.119  0.00  0.00     0.086 A 
ATOM     21  C   UNL d   1      26.844 -17.890   0.240  0.00  0.00     0.145 A 
ATOM     22  F   UNL d   1      26.746 -18.677   1.323  0.00  0.00    -0.204 F 
ENDBRANCH  13  15
ENDBRANCH   1  13
TORSDOF 4
ENDMDL
MODEL 2
REMARK VINA RESULT:    -7.359      2.319      2.932
REMARK INTER + INTRA:          -9.507
REMARK INTER:                  -8.553
REMARK INTRA:                  -0.954
REMARK CONF_INDEPENDENT:        1.193
REMARK UNBOUND:                -0.954
REMARK  4 active torsions:
REMARK  status: ('A' for Active; 'I' for Inactive)
REMARK       I    between atoms: C_2  and  N_3 
REMARK    1  A    between atoms: C_2  and  C_15 
REMARK    2  A    between atoms: N_3  and  C_4 
REMARK    3  A    between atoms: C_4  and  N_6 
REMARK    4  A    between atoms: N_6  and  C_7 
ROOT
ATOM      1  C   UNL d   1      24.441 -18.158  -0.488  0.00  0.00     0.179 C 
ATOM      2  S   UNL d   1      25.955 -18.308   0.262  0.00  0.00    -0.040 SA
ENDROOT
BRANCH   1   3
ATOM      3  N   UNL d   1      23.270 -18.748   0.048  0.00  0.00    -0.299 N 
ATOM      4  C   UNL d   1      21.954 -18.329  -0.242  0.00  0.00     0.257 C 
ATOM      5  O   UNL d   1      21.641 -17.324  -0.890  0.00  0.00    -0.267 OA
ATOM      6  H   UNL d   1      23.366 -19.604   0.579  0.00  0.00     0.171 HD
BRANCH   4   7
ATOM      7  C   UNL d   1      20.785 -19.109   0.216  0.00  0.00     0.032 A 
ATOM      8  C   UNL d   1      19.900 -19.737  -0.659  0.00  0.00     0.017 A 
ATOM      9  C   UNL d   1      18.825 -20.467  -0.135  0.00  0.00     0.001 A 
ATOM     10  C   UNL d   1      18.684 -20.647   1.246  0.00  0.00     0.000 A 
ATOM     11  C   UNL d   1      19.610 -20.085   2.118  0.00  0.00     0.001 A 
ATOM     12  C   UNL d   1      20.657 -19.323   1.604  0.00  0.00     0.017 A 
ENDBRANCH   4   7
ENDBRANCH   1   3
BRANCH   1  13
ATOM     13  N   UNL d   1      24.248 -17.417  -1.686  0.00  0.00    -0.331 N 
ATOM     14  H   UNL d   1      23.323 -17.398  -2.106  0.00  0.00     0.168 HD
BRANCH  13  15
ATOM     15  C   UNL d   1      25.097 -16.300  -2.053  0.00  0.00     0.073 A 
ATOM     16  C   UNL d   1      26.494 -16.449  -2.044  0.00  0.00     0.036 A 
ATOM     17  C   UNL d   1      27.352 -15.370  -2.258  0.00  0.00     0.044 A 
ATOM     18  C   UNL d   1      26.820 -14.125  -2.552  0.00  0.00     0.119 A 
ATOM     19  F   UNL d   1      27.649 -13.095  -2.775  0.00  0.00    -0.206 F 
ATOM     20  C   UNL d   1      25.444 -13.946  -2.632  0.00  0.00     0.086 A 
ATOM     21  C   UNL d   1      24.589 -15.035  -2.395  0.00  0.00     0.145 A 
ATOM     22  F   UNL d   1      23.264 -14.821  -2.428  0.00  0.00    -0.204 F 
ENDBRANCH  13  15
ENDBRANCH   1  13
TORSDOF 4
ENDMDL
MODEL 3
REMARK VINA RESULT:    -7.064      1.979      2.420
REMARK INTER + INTRA:          -9.247
REMARK INTER:                  -8.257
REMARK INTRA:                  -0.990
REMARK CONF_INDEPENDENT:        1.193
REMARK UNBOUND:                -0.990
REMARK  4 active torsions:
REMARK  status: ('A' for Active; 'I' for Inactive)
REMARK       I    between atoms: C_2  and  N_3 
REMARK    1  A    between atoms: C_2  and  C_15 
REMARK    2  A    between atoms: N_3  and  C_4 
REMARK    3  A    between atoms: C_4  and  N_6 
REMARK    4  A    between atoms: N_6  and  C_7 
ROOT
ATOM      1  C   UNL d   1      24.425 -18.089  -0.565  0.00  0.00     0.179 C 
ATOM      2  S   UNL d   1      25.948 -18.434   0.095  0.00  0.00    -0.040 SA
ENDROOT
BRANCH   1   3
ATOM      3  N   UNL d   1      23.241 -18.719  -0.108  0.00  0.00    -0.299 N 
ATOM      4  C   UNL d   1      21.942 -18.182  -0.237  0.00  0.00     0.257 C 
ATOM      5  O   UNL d   1      21.667 -17.047  -0.642  0.00  0.00    -0.267 OA
ATOM      6  H   UNL d   1      23.305 -19.673   0.225  0.00  0.00     0.171 HD
BRANCH   4   7
ATOM      7  C   UNL d   1      20.747 -18.981   0.104  0.00  0.00     0.032 A 
ATOM      8  C   UNL d   1      19.874 -19.489  -0.855  0.00  0.00     0.017 A 
ATOM      9  C   UNL d   1      18.771 -20.248  -0.441  0.00  0.00     0.001 A 
ATOM     10  C   UNL d   1      18.590 -20.575   0.908  0.00  0.00     0.000 A 
ATOM     11  C   UNL d   1      19.504 -20.133   1.859  0.00  0.00     0.001 A 
ATOM     12  C   UNL d   1      20.579 -19.342   1.457  0.00  0.00     0.017 A 
ENDBRANCH   4   7
ENDBRANCH   1   3
BRANCH   1  13
ATOM     13  N   UNL d   1      24.236 -17.134  -1.602  0.00  0.00    -0.331 N 
ATOM     14  H   UNL d   1      23.292 -16.827  -1.818  0.00  0.00     0.168 HD
BRANCH  13  15
ATOM     15  C   UNL d   1      25.276 -16.206  -2.001  0.00  0.00     0.073 A 
ATOM     16  C   UNL d   1      25.561 -16.017  -3.364  0.00  0.00     0.036 A 
ATOM     17  C   UNL d   1      26.640 -15.240  -3.791  0.00  0.00     0.044 A 
ATOM     18  C   UNL d   1      27.417 -14.581  -2.853  0.00  0.00     0.119 A 
ATOM     19  F   UNL d   1      28.440 -13.821  -3.268  0.00  0.00    -0.206 F 
ATOM     20  C   UNL d   1      27.133 -14.691  -1.497  0.00  0.00     0.086 A 
ATOM     21  C   UNL d   1      26.058 -15.492  -1.077  0.00  0.00     0.145 A 
ATOM     22  F   UNL d   1      25.838 -15.621   0.241  0.00  0.00    -0.204 F 
ENDBRANCH  13  15
ENDBRANCH   1  13
TORSDOF 4
ENDMDL
MODEL 4
REMARK VINA RESULT:    -6.227      4.760      7.905
REMARK INTER + INTRA:          -8.059
REMARK INTER:                  -7.420
REMARK INTRA:                  -0.639
REMARK CONF_INDEPENDENT:        1.193
REMARK UNBOUND:                -0.639
REMARK  4 active torsions:
REMARK  status: ('A' for Active; 'I' for Inactive)
REMARK       I    between atoms: C_2  and  N_3 
REMARK    1  A    between atoms: C_2  and  C_15 
REMARK    2  A    between atoms: N_3  and  C_4 
REMARK    3  A    between atoms: C_4  and  N_6 
REMARK    4  A    between atoms: N_6  and  C_7 
ROOT
ATOM      1  C   UNL d   1      28.549 -15.662   0.176  0.00  0.00     0.179 C 
ATOM      2  S   UNL d   1      28.908 -14.718  -1.187  0.00  0.00    -0.040 SA
ENDROOT
BRANCH   1   3
ATOM      3  N   UNL d   1      28.713 -15.176   1.497  0.00  0.00    -0.299 N 
ATOM      4  C   UNL d   1      27.815 -14.305   2.151  0.00  0.00     0.257 C 
ATOM      5  O   UNL d   1      26.842 -13.747   1.632  0.00  0.00    -0.267 OA
ATOM      6  H   UNL d   1      29.456 -15.568   2.062  0.00  0.00     0.171 HD
BRANCH   4   7
ATOM      7  C   UNL d   1      27.967 -13.990   3.587  0.00  0.00     0.032 A 
ATOM      8  C   UNL d   1      28.403 -14.920   4.528  0.00  0.00     0.017 A 
ATOM      9  C   UNL d   1      28.530 -14.529   5.868  0.00  0.00     0.001 A 
ATOM     10  C   UNL d   1      28.310 -13.201   6.252  0.00  0.00     0.000 A 
ATOM     11  C   UNL d   1      27.948 -12.254   5.301  0.00  0.00     0.001 A 
ATOM     12  C   UNL d   1      27.780 -12.646   3.974  0.00  0.00     0.017 A 
ENDBRANCH   4   7
ENDBRANCH   1   3
BRANCH   1  13
ATOM     13  N   UNL d   1      28.043 -16.987   0.081  0.00  0.00    -0.331 N 
ATOM     14  H   UNL d   1      28.521 -17.731   0.581  0.00  0.00     0.168 HD
BRANCH  13  15
ATOM     15  C   UNL d   1      26.653 -17.267  -0.226  0.00  0.00     0.073 A 
ATOM     16  C   UNL d   1      26.067 -16.720  -1.379  0.00  0.00     0.036 A 
ATOM     17  C   UNL d   1      24.702 -16.849  -1.644  0.00  0.00     0.044 A 
ATOM     18  C   UNL d   1      23.909 -17.590  -0.785  0.00  0.00     0.119 A 
ATOM     19  F   UNL d   1      22.603 -17.727  -1.052  0.00  0.00    -0.206 F 
ATOM     20  C   UNL d   1      24.460 -18.200   0.337  0.00  0.00     0.086 A 
ATOM     21  C   UNL d   1      25.831 -18.046   0.605  0.00  0.00     0.145 A 
ATOM     22  F   UNL d   1      26.325 -18.603   1.722  0.00  0.00    -0.204 F 
ENDBRANCH  13  15
ENDBRANCH   1  13
TORSDOF 4
ENDMDL
MODEL 5
REMARK VINA RESULT:    -6.224      1.742      2.358
REMARK INTER + INTRA:          -8.450
REMARK INTER:                  -7.417
REMARK INTRA:                  -1.033
REMARK CONF_INDEPENDENT:        1.193
REMARK UNBOUND:                -1.033
REMARK  4 active torsions:
REMARK  status: ('A' for Active; 'I' for Inactive)
REMARK       I    between atoms: C_2  and  N_3 
REMARK    1  A    between atoms: C_2  and  C_15 
REMARK    2  A    between atoms: N_3  and  C_4 
REMARK    3  A    between atoms: C_4  and  N_6 
REMARK    4  A    between atoms: N_6  and  C_7 
ROOT
ATOM      1  C   UNL d   1      24.098 -16.392  -1.127  0.00  0.00     0.179 C 
ATOM      2  S   UNL d   1      24.410 -15.246  -2.337  0.00  0.00    -0.040 SA
ENDROOT
BRANCH   1   3
ATOM      3  N   UNL d   1      22.855 -17.066  -1.024  0.00  0.00    -0.299 N 
ATOM      4  C   UNL d   1      22.683 -18.355  -0.476  0.00  0.00     0.257 C 
ATOM      5  O   UNL d   1      23.589 -19.122  -0.132  0.00  0.00    -0.267 OA
ATOM      6  H   UNL d   1      22.013 -16.551  -1.243  0.00  0.00     0.171 HD
BRANCH   4   7
ATOM      7  C   UNL d   1      21.334 -18.911  -0.243  0.00  0.00     0.032 A 
ATOM      8  C   UNL d   1      20.425 -19.158  -1.270  0.00  0.00     0.017 A 
ATOM      9  C   UNL d   1      19.171 -19.700  -0.958  0.00  0.00     0.001 A 
ATOM     10  C   UNL d   1      18.858 -20.076   0.354  0.00  0.00     0.000 A 
ATOM     11  C   UNL d   1      19.792 -19.902   1.369  0.00  0.00     0.001 A 
ATOM     12  C   UNL d   1      21.025 -19.325   1.070  0.00  0.00     0.017 A 
ENDBRANCH   4   7
ENDBRANCH   1   3
BRANCH   1  13
ATOM     13  N   UNL d   1      25.066 -16.764  -0.154  0.00  0.00    -0.331 N 
ATOM     14  H   UNL d   1      24.815 -17.454   0.548  0.00  0.00     0.168 HD
BRANCH  13  15
ATOM     15  C   UNL d   1      26.491 -16.641  -0.391  0.00  0.00     0.073 A 
ATOM     16  C   UNL d   1      27.297 -17.791  -0.429  0.00  0.00     0.036 A 
ATOM     17  C   UNL d   1      28.688 -17.714  -0.519  0.00  0.00     0.044 A 
ATOM     18  C   UNL d   1      29.295 -16.475  -0.639  0.00  0.00     0.119 A 
ATOM     19  F   UNL d   1      30.629 -16.407  -0.743  0.00  0.00    -0.206 F 
ATOM     20  C   UNL d   1      28.531 -15.314  -0.667  0.00  0.00     0.086 A 
ATOM     21  C   UNL d   1      27.133 -15.402  -0.555  0.00  0.00     0.145 A 
ATOM     22  F   UNL d   1      26.425 -14.262  -0.534  0.00  0.00    -0.204 F 
ENDBRANCH  13  15
ENDBRANCH   1  13
TORSDOF 4
ENDMDL
MODEL 6
REMARK VINA RESULT:    -6.154      4.741      7.983
REMARK INTER + INTRA:          -7.965
REMARK INTER:                  -7.347
REMARK INTRA:                  -0.618
REMARK CONF_INDEPENDENT:        1.193
REMARK UNBOUND:                -0.618
REMARK  4 active torsions:
REMARK  status: ('A' for Active; 'I' for Inactive)
REMARK       I    between atoms: C_2  and  N_3 
REMARK    1  A    between atoms: C_2  and  C_15 
REMARK    2  A    between atoms: N_3  and  C_4 
REMARK    3  A    between atoms: C_4  and  N_6 
REMARK    4  A    between atoms: N_6  and  C_7 
ROOT
ATOM      1  C   UNL d   1      28.574 -15.815   0.059  0.00  0.00     0.179 C 
ATOM      2  S   UNL d   1      29.160 -15.054  -1.338  0.00  0.00    -0.040 SA
ENDROOT
BRANCH   1   3
ATOM      3  N   UNL d   1      28.693 -15.232   1.345  0.00  0.00    -0.299 N 
ATOM      4  C   UNL d   1      27.745 -14.363   1.926  0.00  0.00     0.257 C 
ATOM      5  O   UNL d   1      26.755 -13.889   1.357  0.00  0.00    -0.267 OA
ATOM      6  H   UNL d   1      29.444 -15.548   1.945  0.00  0.00     0.171 HD
BRANCH   4   7
ATOM      7  C   UNL d   1      27.858 -13.942   3.338  0.00  0.00     0.032 A 
ATOM      8  C   UNL d   1      28.155 -14.827   4.373  0.00  0.00     0.017 A 
ATOM      9  C   UNL d   1      28.256 -14.338   5.682  0.00  0.00     0.001 A 
ATOM     10  C   UNL d   1      28.150 -12.967   5.947  0.00  0.00     0.000 A 
ATOM     11  C   UNL d   1      27.930 -12.073   4.904  0.00  0.00     0.001 A 
ATOM     12  C   UNL d   1      27.787 -12.560   3.606  0.00  0.00     0.017 A 
ENDBRANCH   4   7
ENDBRANCH   1   3
BRANCH   1  13
ATOM     13  N   UNL d   1      27.908 -17.071   0.028  0.00  0.00    -0.331 N 
ATOM     14  H   UNL d   1      28.332 -17.862   0.503  0.00  0.00     0.168 HD
BRANCH  13  15
ATOM     15  C   UNL d   1      26.475 -17.185  -0.166  0.00  0.00     0.073 A 
ATOM     16  C   UNL d   1      25.759 -18.201   0.489  0.00  0.00     0.036 A 
ATOM     17  C   UNL d   1      24.407 -18.434   0.230  0.00  0.00     0.044 A 
ATOM     18  C   UNL d   1      23.729 -17.605  -0.648  0.00  0.00     0.119 A 
ATOM     19  F   UNL d   1      22.427 -17.822  -0.881  0.00  0.00    -0.206 F 
ATOM     20  C   UNL d   1      24.384 -16.550  -1.272  0.00  0.00     0.086 A 
ATOM     21  C   UNL d   1      25.750 -16.337  -1.020  0.00  0.00     0.145 A 
ATOM     22  F   UNL d   1      26.369 -15.342  -1.675  0.00  0.00    -0.204 F 
ENDBRANCH  13  15
ENDBRANCH   1  13
TORSDOF 4
ENDMDL
MODEL 7
REMARK VINA RESULT:    -5.970      5.225      7.333
REMARK INTER + INTRA:          -8.253
REMARK INTER:                  -7.163
REMARK INTRA:                  -1.089
REMARK CONF_INDEPENDENT:        1.193
REMARK UNBOUND:                -1.089
REMARK  4 active torsions:
REMARK  status: ('A' for Active; 'I' for Inactive)
REMARK       I    between atoms: C_2  and  N_3 
REMARK    1  A    between atoms: C_2  and  C_15 
REMARK    2  A    between atoms: N_3  and  C_4 
REMARK    3  A    between atoms: C_4  and  N_6 
REMARK    4  A    between atoms: N_6  and  C_7 
ROOT
ATOM      1  C   UNL d   1      26.507 -14.500  -4.803  0.00  0.00     0.179 C 
ATOM      2  S   UNL d   1      27.782 -14.809  -5.878  0.00  0.00    -0.040 SA
ENDROOT
BRANCH   1   3
ATOM      3  N   UNL d   1      26.298 -15.273  -3.634  0.00  0.00    -0.299 N 
ATOM      4  C   UNL d   1      25.127 -15.240  -2.846  0.00  0.00     0.257 C 
ATOM      5  O   UNL d   1      24.184 -14.452  -2.986  0.00  0.00    -0.267 OA
ATOM      6  H   UNL d   1      26.977 -15.988  -3.406  0.00  0.00     0.171 HD
BRANCH   4   7
ATOM      7  C   UNL d   1      24.918 -16.205  -1.747  0.00  0.00     0.032 A 
ATOM      8  C   UNL d   1      23.656 -16.551  -1.270  0.00  0.00     0.017 A 
ATOM      9  C   UNL d   1      23.551 -17.487  -0.232  0.00  0.00     0.001 A 
ATOM     10  C   UNL d   1      24.686 -18.138   0.265  0.00  0.00     0.000 A 
ATOM     11  C   UNL d   1      25.940 -17.850  -0.263  0.00  0.00     0.001 A 
ATOM     12  C   UNL d   1      26.054 -16.889  -1.267  0.00  0.00     0.017 A 
ENDBRANCH   4   7
ENDBRANCH   1   3
BRANCH   1  13
ATOM     13  N   UNL d   1      25.581 -13.437  -4.995  0.00  0.00    -0.331 N 
ATOM     14  H   UNL d   1      24.590 -13.654  -5.043  0.00  0.00     0.168 HD
BRANCH  13  15
ATOM     15  C   UNL d   1      25.879 -12.071  -4.613  0.00  0.00     0.073 A 
ATOM     16  C   UNL d   1      26.123 -11.758  -3.265  0.00  0.00     0.036 A 
ATOM     17  C   UNL d   1      26.280 -10.440  -2.830  0.00  0.00     0.044 A 
ATOM     18  C   UNL d   1      26.260  -9.411  -3.757  0.00  0.00     0.119 A 
ATOM     19  F   UNL d   1      26.429  -8.150  -3.338  0.00  0.00    -0.206 F 
ATOM     20  C   UNL d   1      26.083  -9.681  -5.109  0.00  0.00     0.086 A 
ATOM     21  C   UNL d   1      25.905 -11.009  -5.533  0.00  0.00     0.145 A 
ATOM     22  F   UNL d   1      25.685 -11.235  -6.837  0.00  0.00    -0.204 F 
ENDBRANCH  13  15
ENDBRANCH   1  13
TORSDOF 4
ENDMDL
MODEL 8
REMARK VINA RESULT:    -5.932      5.036      7.010
REMARK INTER + INTRA:          -8.266
REMARK INTER:                  -7.125
REMARK INTRA:                  -1.141
REMARK CONF_INDEPENDENT:        1.193
REMARK UNBOUND:                -1.141
REMARK  4 active torsions:
REMARK  status: ('A' for Active; 'I' for Inactive)
REMARK       I    between atoms: C_2  and  N_3 
REMARK    1  A    between atoms: C_2  and  C_15 
REMARK    2  A    between atoms: N_3  and  C_4 
REMARK    3  A    between atoms: C_4  and  N_6 
REMARK    4  A    between atoms: N_6  and  C_7 
ROOT
ATOM      1  C   UNL d   1      26.524 -14.577  -4.756  0.00  0.00     0.179 C 
ATOM      2  S   UNL d   1      27.860 -14.825  -5.771  0.00  0.00    -0.040 SA
ENDROOT
BRANCH   1   3
ATOM      3  N   UNL d   1      26.313 -15.343  -3.582  0.00  0.00    -0.299 N 
ATOM      4  C   UNL d   1      25.129 -15.326  -2.813  0.00  0.00     0.257 C 
ATOM      5  O   UNL d   1      24.173 -14.559  -2.975  0.00  0.00    -0.267 OA
ATOM      6  H   UNL d   1      27.002 -16.042  -3.337  0.00  0.00     0.171 HD
BRANCH   4   7
ATOM      7  C   UNL d   1      24.923 -16.285  -1.709  0.00  0.00     0.032 A 
ATOM      8  C   UNL d   1      23.660 -16.679  -1.270  0.00  0.00     0.017 A 
ATOM      9  C   UNL d   1      23.558 -17.604  -0.223  0.00  0.00     0.001 A 
ATOM     10  C   UNL d   1      24.701 -18.200   0.323  0.00  0.00     0.000 A 
ATOM     11  C   UNL d   1      25.960 -17.865  -0.166  0.00  0.00     0.001 A 
ATOM     12  C   UNL d   1      26.068 -16.914  -1.179  0.00  0.00     0.017 A 
ENDBRANCH   4   7
ENDBRANCH   1   3
BRANCH   1  13
ATOM     13  N   UNL d   1      25.546 -13.575  -5.004  0.00  0.00    -0.331 N 
ATOM     14  H   UNL d   1      24.566 -13.841  -5.019  0.00  0.00     0.168 HD
BRANCH  13  15
ATOM     15  C   UNL d   1      25.784 -12.172  -4.725  0.00  0.00     0.073 A 
ATOM     16  C   UNL d   1      25.903 -11.257  -5.784  0.00  0.00     0.036 A 
ATOM     17  C   UNL d   1      26.265  -9.926  -5.571  0.00  0.00     0.044 A 
ATOM     18  C   UNL d   1      26.451  -9.470  -4.277  0.00  0.00     0.119 A 
ATOM     19  F   UNL d   1      26.781  -8.186  -4.075  0.00  0.00    -0.206 F 
ATOM     20  C   UNL d   1      26.284 -10.326  -3.194  0.00  0.00     0.086 A 
ATOM     21  C   UNL d   1      25.940 -11.670  -3.422  0.00  0.00     0.145 A 
ATOM     22  F   UNL d   1      25.835 -12.486  -2.361  0.00  0.00    -0.204 F 
ENDBRANCH  13  15
ENDBRANCH   1  13
TORSDOF 4
ENDMDL
MODEL 9
REMARK VINA RESULT:    -5.693      3.735      8.229
REMARK INTER + INTRA:          -7.953
REMARK INTER:                  -6.886
REMARK INTRA:                  -1.068
REMARK CONF_INDEPENDENT:        1.193
REMARK UNBOUND:                -1.068
REMARK  4 active torsions:
REMARK  status: ('A' for Active; 'I' for Inactive)
REMARK       I    between atoms: C_2  and  N_3 
REMARK    1  A    between atoms: C_2  and  C_15 
REMARK    2  A    between atoms: N_3  and  C_4 
REMARK    3  A    between atoms: C_4  and  N_6 
REMARK    4  A    between atoms: N_6  and  C_7 
ROOT
ATOM      1  C   UNL d   1      26.196 -16.631  -1.136  0.00  0.00     0.179 C 
ATOM      2  S   UNL d   1      27.145 -17.700  -0.225  0.00  0.00    -0.040 SA
ENDROOT
BRANCH   1   3
ATOM      3  N   UNL d   1      26.644 -16.076  -2.361  0.00  0.00    -0.299 N 
ATOM      4  C   UNL d   1      25.934 -15.119  -3.118  0.00  0.00     0.257 C 
ATOM      5  O   UNL d   1      24.782 -14.730  -2.894  0.00  0.00    -0.267 OA
ATOM      6  H   UNL d   1      27.588 -16.281  -2.661  0.00  0.00     0.171 HD
BRANCH   4   7
ATOM      7  C   UNL d   1      26.550 -14.461  -4.288  0.00  0.00     0.032 A 
ATOM      8  C   UNL d   1      26.228 -13.167  -4.690  0.00  0.00     0.017 A 
ATOM      9  C   UNL d   1      26.872 -12.616  -5.806  0.00  0.00     0.001 A 
ATOM     10  C   UNL d   1      27.893 -13.314  -6.462  0.00  0.00     0.000 A 
ATOM     11  C   UNL d   1      28.270 -14.576  -6.015  0.00  0.00     0.001 A 
ATOM     12  C   UNL d   1      27.603 -15.145  -4.932  0.00  0.00     0.017 A 
ENDBRANCH   4   7
ENDBRANCH   1   3
BRANCH   1  13
ATOM     13  N   UNL d   1      24.887 -16.240  -0.742  0.00  0.00    -0.331 N 
ATOM     14  H   UNL d   1      24.596 -15.278  -0.894  0.00  0.00     0.168 HD
BRANCH  13  15
ATOM     15  C   UNL d   1      23.794 -17.186  -0.633  0.00  0.00     0.073 A 
ATOM     16  C   UNL d   1      24.055 -18.521  -0.284  0.00  0.00     0.036 A 
ATOM     17  C   UNL d   1      23.057 -19.497  -0.299  0.00  0.00     0.044 A 
ATOM     18  C   UNL d   1      21.755 -19.134  -0.603  0.00  0.00     0.119 A 
ATOM     19  F   UNL d   1      20.797 -20.071  -0.598  0.00  0.00    -0.206 F 
ATOM     20  C   UNL d   1      21.440 -17.813  -0.895  0.00  0.00     0.086 A 
ATOM     21  C   UNL d   1      22.457 -16.843  -0.897  0.00  0.00     0.145 A 
ATOM     22  F   UNL d   1      22.133 -15.584  -1.233  0.00  0.00    -0.204 F 
ENDBRANCH  13  15
ENDBRANCH   1  13
TORSDOF 4
ENDMDL
