MODEL 1
REMARK VINA RESULT:    -8.055      0.000      0.000
REMARK INTER + INTRA:         -10.007
REMARK INTER:                  -9.546
REMARK INTRA:                  -0.461
REMARK CONF_INDEPENDENT:        1.492
REMARK UNBOUND:                -0.461
REMARK  5 active torsions:
REMARK  status: ('A' for Active; 'I' for Inactive)
REMARK       I    between atoms: C_2  and  N_3 
REMARK       I    between atoms: C_2  and  N_12 
REMARK    1  A    between atoms: N_3  and  O_4 
REMARK    2  A    between atoms: O_4  and  C_5 
REMARK    3  A    between atoms: C_5  and  C_6 
REMARK    4  A    between atoms: N_12  and  C_13 
REMARK    5  A    between atoms: C_15  and  C_16 
ROOT
ATOM      1  O   UNL d   1      21.775 -16.708  -0.893  0.00  0.00    -0.245 OA
ATOM      2  C   UNL d   1      22.669 -17.554  -0.829  0.00  0.00     0.340 C 
ATOM      3  N   UNL d   1      22.537 -18.859  -1.198  0.00  0.00    -0.216 N 
ATOM      4  N   UNL d   1      23.906 -17.204  -0.329  0.00  0.00    -0.336 N 
ATOM      5  H   UNL d   1      23.309 -19.506  -1.188  0.00  0.00     0.199 HD
ATOM      6  H   UNL d   1      23.973 -16.215  -0.110  0.00  0.00     0.164 HD
ENDROOT
BRANCH   3   7
ATOM      7  O   UNL d   1      21.282 -19.310  -1.672  0.00  0.00    -0.272 OA
BRANCH   7   8
ATOM      8  C   UNL d   1      20.251 -18.704  -0.894  0.00  0.00     0.240 C 
BRANCH   8   9
ATOM      9  C   UNL d   1      19.673 -19.656   0.119  0.00  0.00    -0.032 A 
ATOM     10  C   UNL d   1      18.577 -20.468  -0.201  0.00  0.00     0.009 A 
ATOM     11  C   UNL d   1      17.928 -21.197   0.798  0.00  0.00     0.001 A 
ATOM     12  C   UNL d   1      18.424 -21.195   2.101  0.00  0.00     0.000 A 
ATOM     13  C   UNL d   1      19.552 -20.441   2.414  0.00  0.00     0.001 A 
ATOM     14  C   UNL d   1      20.172 -19.673   1.429  0.00  0.00     0.009 A 
ENDBRANCH   8   9
ENDBRANCH   7   8
ENDBRANCH   3   7
BRANCH   4  15
ATOM     15  C   UNL d   1      25.060 -18.047  -0.213  0.00  0.00     0.095 A 
ATOM     16  C   UNL d   1      26.275 -17.734   0.612  0.00  0.00     0.037 A 
ATOM     17  C   UNL d   1      26.363 -17.670  -0.896  0.00  0.00     0.043 A 
BRANCH  17  18
ATOM     18  C   UNL d   1      26.506 -16.336  -1.604  0.00  0.00    -0.049 A 
ATOM     19  C   UNL d   1      27.382 -15.339  -1.131  0.00  0.00     0.008 A 
ATOM     20  C   UNL d   1      27.466 -14.086  -1.754  0.00  0.00     0.004 A 
ATOM     21  C   UNL d   1      26.734 -13.833  -2.910  0.00  0.00     0.042 A 
ATOM     22  C   UNL d   1      25.884 -14.809  -3.399  0.00  0.00     0.116 A 
ATOM     23  F   UNL d   1      25.154 -14.581  -4.498  0.00  0.00    -0.206 F 
ATOM     24  C   UNL d   1      25.761 -16.028  -2.755  0.00  0.00     0.049 A 
ENDBRANCH  17  18
ENDBRANCH   4  15
TORSDOF 5
ENDMDL
MODEL 2
REMARK VINA RESULT:    -7.295      3.975      8.422
REMARK INTER + INTRA:          -9.624
REMARK INTER:                  -8.787
REMARK INTRA:                  -0.837
REMARK CONF_INDEPENDENT:        1.492
REMARK UNBOUND:                -0.837
REMARK  5 active torsions:
REMARK  status: ('A' for Active; 'I' for Inactive)
REMARK       I    between atoms: C_2  and  N_3 
REMARK       I    between atoms: C_2  and  N_12 
REMARK    1  A    between atoms: N_3  and  O_4 
REMARK    2  A    between atoms: O_4  and  C_5 
REMARK    3  A    between atoms: C_5  and  C_6 
REMARK    4  A    between atoms: N_12  and  C_13 
REMARK    5  A    between atoms: C_15  and  C_16 
ROOT
ATOM      1  O   UNL d   1      24.780 -14.595  -4.629  0.00  0.00    -0.245 OA
ATOM      2  C   UNL d   1      25.666 -14.931  -3.842  0.00  0.00     0.340 C 
ATOM      3  N   UNL d   1      26.947 -15.239  -4.192  0.00  0.00    -0.216 N 
ATOM      4  N   UNL d   1      25.380 -15.042  -2.497  0.00  0.00    -0.336 N 
ATOM      5  H   UNL d   1      27.659 -15.450  -3.512  0.00  0.00     0.199 HD
ATOM      6  H   UNL d   1      24.430 -14.761  -2.277  0.00  0.00     0.164 HD
ENDROOT
BRANCH   3   7
ATOM      7  O   UNL d   1      27.308 -15.200  -5.560  0.00  0.00    -0.272 OA
BRANCH   7   8
ATOM      8  C   UNL d   1      28.691 -14.865  -5.662  0.00  0.00     0.240 C 
BRANCH   8   9
ATOM      9  C   UNL d   1      29.580 -16.060  -5.442  0.00  0.00    -0.032 A 
ATOM     10  C   UNL d   1      30.231 -16.679  -6.518  0.00  0.00     0.009 A 
ATOM     11  C   UNL d   1      30.888 -17.898  -6.334  0.00  0.00     0.001 A 
ATOM     12  C   UNL d   1      30.981 -18.458  -5.061  0.00  0.00     0.000 A 
ATOM     13  C   UNL d   1      30.392 -17.816  -3.974  0.00  0.00     0.001 A 
ATOM     14  C   UNL d   1      29.692 -16.625  -4.164  0.00  0.00     0.009 A 
ENDBRANCH   8   9
ENDBRANCH   7   8
ENDBRANCH   3   7
BRANCH   4  15
ATOM     15  C   UNL d   1      26.292 -15.388  -1.445  0.00  0.00     0.095 A 
ATOM     16  C   UNL d   1      27.043 -16.685  -1.350  0.00  0.00     0.037 A 
ATOM     17  C   UNL d   1      25.905 -16.411  -0.393  0.00  0.00     0.043 A 
BRANCH  17  18
ATOM     18  C   UNL d   1      24.601 -17.179  -0.505  0.00  0.00    -0.049 A 
ATOM     19  C   UNL d   1      24.553 -18.579  -0.348  0.00  0.00     0.008 A 
ATOM     20  C   UNL d   1      23.357 -19.290  -0.513  0.00  0.00     0.004 A 
ATOM     21  C   UNL d   1      22.169 -18.608  -0.758  0.00  0.00     0.042 A 
ATOM     22  C   UNL d   1      22.196 -17.232  -0.895  0.00  0.00     0.116 A 
ATOM     23  F   UNL d   1      21.069 -16.556  -1.153  0.00  0.00    -0.206 F 
ATOM     24  C   UNL d   1      23.386 -16.533  -0.785  0.00  0.00     0.049 A 
ENDBRANCH  17  18
ENDBRANCH   4  15
TORSDOF 5
ENDMDL
MODEL 3
REMARK VINA RESULT:    -7.282      2.339      2.989
REMARK INTER + INTRA:          -9.390
REMARK INTER:                  -8.773
REMARK INTRA:                  -0.617
REMARK CONF_INDEPENDENT:        1.492
REMARK UNBOUND:                -0.617
REMARK  5 active torsions:
REMARK  status: ('A' for Active; 'I' for Inactive)
REMARK       I    between atoms: C_2  and  N_3 
REMARK       I    between atoms: C_2  and  N_12 
REMARK    1  A    between atoms: N_3  and  O_4 
REMARK    2  A    between atoms: O_4  and  C_5 
REMARK    3  A    between atoms: C_5  and  C_6 
REMARK    4  A    between atoms: N_12  and  C_13 
REMARK    5  A    between atoms: C_15  and  C_16 
ROOT
ATOM      1  O   UNL d   1      24.203 -18.578   0.606  0.00  0.00    -0.245 OA
ATOM      2  C   UNL d   1      24.258 -17.951  -0.454  0.00  0.00     0.340 C 
ATOM      3  N   UNL d   1      23.396 -18.107  -1.498  0.00  0.00    -0.216 N 
ATOM      4  N   UNL d   1      25.267 -17.033  -0.653  0.00  0.00    -0.336 N 
ATOM      5  H   UNL d   1      23.437 -17.533  -2.324  0.00  0.00     0.199 HD
ATOM      6  H   UNL d   1      25.857 -16.918   0.165  0.00  0.00     0.164 HD
ENDROOT
BRANCH   3   7
ATOM      7  O   UNL d   1      22.363 -19.068  -1.393  0.00  0.00    -0.272 OA
BRANCH   7   8
ATOM      8  C   UNL d   1      21.183 -18.426  -0.912  0.00  0.00     0.240 C 
BRANCH   8   9
ATOM      9  C   UNL d   1      20.378 -19.325  -0.011  0.00  0.00    -0.032 A 
ATOM     10  C   UNL d   1      19.304 -20.072  -0.514  0.00  0.00     0.009 A 
ATOM     11  C   UNL d   1      18.446 -20.744   0.360  0.00  0.00     0.001 A 
ATOM     12  C   UNL d   1      18.708 -20.752   1.730  0.00  0.00     0.000 A 
ATOM     13  C   UNL d   1      19.811 -20.065   2.231  0.00  0.00     0.001 A 
ATOM     14  C   UNL d   1      20.640 -19.353   1.366  0.00  0.00     0.009 A 
ENDBRANCH   8   9
ENDBRANCH   7   8
ENDBRANCH   3   7
BRANCH   4  15
ATOM     15  C   UNL d   1      25.461 -16.200  -1.805  0.00  0.00     0.095 A 
ATOM     16  C   UNL d   1      26.782 -15.959  -2.478  0.00  0.00     0.037 A 
ATOM     17  C   UNL d   1      26.142 -14.849  -1.675  0.00  0.00     0.043 A 
BRANCH  17  18
ATOM     18  C   UNL d   1      26.742 -14.411  -0.352  0.00  0.00    -0.049 A 
ATOM     19  C   UNL d   1      27.403 -15.321   0.497  0.00  0.00     0.008 A 
ATOM     20  C   UNL d   1      27.902 -14.924   1.745  0.00  0.00     0.004 A 
ATOM     21  C   UNL d   1      27.821 -13.590   2.135  0.00  0.00     0.042 A 
ATOM     22  C   UNL d   1      27.194 -12.680   1.304  0.00  0.00     0.116 A 
ATOM     23  F   UNL d   1      27.085 -11.396   1.667  0.00  0.00    -0.206 F 
ATOM     24  C   UNL d   1      26.653 -13.082   0.094  0.00  0.00     0.049 A 
ENDBRANCH  17  18
ENDBRANCH   4  15
TORSDOF 5
ENDMDL
MODEL 4
REMARK VINA RESULT:    -7.118      4.282      8.632
REMARK INTER + INTRA:          -9.441
REMARK INTER:                  -8.609
REMARK INTRA:                  -0.832
REMARK CONF_INDEPENDENT:        1.492
REMARK UNBOUND:                -0.832
REMARK  5 active torsions:
REMARK  status: ('A' for Active; 'I' for Inactive)
REMARK       I    between atoms: C_2  and  N_3 
REMARK       I    between atoms: C_2  and  N_12 
REMARK    1  A    between atoms: N_3  and  O_4 
REMARK    2  A    between atoms: O_4  and  C_5 
REMARK    3  A    between atoms: C_5  and  C_6 
REMARK    4  A    between atoms: N_12  and  C_13 
REMARK    5  A    between atoms: C_15  and  C_16 
ROOT
ATOM      1  O   UNL d   1      25.130 -14.921  -4.977  0.00  0.00    -0.245 OA
ATOM      2  C   UNL d   1      26.039 -15.112  -4.167  0.00  0.00     0.340 C 
ATOM      3  N   UNL d   1      27.356 -15.251  -4.491  0.00  0.00    -0.216 N 
ATOM      4  N   UNL d   1      25.746 -15.227  -2.825  0.00  0.00    -0.336 N 
ATOM      5  H   UNL d   1      28.078 -15.346  -3.795  0.00  0.00     0.199 HD
ATOM      6  H   UNL d   1      24.763 -15.072  -2.626  0.00  0.00     0.164 HD
ENDROOT
BRANCH   3   7
ATOM      7  O   UNL d   1      27.733 -15.200  -5.854  0.00  0.00    -0.272 OA
BRANCH   7   8
ATOM      8  C   UNL d   1      29.156 -15.115  -5.935  0.00  0.00     0.240 C 
BRANCH   8   9
ATOM      9  C   UNL d   1      29.811 -16.462  -5.783  0.00  0.00    -0.032 A 
ATOM     10  C   UNL d   1      29.891 -17.085  -4.530  0.00  0.00     0.009 A 
ATOM     11  C   UNL d   1      30.671 -18.233  -4.366  0.00  0.00     0.001 A 
ATOM     12  C   UNL d   1      31.297 -18.818  -5.466  0.00  0.00     0.000 A 
ATOM     13  C   UNL d   1      31.169 -18.240  -6.727  0.00  0.00     0.001 A 
ATOM     14  C   UNL d   1      30.433 -17.066  -6.884  0.00  0.00     0.009 A 
ENDBRANCH   8   9
ENDBRANCH   7   8
ENDBRANCH   3   7
BRANCH   4  15
ATOM     15  C   UNL d   1      26.677 -15.417  -1.750  0.00  0.00     0.095 A 
ATOM     16  C   UNL d   1      27.403 -16.699  -1.458  0.00  0.00     0.037 A 
ATOM     17  C   UNL d   1      26.296 -16.243  -0.535  0.00  0.00     0.043 A 
BRANCH  17  18
ATOM     18  C   UNL d   1      24.974 -16.986  -0.490  0.00  0.00    -0.049 A 
ATOM     19  C   UNL d   1      24.914 -18.370  -0.234  0.00  0.00     0.008 A 
ATOM     20  C   UNL d   1      23.696 -19.064  -0.254  0.00  0.00     0.004 A 
ATOM     21  C   UNL d   1      22.504 -18.371  -0.451  0.00  0.00     0.042 A 
ATOM     22  C   UNL d   1      22.544 -17.009  -0.684  0.00  0.00     0.116 A 
ATOM     23  F   UNL d   1      21.413 -16.326  -0.897  0.00  0.00    -0.206 F 
ATOM     24  C   UNL d   1      23.752 -16.332  -0.717  0.00  0.00     0.049 A 
ENDBRANCH  17  18
ENDBRANCH   4  15
TORSDOF 5
ENDMDL
MODEL 5
REMARK VINA RESULT:    -7.047      3.679      8.817
REMARK INTER + INTRA:          -9.362
REMARK INTER:                  -8.538
REMARK INTRA:                  -0.824
REMARK CONF_INDEPENDENT:        1.492
REMARK UNBOUND:                -0.824
REMARK  5 active torsions:
REMARK  status: ('A' for Active; 'I' for Inactive)
REMARK       I    between atoms: C_2  and  N_3 
REMARK       I    between atoms: C_2  and  N_12 
REMARK    1  A    between atoms: N_3  and  O_4 
REMARK    2  A    between atoms: O_4  and  C_5 
REMARK    3  A    between atoms: C_5  and  C_6 
REMARK    4  A    between atoms: N_12  and  C_13 
REMARK    5  A    between atoms: C_15  and  C_16 
ROOT
ATOM      1  O   UNL d   1      24.791 -14.791  -4.772  0.00  0.00    -0.245 OA
ATOM      2  C   UNL d   1      25.668 -15.041  -3.943  0.00  0.00     0.340 C 
ATOM      3  N   UNL d   1      26.976 -15.281  -4.240  0.00  0.00    -0.216 N 
ATOM      4  N   UNL d   1      25.342 -15.120  -2.606  0.00  0.00    -0.336 N 
ATOM      5  H   UNL d   1      27.676 -15.422  -3.529  0.00  0.00     0.199 HD
ATOM      6  H   UNL d   1      24.369 -14.890  -2.427  0.00  0.00     0.164 HD
ENDROOT
BRANCH   3   7
ATOM      7  O   UNL d   1      27.381 -15.271  -5.596  0.00  0.00    -0.272 OA
BRANCH   7   8
ATOM      8  C   UNL d   1      28.360 -14.248  -5.776  0.00  0.00     0.240 C 
BRANCH   8   9
ATOM      9  C   UNL d   1      27.737 -12.928  -6.143  0.00  0.00    -0.032 A 
ATOM     10  C   UNL d   1      26.723 -12.368  -5.354  0.00  0.00     0.009 A 
ATOM     11  C   UNL d   1      26.018 -11.250  -5.807  0.00  0.00     0.001 A 
ATOM     12  C   UNL d   1      26.380 -10.630  -7.002  0.00  0.00     0.000 A 
ATOM     13  C   UNL d   1      27.429 -11.143  -7.761  0.00  0.00     0.001 A 
ATOM     14  C   UNL d   1      28.102 -12.288  -7.335  0.00  0.00     0.009 A 
ENDBRANCH   8   9
ENDBRANCH   7   8
ENDBRANCH   3   7
BRANCH   4  15
ATOM     15  C   UNL d   1      26.236 -15.369  -1.512  0.00  0.00     0.095 A 
ATOM     16  C   UNL d   1      27.033 -16.627  -1.322  0.00  0.00     0.037 A 
ATOM     17  C   UNL d   1      25.859 -16.346  -0.413  0.00  0.00     0.043 A 
BRANCH  17  18
ATOM     18  C   UNL d   1      24.590 -17.171  -0.516  0.00  0.00    -0.049 A 
ATOM     19  C   UNL d   1      24.604 -18.571  -0.352  0.00  0.00     0.008 A 
ATOM     20  C   UNL d   1      23.440 -19.335  -0.508  0.00  0.00     0.004 A 
ATOM     21  C   UNL d   1      22.222 -18.707  -0.751  0.00  0.00     0.042 A 
ATOM     22  C   UNL d   1      22.187 -17.332  -0.894  0.00  0.00     0.116 A 
ATOM     23  F   UNL d   1      21.031 -16.707  -1.149  0.00  0.00    -0.206 F 
ATOM     24  C   UNL d   1      23.346 -16.580  -0.793  0.00  0.00     0.049 A 
ENDBRANCH  17  18
ENDBRANCH   4  15
TORSDOF 5
ENDMDL
MODEL 6
REMARK VINA RESULT:    -6.882      2.035      3.014
REMARK INTER + INTRA:          -9.135
REMARK INTER:                  -8.374
REMARK INTRA:                  -0.761
REMARK CONF_INDEPENDENT:        1.492
REMARK UNBOUND:                -0.761
REMARK  5 active torsions:
REMARK  status: ('A' for Active; 'I' for Inactive)
REMARK       I    between atoms: C_2  and  N_3 
REMARK       I    between atoms: C_2  and  N_12 
REMARK    1  A    between atoms: N_3  and  O_4 
REMARK    2  A    between atoms: O_4  and  C_5 
REMARK    3  A    between atoms: C_5  and  C_6 
REMARK    4  A    between atoms: N_12  and  C_13 
REMARK    5  A    between atoms: C_15  and  C_16 
ROOT
ATOM      1  O   UNL d   1      24.451 -18.965  -0.340  0.00  0.00    -0.245 OA
ATOM      2  C   UNL d   1      24.142 -17.894  -0.866  0.00  0.00     0.340 C 
ATOM      3  N   UNL d   1      22.949 -17.257  -0.697  0.00  0.00    -0.216 N 
ATOM      4  N   UNL d   1      25.028 -17.270  -1.718  0.00  0.00    -0.336 N 
ATOM      5  H   UNL d   1      22.756 -16.352  -1.096  0.00  0.00     0.199 HD
ATOM      6  H   UNL d   1      25.918 -17.755  -1.779  0.00  0.00     0.164 HD
ENDROOT
BRANCH   3   7
ATOM      7  O   UNL d   1      21.964 -17.859   0.121  0.00  0.00    -0.272 OA
BRANCH   7   8
ATOM      8  C   UNL d   1      21.340 -18.915  -0.610  0.00  0.00     0.240 C 
BRANCH   8   9
ATOM      9  C   UNL d   1      20.214 -19.548   0.163  0.00  0.00    -0.032 A 
ATOM     10  C   UNL d   1      20.285 -19.683   1.556  0.00  0.00     0.009 A 
ATOM     11  C   UNL d   1      19.333 -20.445   2.237  0.00  0.00     0.001 A 
ATOM     12  C   UNL d   1      18.255 -20.998   1.547  0.00  0.00     0.000 A 
ATOM     13  C   UNL d   1      18.142 -20.815   0.171  0.00  0.00     0.001 A 
ATOM     14  C   UNL d   1      19.119 -20.096  -0.518  0.00  0.00     0.009 A 
ENDBRANCH   8   9
ENDBRANCH   7   8
ENDBRANCH   3   7
BRANCH   4  15
ATOM     15  C   UNL d   1      24.846 -16.014  -2.386  0.00  0.00     0.095 A 
ATOM     16  C   UNL d   1      25.827 -15.397  -3.342  0.00  0.00     0.037 A 
ATOM     17  C   UNL d   1      25.646 -14.793  -1.968  0.00  0.00     0.043 A 
BRANCH  17  18
ATOM     18  C   UNL d   1      26.742 -14.909  -0.924  0.00  0.00    -0.049 A 
ATOM     19  C   UNL d   1      26.635 -14.277   0.331  0.00  0.00     0.008 A 
ATOM     20  C   UNL d   1      27.677 -14.337   1.267  0.00  0.00     0.004 A 
ATOM     21  C   UNL d   1      28.812 -15.097   0.999  0.00  0.00     0.042 A 
ATOM     22  C   UNL d   1      28.922 -15.739  -0.220  0.00  0.00     0.116 A 
ATOM     23  F   UNL d   1      30.014 -16.458  -0.509  0.00  0.00    -0.206 F 
ATOM     24  C   UNL d   1      27.917 -15.638  -1.168  0.00  0.00     0.049 A 
ENDBRANCH  17  18
ENDBRANCH   4  15
TORSDOF 5
ENDMDL
MODEL 7
REMARK VINA RESULT:    -6.871      3.451      8.312
REMARK INTER + INTRA:          -9.385
REMARK INTER:                  -8.362
REMARK INTRA:                  -1.023
REMARK CONF_INDEPENDENT:        1.492
REMARK UNBOUND:                -1.023
REMARK  5 active torsions:
REMARK  status: ('A' for Active; 'I' for Inactive)
REMARK       I    between atoms: C_2  and  N_3 
REMARK       I    between atoms: C_2  and  N_12 
REMARK    1  A    between atoms: N_3  and  O_4 
REMARK    2  A    between atoms: O_4  and  C_5 
REMARK    3  A    between atoms: C_5  and  C_6 
REMARK    4  A    between atoms: N_12  and  C_13 
REMARK    5  A    between atoms: C_15  and  C_16 
ROOT
ATOM      1  O   UNL d   1      24.780 -14.820  -4.739  0.00  0.00    -0.245 OA
ATOM      2  C   UNL d   1      25.648 -15.062  -3.898  0.00  0.00     0.340 C 
ATOM      3  N   UNL d   1      26.969 -15.254  -4.173  0.00  0.00    -0.216 N 
ATOM      4  N   UNL d   1      25.298 -15.181  -2.570  0.00  0.00    -0.336 N 
ATOM      5  H   UNL d   1      27.658 -15.390  -3.451  0.00  0.00     0.199 HD
ATOM      6  H   UNL d   1      24.315 -14.986  -2.407  0.00  0.00     0.164 HD
ENDROOT
BRANCH   3   7
ATOM      7  O   UNL d   1      27.401 -15.201  -5.519  0.00  0.00    -0.272 OA
BRANCH   7   8
ATOM      8  C   UNL d   1      28.178 -14.019  -5.707  0.00  0.00     0.240 C 
BRANCH   8   9
ATOM      9  C   UNL d   1      27.542 -12.816  -5.061  0.00  0.00    -0.032 A 
ATOM     10  C   UNL d   1      27.798 -12.501  -3.720  0.00  0.00     0.009 A 
ATOM     11  C   UNL d   1      27.054 -11.507  -3.079  0.00  0.00     0.001 A 
ATOM     12  C   UNL d   1      26.119 -10.761  -3.794  0.00  0.00     0.000 A 
ATOM     13  C   UNL d   1      25.904 -11.025  -5.144  0.00  0.00     0.001 A 
ATOM     14  C   UNL d   1      26.609 -12.050  -5.774  0.00  0.00     0.009 A 
ENDBRANCH   8   9
ENDBRANCH   7   8
ENDBRANCH   3   7
BRANCH   4  15
ATOM     15  C   UNL d   1      26.177 -15.427  -1.464  0.00  0.00     0.095 A 
ATOM     16  C   UNL d   1      26.952 -16.694  -1.246  0.00  0.00     0.037 A 
ATOM     17  C   UNL d   1      25.773 -16.380  -0.353  0.00  0.00     0.043 A 
BRANCH  17  18
ATOM     18  C   UNL d   1      24.492 -17.186  -0.455  0.00  0.00    -0.049 A 
ATOM     19  C   UNL d   1      24.475 -18.577  -0.228  0.00  0.00     0.008 A 
ATOM     20  C   UNL d   1      23.301 -19.326  -0.383  0.00  0.00     0.004 A 
ATOM     21  C   UNL d   1      22.102 -18.688  -0.689  0.00  0.00     0.042 A 
ATOM     22  C   UNL d   1      22.098 -17.321  -0.895  0.00  0.00     0.116 A 
ATOM     23  F   UNL d   1      20.962 -16.688  -1.212  0.00  0.00    -0.206 F 
ATOM     24  C   UNL d   1      23.268 -16.586  -0.794  0.00  0.00     0.049 A 
ENDBRANCH  17  18
ENDBRANCH   4  15
TORSDOF 5
ENDMDL
MODEL 8
REMARK VINA RESULT:    -6.713      5.528      8.688
REMARK INTER + INTRA:          -8.953
REMARK INTER:                  -8.205
REMARK INTRA:                  -0.748
REMARK CONF_INDEPENDENT:        1.492
REMARK UNBOUND:                -0.748
REMARK  5 active torsions:
REMARK  status: ('A' for Active; 'I' for Inactive)
REMARK       I    between atoms: C_2  and  N_3 
REMARK       I    between atoms: C_2  and  N_12 
REMARK    1  A    between atoms: N_3  and  O_4 
REMARK    2  A    between atoms: O_4  and  C_5 
REMARK    3  A    between atoms: C_5  and  C_6 
REMARK    4  A    between atoms: N_12  and  C_13 
REMARK    5  A    between atoms: C_15  and  C_16 
ROOT
ATOM      1  O   UNL d   1      26.727 -13.104   1.666  0.00  0.00    -0.245 OA
ATOM      2  C   UNL d   1      27.401 -14.135   1.656  0.00  0.00     0.340 C 
ATOM      3  N   UNL d   1      27.781 -14.830   2.765  0.00  0.00    -0.216 N 
ATOM      4  N   UNL d   1      27.851 -14.646   0.457  0.00  0.00    -0.336 N 
ATOM      5  H   UNL d   1      28.281 -15.702   2.713  0.00  0.00     0.199 HD
ATOM      6  H   UNL d   1      27.508 -14.124  -0.343  0.00  0.00     0.164 HD
ENDROOT
BRANCH   3   7
ATOM      7  O   UNL d   1      27.405 -14.341   4.039  0.00  0.00    -0.272 OA
BRANCH   7   8
ATOM      8  C   UNL d   1      28.352 -14.795   5.005  0.00  0.00     0.240 C 
BRANCH   8   9
ATOM      9  C   UNL d   1      28.619 -13.759   6.064  0.00  0.00    -0.032 A 
ATOM     10  C   UNL d   1      29.368 -14.075   7.206  0.00  0.00     0.009 A 
ATOM     11  C   UNL d   1      29.441 -13.173   8.270  0.00  0.00     0.001 A 
ATOM     12  C   UNL d   1      28.847 -11.916   8.164  0.00  0.00     0.000 A 
ATOM     13  C   UNL d   1      28.155 -11.569   7.006  0.00  0.00     0.001 A 
ATOM     14  C   UNL d   1      28.038 -12.487   5.963  0.00  0.00     0.009 A 
ENDBRANCH   8   9
ENDBRANCH   7   8
ENDBRANCH   3   7
BRANCH   4  15
ATOM     15  C   UNL d   1      28.614 -15.845   0.261  0.00  0.00     0.095 A 
ATOM     16  C   UNL d   1      28.802 -16.539  -1.058  0.00  0.00     0.037 A 
ATOM     17  C   UNL d   1      27.919 -17.169  -0.004  0.00  0.00     0.043 A 
BRANCH  17  18
ATOM     18  C   UNL d   1      26.415 -17.227  -0.194  0.00  0.00    -0.049 A 
ATOM     19  C   UNL d   1      25.627 -18.200   0.452  0.00  0.00     0.008 A 
ATOM     20  C   UNL d   1      24.246 -18.287   0.227  0.00  0.00     0.004 A 
ATOM     21  C   UNL d   1      23.613 -17.352  -0.587  0.00  0.00     0.042 A 
ATOM     22  C   UNL d   1      24.370 -16.378  -1.212  0.00  0.00     0.116 A 
ATOM     23  F   UNL d   1      23.786 -15.481  -2.017  0.00  0.00    -0.206 F 
ATOM     24  C   UNL d   1      25.742 -16.323  -1.032  0.00  0.00     0.049 A 
ENDBRANCH  17  18
ENDBRANCH   4  15
TORSDOF 5
ENDMDL
MODEL 9
REMARK VINA RESULT:    -6.663      5.095      6.879
REMARK INTER + INTRA:          -8.935
REMARK INTER:                  -8.155
REMARK INTRA:                  -0.780
REMARK CONF_INDEPENDENT:        1.492
REMARK UNBOUND:                -0.780
REMARK  5 active torsions:
REMARK  status: ('A' for Active; 'I' for Inactive)
REMARK       I    between atoms: C_2  and  N_3 
REMARK       I    between atoms: C_2  and  N_12 
REMARK    1  A    between atoms: N_3  and  O_4 
REMARK    2  A    between atoms: O_4  and  C_5 
REMARK    3  A    between atoms: C_5  and  C_6 
REMARK    4  A    between atoms: N_12  and  C_13 
REMARK    5  A    between atoms: C_15  and  C_16 
ROOT
ATOM      1  O   UNL d   1      26.998 -15.200  -6.106  0.00  0.00    -0.245 OA
ATOM      2  C   UNL d   1      27.510 -15.476  -5.020  0.00  0.00     0.340 C 
ATOM      3  N   UNL d   1      26.844 -15.521  -3.831  0.00  0.00    -0.216 N 
ATOM      4  N   UNL d   1      28.861 -15.742  -4.950  0.00  0.00    -0.336 N 
ATOM      5  H   UNL d   1      27.286 -15.811  -2.974  0.00  0.00     0.199 HD
ATOM      6  H   UNL d   1      29.307 -15.741  -5.862  0.00  0.00     0.164 HD
ENDROOT
BRANCH   3   7
ATOM      7  O   UNL d   1      25.464 -15.210  -3.810  0.00  0.00    -0.272 OA
BRANCH   7   8
ATOM      8  C   UNL d   1      25.087 -14.881  -2.474  0.00  0.00     0.240 C 
BRANCH   8   9
ATOM      9  C   UNL d   1      24.928 -16.106  -1.614  0.00  0.00    -0.032 A 
ATOM     10  C   UNL d   1      23.656 -16.584  -1.270  0.00  0.00     0.009 A 
ATOM     11  C   UNL d   1      23.520 -17.595  -0.316  0.00  0.00     0.001 A 
ATOM     12  C   UNL d   1      24.651 -18.200   0.229  0.00  0.00     0.000 A 
ATOM     13  C   UNL d   1      25.921 -17.775  -0.155  0.00  0.00     0.001 A 
ATOM     14  C   UNL d   1      26.059 -16.732  -1.070  0.00  0.00     0.009 A 
ENDBRANCH   8   9
ENDBRANCH   7   8
ENDBRANCH   3   7
BRANCH   4  15
ATOM     15  C   UNL d   1      29.610 -16.109  -3.782  0.00  0.00     0.095 A 
ATOM     16  C   UNL d   1      31.103 -16.013  -3.653  0.00  0.00     0.037 A 
ATOM     17  C   UNL d   1      30.452 -17.372  -3.770  0.00  0.00     0.043 A 
BRANCH  17  18
ATOM     18  C   UNL d   1      30.618 -18.201  -5.030  0.00  0.00    -0.049 A 
ATOM     19  C   UNL d   1      30.405 -19.594  -5.031  0.00  0.00     0.008 A 
ATOM     20  C   UNL d   1      30.619 -20.364  -6.183  0.00  0.00     0.004 A 
ATOM     21  C   UNL d   1      30.973 -19.745  -7.378  0.00  0.00     0.042 A 
ATOM     22  C   UNL d   1      31.166 -18.375  -7.399  0.00  0.00     0.116 A 
ATOM     23  F   UNL d   1      31.528 -17.761  -8.532  0.00  0.00    -0.206 F 
ATOM     24  C   UNL d   1      31.007 -17.621  -6.249  0.00  0.00     0.049 A 
ENDBRANCH  17  18
ENDBRANCH   4  15
TORSDOF 5
ENDMDL
