MODEL 1
REMARK VINA RESULT:    -8.538      0.000      0.000
REMARK INTER + INTRA:         -14.252
REMARK INTER:                 -12.117
REMARK INTRA:                  -2.135
REMARK CONF_INDEPENDENT:        3.580
REMARK UNBOUND:                -2.135
REMARK  12 active torsions:
REMARK  status: ('A' for Active; 'I' for Inactive)
REMARK    1  A    between atoms: C_2  and  O_3 
REMARK    2  A    between atoms: O_3  and  C_4 
REMARK    3  A    between atoms: C_4  and  C_5 
REMARK    4  A    between atoms: C_5  and  O_6 
REMARK    5  A    between atoms: O_6  and  C_7 
REMARK    6  A    between atoms: C_10  and  C_11 
REMARK       I    between atoms: C_11  and  N_13 
REMARK    7  A    between atoms: N_13  and  C_14 
REMARK    8  A    between atoms: C_14  and  N_16 
REMARK    9  A    between atoms: N_16  and  N_17 
REMARK       I    between atoms: N_17  and  C_18 
REMARK   10  A    between atoms: C_18  and  C_20 
REMARK   11  A    between atoms: C_20  and  O_21 
REMARK   12  A    between atoms: O_21  and  C_22 
ROOT
ATOM      1  C   UNL d   1      28.963 -14.146   1.628  0.00  0.00     0.193 C 
ATOM      2  S   UNL d   1      29.443 -12.751   0.804  0.00  0.00    -0.039 SA
ENDROOT
BRANCH   1   3
ATOM      3  N   UNL d   1      27.896 -14.999   1.241  0.00  0.00    -0.298 N 
ATOM      4  C   UNL d   1      27.764 -15.687   0.006  0.00  0.00     0.257 C 
ATOM      5  O   UNL d   1      28.608 -15.623  -0.896  0.00  0.00    -0.267 OA
ATOM      6  H   UNL d   1      27.144 -15.107   1.905  0.00  0.00     0.171 HD
BRANCH   4   7
ATOM      7  C   UNL d   1      26.556 -16.529  -0.330  0.00  0.00     0.032 A 
ATOM      8  C   UNL d   1      25.791 -16.165  -1.467  0.00  0.00     0.020 A 
ATOM      9  C   UNL d   1      24.583 -16.806  -1.788  0.00  0.00     0.038 A 
ATOM     10  C   UNL d   1      24.141 -17.877  -1.019  0.00  0.00     0.068 A 
ATOM     11  C   UNL d   1      24.917 -18.286   0.068  0.00  0.00     0.038 A 
ATOM     12  C   UNL d   1      26.111 -17.618   0.416  0.00  0.00     0.020 A 
BRANCH  10  13
ATOM     13  O   UNL d   1      23.018 -18.520  -1.464  0.00  0.00    -0.349 OA
BRANCH  13  14
ATOM     14  C   UNL d   1      21.780 -18.116  -0.869  0.00  0.00     0.201 C 
BRANCH  14  15
ATOM     15  C   UNL d   1      21.047 -19.355  -0.354  0.00  0.00     0.194 C 
BRANCH  15  16
ATOM     16  O   UNL d   1      19.985 -19.704  -1.246  0.00  0.00    -0.389 OA
BRANCH  16  17
ATOM     17  C   UNL d   1      18.813 -20.075  -0.520  0.00  0.00     0.163 C 
ATOM     18  C   UNL d   1      19.182 -20.345   0.926  0.00  0.00     0.033 C 
ENDBRANCH  16  17
ENDBRANCH  15  16
ENDBRANCH  14  15
ENDBRANCH  13  14
ENDBRANCH  10  13
ENDBRANCH   4   7
ENDBRANCH   1   3
BRANCH   1  19
ATOM     19  N   UNL d   1      29.656 -14.523   2.795  0.00  0.00    -0.273 N 
ATOM     20  H   UNL d   1      30.379 -15.239   2.864  0.00  0.00     0.189 HD
BRANCH  19  21
ATOM     21  N   UNL d   1      29.356 -13.843   4.055  0.00  0.00    -0.266 N 
ATOM     22  C   UNL d   1      28.047 -13.666   4.493  0.00  0.00     0.260 C 
ATOM     23  O   UNL d   1      27.097 -14.065   3.818  0.00  0.00    -0.269 OA
ATOM     24  H   UNL d   1      30.173 -13.529   4.580  0.00  0.00     0.190 HD
BRANCH  22  25
ATOM     25  C   UNL d   1      27.879 -12.929   5.867  0.00  0.00     0.280 C 
BRANCH  25  26
ATOM     26  O   UNL d   1      29.147 -12.727   6.512  0.00  0.00    -0.342 OA
BRANCH  26  27
ATOM     27  C   UNL d   1      29.293 -13.123   7.818  0.00  0.00     0.070 A 
ATOM     28  C   UNL d   1      30.443 -13.867   8.119  0.00  0.00     0.045 A 
ATOM     29  C   UNL d   1      30.628 -14.451   9.390  0.00  0.00    -0.037 A 
ATOM     30  C   UNL d   1      31.743 -15.435   9.625  0.00  0.00     0.050 C 
ATOM     31  C   UNL d   1      29.694 -14.194  10.405  0.00  0.00     0.046 A 
ATOM     32 CL   UNL d   1      30.015 -14.755  12.018  0.00  0.00    -0.083 Cl
ATOM     33  C   UNL d   1      28.517 -13.489  10.110  0.00  0.00    -0.037 A 
ATOM     34  C   UNL d   1      27.406 -13.322  11.109  0.00  0.00     0.050 C 
ATOM     35  C   UNL d   1      28.324 -12.969   8.808  0.00  0.00     0.045 A 
ENDBRANCH  26  27
ENDBRANCH  25  26
ENDBRANCH  22  25
ENDBRANCH  19  21
ENDBRANCH   1  19
TORSDOF 12
ENDMDL
MODEL 2
REMARK VINA RESULT:    -8.114      6.905      9.157
REMARK INTER + INTRA:         -14.925
REMARK INTER:                 -11.693
REMARK INTRA:                  -3.232
REMARK CONF_INDEPENDENT:        3.580
REMARK UNBOUND:                -3.232
REMARK  12 active torsions:
REMARK  status: ('A' for Active; 'I' for Inactive)
REMARK    1  A    between atoms: C_2  and  O_3 
REMARK    2  A    between atoms: O_3  and  C_4 
REMARK    3  A    between atoms: C_4  and  C_5 
REMARK    4  A    between atoms: C_5  and  O_6 
REMARK    5  A    between atoms: O_6  and  C_7 
REMARK    6  A    between atoms: C_10  and  C_11 
REMARK       I    between atoms: C_11  and  N_13 
REMARK    7  A    between atoms: N_13  and  C_14 
REMARK    8  A    between atoms: C_14  and  N_16 
REMARK    9  A    between atoms: N_16  and  N_17 
REMARK       I    between atoms: N_17  and  C_18 
REMARK   10  A    between atoms: C_18  and  C_20 
REMARK   11  A    between atoms: C_20  and  O_21 
REMARK   12  A    between atoms: O_21  and  C_22 
ROOT
ATOM      1  C   UNL d   1      30.437 -16.728  -0.954  0.00  0.00     0.193 C 
ATOM      2  S   UNL d   1      31.469 -15.959   0.140  0.00  0.00    -0.039 SA
ENDROOT
BRANCH   1   3
ATOM      3  N   UNL d   1      29.096 -17.113  -0.685  0.00  0.00    -0.298 N 
ATOM      4  C   UNL d   1      27.923 -16.564  -1.268  0.00  0.00     0.257 C 
ATOM      5  O   UNL d   1      27.948 -15.667  -2.118  0.00  0.00    -0.267 OA
ATOM      6  H   UNL d   1      28.966 -17.832   0.010  0.00  0.00     0.171 HD
BRANCH   4   7
ATOM      7  C   UNL d   1      26.535 -17.006  -0.868  0.00  0.00     0.032 A 
ATOM      8  C   UNL d   1      25.435 -16.423  -1.545  0.00  0.00     0.020 A 
ATOM      9  C   UNL d   1      24.108 -16.672  -1.160  0.00  0.00     0.038 A 
ATOM     10  C   UNL d   1      23.840 -17.570  -0.132  0.00  0.00     0.068 A 
ATOM     11  C   UNL d   1      24.913 -18.201   0.502  0.00  0.00     0.038 A 
ATOM     12  C   UNL d   1      26.251 -17.921   0.144  0.00  0.00     0.020 A 
BRANCH  10  13
ATOM     13  O   UNL d   1      22.521 -17.846   0.104  0.00  0.00    -0.349 OA
BRANCH  13  14
ATOM     14  C   UNL d   1      22.026 -19.077  -0.434  0.00  0.00     0.201 C 
BRANCH  14  15
ATOM     15  C   UNL d   1      20.704 -18.810  -1.154  0.00  0.00     0.194 C 
BRANCH  15  16
ATOM     16  O   UNL d   1      19.952 -20.021  -1.268  0.00  0.00    -0.389 OA
BRANCH  16  17
ATOM     17  C   UNL d   1      18.819 -19.999  -0.400  0.00  0.00     0.163 C 
ATOM     18  C   UNL d   1      19.110 -20.837   0.830  0.00  0.00     0.033 C 
ENDBRANCH  16  17
ENDBRANCH  15  16
ENDBRANCH  14  15
ENDBRANCH  13  14
ENDBRANCH  10  13
ENDBRANCH   4   7
ENDBRANCH   1   3
BRANCH   1  19
ATOM     19  N   UNL d   1      30.910 -17.026  -2.247  0.00  0.00    -0.273 N 
ATOM     20  H   UNL d   1      31.731 -17.585  -2.478  0.00  0.00     0.189 HD
BRANCH  19  21
ATOM     21  N   UNL d   1      30.179 -16.520  -3.409  0.00  0.00    -0.266 N 
ATOM     22  C   UNL d   1      30.734 -16.544  -4.686  0.00  0.00     0.260 C 
ATOM     23  O   UNL d   1      31.872 -16.980  -4.870  0.00  0.00    -0.269 OA
ATOM     24  H   UNL d   1      29.242 -16.169  -3.209  0.00  0.00     0.190 HD
BRANCH  22  25
ATOM     25  C   UNL d   1      29.831 -15.978  -5.835  0.00  0.00     0.280 C 
BRANCH  25  26
ATOM     26  O   UNL d   1      28.447 -15.950  -5.449  0.00  0.00    -0.342 OA
BRANCH  26  27
ATOM     27  C   UNL d   1      27.890 -14.752  -5.075  0.00  0.00     0.070 A 
ATOM     28  C   UNL d   1      26.595 -14.806  -4.541  0.00  0.00     0.045 A 
ATOM     29  C   UNL d   1      25.868 -13.630  -4.259  0.00  0.00    -0.037 A 
ATOM     30  C   UNL d   1      24.405 -13.701  -3.912  0.00  0.00     0.050 C 
ATOM     31  C   UNL d   1      26.492 -12.384  -4.417  0.00  0.00     0.046 A 
ATOM     32 CL   UNL d   1      25.666 -10.947  -3.892  0.00  0.00    -0.083 Cl
ATOM     33  C   UNL d   1      27.771 -12.309  -4.990  0.00  0.00    -0.037 A 
ATOM     34  C   UNL d   1      28.425 -10.999  -5.334  0.00  0.00     0.050 C 
ATOM     35  C   UNL d   1      28.454 -13.502  -5.326  0.00  0.00     0.045 A 
ENDBRANCH  26  27
ENDBRANCH  25  26
ENDBRANCH  22  25
ENDBRANCH  19  21
ENDBRANCH   1  19
TORSDOF 12
ENDMDL
MODEL 3
REMARK VINA RESULT:    -8.093      1.779      2.654
REMARK INTER + INTRA:         -13.992
REMARK INTER:                 -11.672
REMARK INTRA:                  -2.320
REMARK CONF_INDEPENDENT:        3.580
REMARK UNBOUND:                -2.320
REMARK  12 active torsions:
REMARK  status: ('A' for Active; 'I' for Inactive)
REMARK    1  A    between atoms: C_2  and  O_3 
REMARK    2  A    between atoms: O_3  and  C_4 
REMARK    3  A    between atoms: C_4  and  C_5 
REMARK    4  A    between atoms: C_5  and  O_6 
REMARK    5  A    between atoms: O_6  and  C_7 
REMARK    6  A    between atoms: C_10  and  C_11 
REMARK       I    between atoms: C_11  and  N_13 
REMARK    7  A    between atoms: N_13  and  C_14 
REMARK    8  A    between atoms: C_14  and  N_16 
REMARK    9  A    between atoms: N_16  and  N_17 
REMARK       I    between atoms: N_17  and  C_18 
REMARK   10  A    between atoms: C_18  and  C_20 
REMARK   11  A    between atoms: C_20  and  O_21 
REMARK   12  A    between atoms: O_21  and  C_22 
ROOT
ATOM      1  C   UNL d   1      29.762 -15.132  -0.453  0.00  0.00     0.193 C 
ATOM      2  S   UNL d   1      30.829 -15.332  -1.748  0.00  0.00    -0.039 SA
ENDROOT
BRANCH   1   3
ATOM      3  N   UNL d   1      28.395 -15.518  -0.450  0.00  0.00    -0.298 N 
ATOM      4  C   UNL d   1      27.889 -16.844  -0.488  0.00  0.00     0.257 C 
ATOM      5  O   UNL d   1      28.615 -17.844  -0.513  0.00  0.00    -0.267 OA
ATOM      6  H   UNL d   1      27.718 -14.771  -0.445  0.00  0.00     0.171 HD
BRANCH   4   7
ATOM      7  C   UNL d   1      26.410 -17.147  -0.539  0.00  0.00     0.032 A 
ATOM      8  C   UNL d   1      25.579 -16.267  -1.277  0.00  0.00     0.020 A 
ATOM      9  C   UNL d   1      24.181 -16.391  -1.279  0.00  0.00     0.038 A 
ATOM     10  C   UNL d   1      23.576 -17.443  -0.601  0.00  0.00     0.068 A 
ATOM     11  C   UNL d   1      24.387 -18.355   0.079  0.00  0.00     0.038 A 
ATOM     12  C   UNL d   1      25.791 -18.210   0.117  0.00  0.00     0.020 A 
BRANCH  10  13
ATOM     13  O   UNL d   1      22.221 -17.561  -0.748  0.00  0.00    -0.349 OA
BRANCH  13  14
ATOM     14  C   UNL d   1      21.639 -18.787  -0.290  0.00  0.00     0.201 C 
BRANCH  14  15
ATOM     15  C   UNL d   1      20.686 -19.316  -1.361  0.00  0.00     0.194 C 
BRANCH  15  16
ATOM     16  O   UNL d   1      19.464 -19.753  -0.760  0.00  0.00    -0.389 OA
BRANCH  16  17
ATOM     17  C   UNL d   1      19.720 -20.469   0.449  0.00  0.00     0.163 C 
ATOM     18  C   UNL d   1      18.406 -20.933   1.047  0.00  0.00     0.033 C 
ENDBRANCH  16  17
ENDBRANCH  15  16
ENDBRANCH  14  15
ENDBRANCH  13  14
ENDBRANCH  10  13
ENDBRANCH   4   7
ENDBRANCH   1   3
BRANCH   1  19
ATOM     19  N   UNL d   1      30.232 -14.538   0.735  0.00  0.00    -0.273 N 
ATOM     20  H   UNL d   1      31.116 -14.044   0.856  0.00  0.00     0.189 HD
BRANCH  19  21
ATOM     21  N   UNL d   1      29.403 -14.598   1.939  0.00  0.00    -0.266 N 
ATOM     22  C   UNL d   1      28.195 -13.910   2.026  0.00  0.00     0.260 C 
ATOM     23  O   UNL d   1      27.799 -13.213   1.091  0.00  0.00    -0.269 OA
ATOM     24  H   UNL d   1      29.771 -15.187   2.687  0.00  0.00     0.190 HD
BRANCH  22  25
ATOM     25  C   UNL d   1      27.410 -14.076   3.372  0.00  0.00     0.280 C 
BRANCH  25  26
ATOM     26  O   UNL d   1      28.240 -14.645   4.398  0.00  0.00    -0.342 OA
BRANCH  26  27
ATOM     27  C   UNL d   1      28.478 -13.915   5.535  0.00  0.00     0.070 A 
ATOM     28  C   UNL d   1      28.400 -12.521   5.410  0.00  0.00     0.045 A 
ATOM     29  C   UNL d   1      28.767 -11.666   6.472  0.00  0.00    -0.037 A 
ATOM     30  C   UNL d   1      28.904 -10.184   6.248  0.00  0.00     0.050 C 
ATOM     31  C   UNL d   1      29.116 -12.224   7.711  0.00  0.00     0.046 A 
ATOM     32 CL   UNL d   1      29.385 -11.173   9.070  0.00  0.00    -0.083 Cl
ATOM     33  C   UNL d   1      29.241 -13.615   7.842  0.00  0.00    -0.037 A 
ATOM     34  C   UNL d   1      29.766 -14.263   9.093  0.00  0.00     0.050 C 
ATOM     35  C   UNL d   1      28.930 -14.449   6.741  0.00  0.00     0.045 A 
ENDBRANCH  26  27
ENDBRANCH  25  26
ENDBRANCH  22  25
ENDBRANCH  19  21
ENDBRANCH   1  19
TORSDOF 12
ENDMDL
MODEL 4
REMARK VINA RESULT:    -7.697      6.660      8.946
REMARK INTER + INTRA:         -14.487
REMARK INTER:                 -11.277
REMARK INTRA:                  -3.211
REMARK CONF_INDEPENDENT:        3.580
REMARK UNBOUND:                -3.211
REMARK  12 active torsions:
REMARK  status: ('A' for Active; 'I' for Inactive)
REMARK    1  A    between atoms: C_2  and  O_3 
REMARK    2  A    between atoms: O_3  and  C_4 
REMARK    3  A    between atoms: C_4  and  C_5 
REMARK    4  A    between atoms: C_5  and  O_6 
REMARK    5  A    between atoms: O_6  and  C_7 
REMARK    6  A    between atoms: C_10  and  C_11 
REMARK       I    between atoms: C_11  and  N_13 
REMARK    7  A    between atoms: N_13  and  C_14 
REMARK    8  A    between atoms: C_14  and  N_16 
REMARK    9  A    between atoms: N_16  and  N_17 
REMARK       I    between atoms: N_17  and  C_18 
REMARK   10  A    between atoms: C_18  and  C_20 
REMARK   11  A    between atoms: C_20  and  O_21 
REMARK   12  A    between atoms: O_21  and  C_22 
ROOT
ATOM      1  C   UNL d   1      29.275 -14.078  -1.534  0.00  0.00     0.193 C 
ATOM      2  S   UNL d   1      29.126 -12.538  -0.854  0.00  0.00    -0.039 SA
ENDROOT
BRANCH   1   3
ATOM      3  N   UNL d   1      28.344 -15.138  -1.375  0.00  0.00    -0.298 N 
ATOM      4  C   UNL d   1      26.967 -15.016  -1.052  0.00  0.00     0.257 C 
ATOM      5  O   UNL d   1      26.407 -13.926  -0.883  0.00  0.00    -0.267 OA
ATOM      6  H   UNL d   1      28.706 -16.073  -1.479  0.00  0.00     0.171 HD
BRANCH   4   7
ATOM      7  C   UNL d   1      26.071 -16.214  -0.848  0.00  0.00     0.032 A 
ATOM      8  C   UNL d   1      25.001 -16.403  -1.757  0.00  0.00     0.020 A 
ATOM      9  C   UNL d   1      24.040 -17.412  -1.578  0.00  0.00     0.038 A 
ATOM     10  C   UNL d   1      24.164 -18.307  -0.522  0.00  0.00     0.068 A 
ATOM     11  C   UNL d   1      25.250 -18.172   0.347  0.00  0.00     0.038 A 
ATOM     12  C   UNL d   1      26.194 -17.134   0.193  0.00  0.00     0.020 A 
BRANCH  10  13
ATOM     13  O   UNL d   1      23.255 -19.330  -0.483  0.00  0.00    -0.349 OA
BRANCH  13  14
ATOM     14  C   UNL d   1      21.936 -18.987  -0.045  0.00  0.00     0.201 C 
BRANCH  14  15
ATOM     15  C   UNL d   1      21.030 -18.836  -1.267  0.00  0.00     0.194 C 
BRANCH  15  16
ATOM     16  O   UNL d   1      20.033 -19.862  -1.270  0.00  0.00    -0.389 OA
BRANCH  16  17
ATOM     17  C   UNL d   1      19.136 -19.703  -0.170  0.00  0.00     0.163 C 
ATOM     18  C   UNL d   1      19.356 -20.825   0.825  0.00  0.00     0.033 C 
ENDBRANCH  16  17
ENDBRANCH  15  16
ENDBRANCH  14  15
ENDBRANCH  13  14
ENDBRANCH  10  13
ENDBRANCH   4   7
ENDBRANCH   1   3
BRANCH   1  19
ATOM     19  N   UNL d   1      30.401 -14.367  -2.331  0.00  0.00    -0.273 N 
ATOM     20  H   UNL d   1      31.365 -14.448  -2.010  0.00  0.00     0.189 HD
BRANCH  19  21
ATOM     21  N   UNL d   1      30.220 -14.597  -3.765  0.00  0.00    -0.266 N 
ATOM     22  C   UNL d   1      29.639 -15.767  -4.247  0.00  0.00     0.260 C 
ATOM     23  O   UNL d   1      29.275 -16.654  -3.473  0.00  0.00    -0.269 OA
ATOM     24  H   UNL d   1      30.536 -13.836  -4.366  0.00  0.00     0.190 HD
BRANCH  22  25
ATOM     25  C   UNL d   1      29.500 -15.870  -5.804  0.00  0.00     0.280 C 
BRANCH  25  26
ATOM     26  O   UNL d   1      28.161 -15.574  -6.233  0.00  0.00    -0.342 OA
BRANCH  26  27
ATOM     27  C   UNL d   1      27.486 -14.545  -5.625  0.00  0.00     0.070 A 
ATOM     28  C   UNL d   1      28.151 -13.312  -5.564  0.00  0.00     0.045 A 
ATOM     29  C   UNL d   1      27.618 -12.226  -4.838  0.00  0.00    -0.037 A 
ATOM     30  C   UNL d   1      28.447 -10.995  -4.586  0.00  0.00     0.050 C 
ATOM     31  C   UNL d   1      26.349 -12.349  -4.252  0.00  0.00     0.046 A 
ATOM     32 CL   UNL d   1      25.612 -10.955  -3.520  0.00  0.00    -0.083 Cl
ATOM     33  C   UNL d   1      25.689 -13.587  -4.266  0.00  0.00    -0.037 A 
ATOM     34  C   UNL d   1      24.406 -13.825  -3.520  0.00  0.00     0.050 C 
ATOM     35  C   UNL d   1      26.275 -14.682  -4.947  0.00  0.00     0.045 A 
ENDBRANCH  26  27
ENDBRANCH  25  26
ENDBRANCH  22  25
ENDBRANCH  19  21
ENDBRANCH   1  19
TORSDOF 12
ENDMDL
MODEL 5
REMARK VINA RESULT:    -7.693      6.839      8.738
REMARK INTER + INTRA:         -14.849
REMARK INTER:                 -11.273
REMARK INTRA:                  -3.576
REMARK CONF_INDEPENDENT:        3.580
REMARK UNBOUND:                -3.576
REMARK  12 active torsions:
REMARK  status: ('A' for Active; 'I' for Inactive)
REMARK    1  A    between atoms: C_2  and  O_3 
REMARK    2  A    between atoms: O_3  and  C_4 
REMARK    3  A    between atoms: C_4  and  C_5 
REMARK    4  A    between atoms: C_5  and  O_6 
REMARK    5  A    between atoms: O_6  and  C_7 
REMARK    6  A    between atoms: C_10  and  C_11 
REMARK       I    between atoms: C_11  and  N_13 
REMARK    7  A    between atoms: N_13  and  C_14 
REMARK    8  A    between atoms: C_14  and  N_16 
REMARK    9  A    between atoms: N_16  and  N_17 
REMARK       I    between atoms: N_17  and  C_18 
REMARK   10  A    between atoms: C_18  and  C_20 
REMARK   11  A    between atoms: C_20  and  O_21 
REMARK   12  A    between atoms: O_21  and  C_22 
ROOT
ATOM      1  C   UNL d   1      30.662 -17.241  -0.821  0.00  0.00     0.193 C 
ATOM      2  S   UNL d   1      31.725 -16.774   0.406  0.00  0.00    -0.039 SA
ENDROOT
BRANCH   1   3
ATOM      3  N   UNL d   1      29.277 -17.508  -0.648  0.00  0.00    -0.298 N 
ATOM      4  C   UNL d   1      28.196 -16.692  -1.073  0.00  0.00     0.257 C 
ATOM      5  O   UNL d   1      28.353 -15.625  -1.679  0.00  0.00    -0.267 OA
ATOM      6  H   UNL d   1      29.042 -18.353  -0.149  0.00  0.00     0.171 HD
BRANCH   4   7
ATOM      7  C   UNL d   1      26.755 -17.040  -0.788  0.00  0.00     0.032 A 
ATOM      8  C   UNL d   1      25.750 -16.302  -1.463  0.00  0.00     0.020 A 
ATOM      9  C   UNL d   1      24.386 -16.464  -1.172  0.00  0.00     0.038 A 
ATOM     10  C   UNL d   1      23.982 -17.421  -0.247  0.00  0.00     0.068 A 
ATOM     11  C   UNL d   1      24.958 -18.199   0.380  0.00  0.00     0.038 A 
ATOM     12  C   UNL d   1      26.334 -18.011   0.119  0.00  0.00     0.020 A 
BRANCH  10  13
ATOM     13  O   UNL d   1      22.633 -17.597  -0.105  0.00  0.00    -0.349 OA
BRANCH  13  14
ATOM     14  C   UNL d   1      22.044 -18.635  -0.895  0.00  0.00     0.201 C 
BRANCH  14  15
ATOM     15  C   UNL d   1      20.960 -19.333  -0.073  0.00  0.00     0.194 C 
BRANCH  15  16
ATOM     16  O   UNL d   1      19.880 -19.733  -0.921  0.00  0.00    -0.389 OA
BRANCH  16  17
ATOM     17  C   UNL d   1      18.780 -20.215  -0.149  0.00  0.00     0.163 C 
ATOM     18  C   UNL d   1      19.229 -20.439   1.281  0.00  0.00     0.033 C 
ENDBRANCH  16  17
ENDBRANCH  15  16
ENDBRANCH  14  15
ENDBRANCH  13  14
ENDBRANCH  10  13
ENDBRANCH   4   7
ENDBRANCH   1   3
BRANCH   1  19
ATOM     19  N   UNL d   1      31.153 -17.385  -2.133  0.00  0.00    -0.273 N 
ATOM     20  H   UNL d   1      32.043 -17.802  -2.404  0.00  0.00     0.189 HD
BRANCH  19  21
ATOM     21  N   UNL d   1      30.337 -16.919  -3.256  0.00  0.00    -0.266 N 
ATOM     22  C   UNL d   1      30.889 -16.704  -4.516  0.00  0.00     0.260 C 
ATOM     23  O   UNL d   1      32.091 -16.884  -4.717  0.00  0.00    -0.269 OA
ATOM     24  H   UNL d   1      29.348 -16.784  -3.043  0.00  0.00     0.190 HD
BRANCH  22  25
ATOM     25  C   UNL d   1      29.893 -16.216  -5.624  0.00  0.00     0.280 C 
BRANCH  25  26
ATOM     26  O   UNL d   1      28.530 -16.300  -5.177  0.00  0.00    -0.342 OA
BRANCH  26  27
ATOM     27  C   UNL d   1      27.896 -15.152  -4.770  0.00  0.00     0.070 A 
ATOM     28  C   UNL d   1      28.710 -14.155  -4.213  0.00  0.00     0.045 A 
ATOM     29  C   UNL d   1      28.155 -12.997  -3.627  0.00  0.00    -0.037 A 
ATOM     30  C   UNL d   1      29.017 -12.055  -2.829  0.00  0.00     0.050 C 
ATOM     31  C   UNL d   1      26.769 -12.790  -3.697  0.00  0.00     0.046 A 
ATOM     32 CL   UNL d   1      26.106 -11.281  -3.146  0.00  0.00    -0.083 Cl
ATOM     33  C   UNL d   1      25.937 -13.796  -4.212  0.00  0.00    -0.037 A 
ATOM     34  C   UNL d   1      24.437 -13.702  -4.166  0.00  0.00     0.050 C 
ATOM     35  C   UNL d   1      26.514 -14.978  -4.734  0.00  0.00     0.045 A 
ENDBRANCH  26  27
ENDBRANCH  25  26
ENDBRANCH  22  25
ENDBRANCH  19  21
ENDBRANCH   1  19
TORSDOF 12
ENDMDL
MODEL 6
REMARK VINA RESULT:    -7.599      6.760      8.976
REMARK INTER + INTRA:         -14.088
REMARK INTER:                 -11.178
REMARK INTRA:                  -2.910
REMARK CONF_INDEPENDENT:        3.580
REMARK UNBOUND:                -2.910
REMARK  12 active torsions:
REMARK  status: ('A' for Active; 'I' for Inactive)
REMARK    1  A    between atoms: C_2  and  O_3 
REMARK    2  A    between atoms: O_3  and  C_4 
REMARK    3  A    between atoms: C_4  and  C_5 
REMARK    4  A    between atoms: C_5  and  O_6 
REMARK    5  A    between atoms: O_6  and  C_7 
REMARK    6  A    between atoms: C_10  and  C_11 
REMARK       I    between atoms: C_11  and  N_13 
REMARK    7  A    between atoms: N_13  and  C_14 
REMARK    8  A    between atoms: C_14  and  N_16 
REMARK    9  A    between atoms: N_16  and  N_17 
REMARK       I    between atoms: N_17  and  C_18 
REMARK   10  A    between atoms: C_18  and  C_20 
REMARK   11  A    between atoms: C_20  and  O_21 
REMARK   12  A    between atoms: O_21  and  C_22 
ROOT
ATOM      1  C   UNL d   1      27.054 -12.727  -1.475  0.00  0.00     0.193 C 
ATOM      2  S   UNL d   1      27.782 -11.815  -0.253  0.00  0.00    -0.039 SA
ENDROOT
BRANCH   1   3
ATOM      3  N   UNL d   1      26.253 -13.882  -1.269  0.00  0.00    -0.298 N 
ATOM      4  C   UNL d   1      26.703 -15.163  -0.853  0.00  0.00     0.257 C 
ATOM      5  O   UNL d   1      27.887 -15.414  -0.602  0.00  0.00    -0.267 OA
ATOM      6  H   UNL d   1      25.268 -13.785  -1.461  0.00  0.00     0.171 HD
BRANCH   4   7
ATOM      7  C   UNL d   1      25.773 -16.346  -0.718  0.00  0.00     0.032 A 
ATOM      8  C   UNL d   1      24.550 -16.310  -1.433  0.00  0.00     0.020 A 
ATOM      9  C   UNL d   1      23.566 -17.300  -1.274  0.00  0.00     0.038 A 
ATOM     10  C   UNL d   1      23.808 -18.392  -0.448  0.00  0.00     0.068 A 
ATOM     11  C   UNL d   1      25.035 -18.472   0.214  0.00  0.00     0.038 A 
ATOM     12  C   UNL d   1      26.010 -17.458   0.087  0.00  0.00     0.020 A 
BRANCH  10  13
ATOM     13  O   UNL d   1      22.849 -19.368  -0.437  0.00  0.00    -0.349 OA
BRANCH  13  14
ATOM     14  C   UNL d   1      21.520 -18.946  -0.113  0.00  0.00     0.201 C 
BRANCH  14  15
ATOM     15  C   UNL d   1      20.583 -19.327  -1.259  0.00  0.00     0.194 C 
BRANCH  15  16
ATOM     16  O   UNL d   1      19.303 -19.703  -0.744  0.00  0.00    -0.389 OA
BRANCH  16  17
ATOM     17  C   UNL d   1      19.426 -20.778   0.187  0.00  0.00     0.163 C 
ATOM     18  C   UNL d   1      18.046 -21.200   0.653  0.00  0.00     0.033 C 
ENDBRANCH  16  17
ENDBRANCH  15  16
ENDBRANCH  14  15
ENDBRANCH  13  14
ENDBRANCH  10  13
ENDBRANCH   4   7
ENDBRANCH   1   3
BRANCH   1  19
ATOM     19  N   UNL d   1      27.232 -12.339  -2.817  0.00  0.00    -0.273 N 
ATOM     20  H   UNL d   1      27.368 -11.388  -3.159  0.00  0.00     0.189 HD
BRANCH  19  21
ATOM     21  N   UNL d   1      27.245 -13.364  -3.862  0.00  0.00    -0.266 N 
ATOM     22  C   UNL d   1      26.093 -14.068  -4.204  0.00  0.00     0.260 C 
ATOM     23  O   UNL d   1      25.029 -13.858  -3.620  0.00  0.00    -0.269 OA
ATOM     24  H   UNL d   1      28.147 -13.503  -4.317  0.00  0.00     0.190 HD
BRANCH  22  25
ATOM     25  C   UNL d   1      26.255 -15.127  -5.348  0.00  0.00     0.280 C 
BRANCH  25  26
ATOM     26  O   UNL d   1      27.521 -14.992  -6.014  0.00  0.00    -0.342 OA
BRANCH  26  27
ATOM     27  C   UNL d   1      28.628 -15.577  -5.452  0.00  0.00     0.070 A 
ATOM     28  C   UNL d   1      29.646 -15.963  -6.336  0.00  0.00     0.045 A 
ATOM     29  C   UNL d   1      30.763 -16.703  -5.891  0.00  0.00    -0.037 A 
ATOM     30  C   UNL d   1      31.721 -17.310  -6.881  0.00  0.00     0.050 C 
ATOM     31  C   UNL d   1      30.909 -16.967  -4.521  0.00  0.00     0.046 A 
ATOM     32 CL   UNL d   1      32.373 -17.711  -3.951  0.00  0.00    -0.083 Cl
ATOM     33  C   UNL d   1      29.881 -16.626  -3.629  0.00  0.00    -0.037 A 
ATOM     34  C   UNL d   1      29.906 -17.025  -2.180  0.00  0.00     0.050 C 
ATOM     35  C   UNL d   1      28.739 -15.941  -4.111  0.00  0.00     0.045 A 
ENDBRANCH  26  27
ENDBRANCH  25  26
ENDBRANCH  22  25
ENDBRANCH  19  21
ENDBRANCH   1  19
TORSDOF 12
ENDMDL
MODEL 7
REMARK VINA RESULT:    -7.121      5.771      7.677
REMARK INTER + INTRA:         -14.334
REMARK INTER:                 -10.701
REMARK INTRA:                  -3.633
REMARK CONF_INDEPENDENT:        3.580
REMARK UNBOUND:                -3.633
REMARK  12 active torsions:
REMARK  status: ('A' for Active; 'I' for Inactive)
REMARK    1  A    between atoms: C_2  and  O_3 
REMARK    2  A    between atoms: O_3  and  C_4 
REMARK    3  A    between atoms: C_4  and  C_5 
REMARK    4  A    between atoms: C_5  and  O_6 
REMARK    5  A    between atoms: O_6  and  C_7 
REMARK    6  A    between atoms: C_10  and  C_11 
REMARK       I    between atoms: C_11  and  N_13 
REMARK    7  A    between atoms: N_13  and  C_14 
REMARK    8  A    between atoms: C_14  and  N_16 
REMARK    9  A    between atoms: N_16  and  N_17 
REMARK       I    between atoms: N_17  and  C_18 
REMARK   10  A    between atoms: C_18  and  C_20 
REMARK   11  A    between atoms: C_20  and  O_21 
REMARK   12  A    between atoms: O_21  and  C_22 
ROOT
ATOM      1  C   UNL d   1      29.710 -16.424   0.226  0.00  0.00     0.193 C 
ATOM      2  S   UNL d   1      30.922 -17.328  -0.528  0.00  0.00    -0.039 SA
ENDROOT
BRANCH   1   3
ATOM      3  N   UNL d   1      28.332 -16.767   0.258  0.00  0.00    -0.298 N 
ATOM      4  C   UNL d   1      27.488 -16.989  -0.862  0.00  0.00     0.257 C 
ATOM      5  O   UNL d   1      27.884 -16.920  -2.031  0.00  0.00    -0.267 OA
ATOM      6  H   UNL d   1      27.907 -16.834   1.170  0.00  0.00     0.171 HD
BRANCH   4   7
ATOM      7  C   UNL d   1      26.015 -17.293  -0.721  0.00  0.00     0.032 A 
ATOM      8  C   UNL d   1      25.107 -16.556  -1.521  0.00  0.00     0.020 A 
ATOM      9  C   UNL d   1      23.716 -16.676  -1.371  0.00  0.00     0.038 A 
ATOM     10  C   UNL d   1      23.192 -17.590  -0.464  0.00  0.00     0.068 A 
ATOM     11  C   UNL d   1      24.075 -18.369   0.287  0.00  0.00     0.038 A 
ATOM     12  C   UNL d   1      25.475 -18.222   0.168  0.00  0.00     0.020 A 
BRANCH  10  13
ATOM     13  O   UNL d   1      21.831 -17.729  -0.460  0.00  0.00    -0.349 OA
BRANCH  13  14
ATOM     14  C   UNL d   1      21.323 -18.995  -0.898  0.00  0.00     0.201 C 
BRANCH  14  15
ATOM     15  C   UNL d   1      19.795 -18.946  -0.894  0.00  0.00     0.194 C 
BRANCH  15  16
ATOM     16  O   UNL d   1      19.262 -20.254  -0.670  0.00  0.00    -0.389 OA
BRANCH  16  17
ATOM     17  C   UNL d   1      19.658 -20.752   0.608  0.00  0.00     0.163 C 
ATOM     18  C   UNL d   1      18.821 -20.091   1.686  0.00  0.00     0.033 C 
ENDBRANCH  16  17
ENDBRANCH  15  16
ENDBRANCH  14  15
ENDBRANCH  13  14
ENDBRANCH  10  13
ENDBRANCH   4   7
ENDBRANCH   1   3
BRANCH   1  19
ATOM     19  N   UNL d   1      30.059 -15.231   0.889  0.00  0.00    -0.273 N 
ATOM     20  H   UNL d   1      30.815 -15.111   1.562  0.00  0.00     0.189 HD
BRANCH  19  21
ATOM     21  N   UNL d   1      29.302 -14.011   0.607  0.00  0.00    -0.266 N 
ATOM     22  C   UNL d   1      27.980 -13.863   1.017  0.00  0.00     0.260 C 
ATOM     23  O   UNL d   1      27.402 -14.771   1.617  0.00  0.00    -0.269 OA
ATOM     24  H   UNL d   1      29.821 -13.287   0.108  0.00  0.00     0.190 HD
BRANCH  22  25
ATOM     25  C   UNL d   1      27.300 -12.498   0.655  0.00  0.00     0.280 C 
BRANCH  25  26
ATOM     26  O   UNL d   1      27.788 -11.984  -0.594  0.00  0.00    -0.342 OA
BRANCH  26  27
ATOM     27  C   UNL d   1      27.564 -12.706  -1.739  0.00  0.00     0.070 A 
ATOM     28  C   UNL d   1      26.224 -12.872  -2.119  0.00  0.00     0.045 A 
ATOM     29  C   UNL d   1      25.865 -13.716  -3.192  0.00  0.00    -0.037 A 
ATOM     30  C   UNL d   1      24.422 -14.068  -3.438  0.00  0.00     0.050 C 
ATOM     31  C   UNL d   1      26.874 -14.317  -3.959  0.00  0.00     0.046 A 
ATOM     32 CL   UNL d   1      26.440 -15.201  -5.392  0.00  0.00    -0.083 Cl
ATOM     33  C   UNL d   1      28.216 -14.197  -3.568  0.00  0.00    -0.037 A 
ATOM     34  C   UNL d   1      29.325 -14.947  -4.252  0.00  0.00     0.050 C 
ATOM     35  C   UNL d   1      28.546 -13.397  -2.447  0.00  0.00     0.045 A 
ENDBRANCH  26  27
ENDBRANCH  25  26
ENDBRANCH  22  25
ENDBRANCH  19  21
ENDBRANCH   1  19
TORSDOF 12
ENDMDL
MODEL 8
REMARK VINA RESULT:    -6.977      5.539      7.978
REMARK INTER + INTRA:         -14.100
REMARK INTER:                 -10.557
REMARK INTRA:                  -3.543
REMARK CONF_INDEPENDENT:        3.580
REMARK UNBOUND:                -3.543
REMARK  12 active torsions:
REMARK  status: ('A' for Active; 'I' for Inactive)
REMARK    1  A    between atoms: C_2  and  O_3 
REMARK    2  A    between atoms: O_3  and  C_4 
REMARK    3  A    between atoms: C_4  and  C_5 
REMARK    4  A    between atoms: C_5  and  O_6 
REMARK    5  A    between atoms: O_6  and  C_7 
REMARK    6  A    between atoms: C_10  and  C_11 
REMARK       I    between atoms: C_11  and  N_13 
REMARK    7  A    between atoms: N_13  and  C_14 
REMARK    8  A    between atoms: C_14  and  N_16 
REMARK    9  A    between atoms: N_16  and  N_17 
REMARK       I    between atoms: N_17  and  C_18 
REMARK   10  A    between atoms: C_18  and  C_20 
REMARK   11  A    between atoms: C_20  and  O_21 
REMARK   12  A    between atoms: O_21  and  C_22 
ROOT
ATOM      1  C   UNL d   1      29.214 -14.236   1.384  0.00  0.00     0.193 C 
ATOM      2  S   UNL d   1      30.852 -14.517   1.690  0.00  0.00    -0.039 SA
ENDROOT
BRANCH   1   3
ATOM      3  N   UNL d   1      28.259 -15.233   1.053  0.00  0.00    -0.298 N 
ATOM      4  C   UNL d   1      27.456 -15.284  -0.117  0.00  0.00     0.257 C 
ATOM      5  O   UNL d   1      27.518 -14.436  -1.016  0.00  0.00    -0.267 OA
ATOM      6  H   UNL d   1      28.123 -15.967   1.731  0.00  0.00     0.171 HD
BRANCH   4   7
ATOM      7  C   UNL d   1      26.425 -16.363  -0.348  0.00  0.00     0.032 A 
ATOM      8  C   UNL d   1      25.390 -16.100  -1.280  0.00  0.00     0.020 A 
ATOM      9  C   UNL d   1      24.316 -16.985  -1.470  0.00  0.00     0.038 A 
ATOM     10  C   UNL d   1      24.285 -18.194  -0.784  0.00  0.00     0.068 A 
ATOM     11  C   UNL d   1      25.332 -18.495   0.091  0.00  0.00     0.038 A 
ATOM     12  C   UNL d   1      26.392 -17.588   0.314  0.00  0.00     0.020 A 
BRANCH  10  13
ATOM     13  O   UNL d   1      23.269 -19.051  -1.110  0.00  0.00    -0.349 OA
BRANCH  13  14
ATOM     14  C   UNL d   1      22.075 -18.943  -0.326  0.00  0.00     0.201 C 
BRANCH  14  15
ATOM     15  C   UNL d   1      20.882 -18.749  -1.262  0.00  0.00     0.194 C 
BRANCH  15  16
ATOM     16  O   UNL d   1      19.935 -19.805  -1.077  0.00  0.00    -0.389 OA
BRANCH  16  17
ATOM     17  C   UNL d   1      19.566 -19.921   0.297  0.00  0.00     0.163 C 
ATOM     18  C   UNL d   1      18.396 -20.877   0.425  0.00  0.00     0.033 C 
ENDBRANCH  16  17
ENDBRANCH  15  16
ENDBRANCH  14  15
ENDBRANCH  13  14
ENDBRANCH  10  13
ENDBRANCH   4   7
ENDBRANCH   1   3
BRANCH   1  19
ATOM     19  N   UNL d   1      28.722 -12.918   1.457  0.00  0.00    -0.273 N 
ATOM     20  H   UNL d   1      28.628 -12.352   2.300  0.00  0.00     0.189 HD
BRANCH  19  21
ATOM     21  N   UNL d   1      28.302 -12.244   0.228  0.00  0.00    -0.266 N 
ATOM     22  C   UNL d   1      27.777 -10.954   0.248  0.00  0.00     0.260 C 
ATOM     23  O   UNL d   1      27.634 -10.349   1.311  0.00  0.00    -0.269 OA
ATOM     24  H   UNL d   1      28.439 -12.783  -0.628  0.00  0.00     0.190 HD
BRANCH  22  25
ATOM     25  C   UNL d   1      27.381 -10.356  -1.146  0.00  0.00     0.280 C 
BRANCH  25  26
ATOM     26  O   UNL d   1      28.107 -10.986  -2.213  0.00  0.00    -0.342 OA
BRANCH  26  27
ATOM     27  C   UNL d   1      27.540 -12.059  -2.855  0.00  0.00     0.070 A 
ATOM     28  C   UNL d   1      28.373 -12.780  -3.721  0.00  0.00     0.045 A 
ATOM     29  C   UNL d   1      27.863 -13.808  -4.543  0.00  0.00    -0.037 A 
ATOM     30  C   UNL d   1      28.713 -14.410  -5.631  0.00  0.00     0.050 C 
ATOM     31  C   UNL d   1      26.519 -14.186  -4.414  0.00  0.00     0.046 A 
ATOM     32 CL   UNL d   1      25.938 -15.573  -5.287  0.00  0.00    -0.083 Cl
ATOM     33  C   UNL d   1      25.661 -13.448  -3.585  0.00  0.00    -0.037 A 
ATOM     34  C   UNL d   1      24.180 -13.701  -3.527  0.00  0.00     0.050 C 
ATOM     35  C   UNL d   1      26.183 -12.378  -2.819  0.00  0.00     0.045 A 
ENDBRANCH  26  27
ENDBRANCH  25  26
ENDBRANCH  22  25
ENDBRANCH  19  21
ENDBRANCH   1  19
TORSDOF 12
ENDMDL
MODEL 9
REMARK VINA RESULT:    -6.437      4.109      9.504
REMARK INTER + INTRA:         -14.097
REMARK INTER:                 -10.016
REMARK INTRA:                  -4.081
REMARK CONF_INDEPENDENT:        3.580
REMARK UNBOUND:                -4.081
REMARK  12 active torsions:
REMARK  status: ('A' for Active; 'I' for Inactive)
REMARK    1  A    between atoms: C_2  and  O_3 
REMARK    2  A    between atoms: O_3  and  C_4 
REMARK    3  A    between atoms: C_4  and  C_5 
REMARK    4  A    between atoms: C_5  and  O_6 
REMARK    5  A    between atoms: O_6  and  C_7 
REMARK    6  A    between atoms: C_10  and  C_11 
REMARK       I    between atoms: C_11  and  N_13 
REMARK    7  A    between atoms: N_13  and  C_14 
REMARK    8  A    between atoms: C_14  and  N_16 
REMARK    9  A    between atoms: N_16  and  N_17 
REMARK       I    between atoms: N_17  and  C_18 
REMARK   10  A    between atoms: C_18  and  C_20 
REMARK   11  A    between atoms: C_20  and  O_21 
REMARK   12  A    between atoms: O_21  and  C_22 
ROOT
ATOM      1  C   UNL d   1      29.439 -12.529  -3.287  0.00  0.00     0.193 C 
ATOM      2  S   UNL d   1      30.279 -11.124  -3.705  0.00  0.00    -0.039 SA
ENDROOT
BRANCH   1   3
ATOM      3  N   UNL d   1      29.179 -12.965  -1.961  0.00  0.00    -0.298 N 
ATOM      4  C   UNL d   1      27.938 -12.898  -1.273  0.00  0.00     0.257 C 
ATOM      5  O   UNL d   1      26.906 -12.448  -1.785  0.00  0.00    -0.267 OA
ATOM      6  H   UNL d   1      29.964 -13.337  -1.449  0.00  0.00     0.171 HD
BRANCH   4   7
ATOM      7  C   UNL d   1      27.781 -13.338   0.163  0.00  0.00     0.032 A 
ATOM      8  C   UNL d   1      26.792 -12.695   0.948  0.00  0.00     0.020 A 
ATOM      9  C   UNL d   1      26.655 -12.944   2.323  0.00  0.00     0.038 A 
ATOM     10  C   UNL d   1      27.458 -13.897   2.939  0.00  0.00     0.068 A 
ATOM     11  C   UNL d   1      28.395 -14.585   2.164  0.00  0.00     0.038 A 
ATOM     12  C   UNL d   1      28.562 -14.308   0.789  0.00  0.00     0.020 A 
BRANCH  10  13
ATOM     13  O   UNL d   1      27.184 -14.164   4.253  0.00  0.00    -0.349 OA
BRANCH  13  14
ATOM     14  C   UNL d   1      28.216 -14.826   4.992  0.00  0.00     0.201 C 
BRANCH  14  15
ATOM     15  C   UNL d   1      28.557 -13.993   6.227  0.00  0.00     0.194 C 
BRANCH  15  16
ATOM     16  O   UNL d   1      27.755 -12.809   6.258  0.00  0.00    -0.389 OA
BRANCH  16  17
ATOM     17  C   UNL d   1      28.549 -11.651   6.001  0.00  0.00     0.163 C 
ATOM     18  C   UNL d   1      27.780 -10.704   5.100  0.00  0.00     0.033 C 
ENDBRANCH  16  17
ENDBRANCH  15  16
ENDBRANCH  14  15
ENDBRANCH  13  14
ENDBRANCH  10  13
ENDBRANCH   4   7
ENDBRANCH   1   3
BRANCH   1  19
ATOM     19  N   UNL d   1      28.939 -13.357  -4.312  0.00  0.00    -0.273 N 
ATOM     20  H   UNL d   1      29.444 -13.663  -5.143  0.00  0.00     0.189 HD
BRANCH  19  21
ATOM     21  N   UNL d   1      27.572 -13.868  -4.214  0.00  0.00    -0.266 N 
ATOM     22  C   UNL d   1      27.074 -14.796  -5.125  0.00  0.00     0.260 C 
ATOM     23  O   UNL d   1      27.772 -15.202  -6.055  0.00  0.00    -0.269 OA
ATOM     24  H   UNL d   1      27.031 -13.504  -3.428  0.00  0.00     0.190 HD
BRANCH  22  25
ATOM     25  C   UNL d   1      25.596 -15.261  -4.889  0.00  0.00     0.280 C 
BRANCH  25  26
ATOM     26  O   UNL d   1      25.109 -14.830  -3.608  0.00  0.00    -0.342 OA
BRANCH  26  27
ATOM     27  C   UNL d   1      25.368 -15.608  -2.507  0.00  0.00     0.070 A 
ATOM     28  C   UNL d   1      26.718 -15.797  -2.181  0.00  0.00     0.045 A 
ATOM     29  C   UNL d   1      27.110 -16.693  -1.162  0.00  0.00    -0.037 A 
ATOM     30  C   UNL d   1      28.558 -17.060  -0.983  0.00  0.00     0.050 C 
ATOM     31  C   UNL d   1      26.124 -17.327  -0.392  0.00  0.00     0.046 A 
ATOM     32 CL   UNL d   1      26.601 -18.281   0.981  0.00  0.00    -0.083 Cl
ATOM     33  C   UNL d   1      24.770 -17.184  -0.732  0.00  0.00    -0.037 A 
ATOM     34  C   UNL d   1      23.681 -17.964  -0.049  0.00  0.00     0.050 C 
ATOM     35  C   UNL d   1      24.407 -16.330  -1.801  0.00  0.00     0.045 A 
ENDBRANCH  26  27
ENDBRANCH  25  26
ENDBRANCH  22  25
ENDBRANCH  19  21
ENDBRANCH   1  19
TORSDOF 12
ENDMDL
