MODEL 1
REMARK VINA RESULT:    -8.706      0.000      0.000
REMARK INTER + INTRA:         -10.980
REMARK INTER:                 -10.197
REMARK INTRA:                  -0.783
REMARK CONF_INDEPENDENT:        1.492
REMARK UNBOUND:                -0.783
REMARK  5 active torsions:
REMARK  status: ('A' for Active; 'I' for Inactive)
REMARK    1  A    between atoms: C_5  and  C_6 
REMARK    2  A    between atoms: C_9  and  S_10 
REMARK    3  A    between atoms: S_10  and  C_11 
REMARK    4  A    between atoms: C_11  and  C_12 
REMARK       I    between atoms: C_12  and  N_14 
REMARK    5  A    between atoms: C_15  and  N_14 
ROOT
ATOM      1  C   UNL d   1      28.641 -15.330  -5.415  0.00  0.00     0.229 C 
ATOM      2  O   UNL d   1      27.544 -14.903  -5.775  0.00  0.00    -0.273 OA
ATOM      3  N   UNL d   1      29.387 -16.077  -6.329  0.00  0.00    -0.330 N 
ATOM      4  H   UNL d   1      28.991 -16.084  -7.260  0.00  0.00     0.165 HD
ENDROOT
BRANCH   1   5
ATOM      5  C   UNL d   1      29.186 -15.167  -3.990  0.00  0.00     0.180 C 
BRANCH   5   6
ATOM      6  S   UNL d   1      29.056 -16.518  -2.788  0.00  0.00    -0.112 SA
BRANCH   6   7
ATOM      7  C   UNL d   1      27.749 -16.018  -1.553  0.00  0.00     0.267 C 
ATOM      8  N   UNL d   1      27.877 -16.767  -0.324  0.00  0.00    -0.279 N 
ATOM      9  N   UNL d   1      26.650 -17.225   0.142  0.00  0.00    -0.158 NA
ATOM     10  H   UNL d   1      28.609 -16.512   0.325  0.00  0.00     0.185 HD
ATOM     11  C   UNL d   1      25.775 -16.943  -0.816  0.00  0.00     0.157 C 
ATOM     12  N   UNL d   1      26.333 -16.118  -1.806  0.00  0.00    -0.337 N 
ATOM     13  C   UNL d   1      25.782 -15.721  -3.027  0.00  0.00     0.154 C 
BRANCH  11  14
ATOM     14  C   UNL d   1      24.339 -17.469  -0.769  0.00  0.00     0.011 A 
ATOM     15  C   UNL d   1      23.258 -16.614  -0.929  0.00  0.00     0.016 A 
ATOM     16  C   UNL d   1      21.929 -17.107  -0.894  0.00  0.00     0.007 A 
ATOM     17  C   UNL d   1      21.645 -18.468  -0.704  0.00  0.00    -0.062 A 
ATOM     18  C   UNL d   1      20.251 -19.017  -0.674  0.00  0.00     0.048 C 
ATOM     19  C   UNL d   1      22.708 -19.325  -0.510  0.00  0.00     0.007 A 
ATOM     20  C   UNL d   1      24.006 -18.804  -0.499  0.00  0.00     0.016 A 
ENDBRANCH  11  14
ENDBRANCH   6   7
ENDBRANCH   5   6
ENDBRANCH   1   5
BRANCH   3  21
ATOM     21  C   UNL d   1      30.750 -16.597  -6.254  0.00  0.00     0.264 A 
ATOM     22  O   UNL d   1      31.501 -16.074  -7.388  0.00  0.00    -0.353 OA
ATOM     23  C   UNL d   1      31.952 -17.183  -8.230  0.00  0.00     0.152 A 
ATOM     24  C   UNL d   1      31.380 -18.395  -7.633  0.00  0.00    -0.017 A 
ATOM     25  C   UNL d   1      33.471 -17.333  -8.206  0.00  0.00     0.044 C 
ATOM     26  C   UNL d   1      30.797 -18.031  -6.517  0.00  0.00     0.066 A 
ATOM     27  C   UNL d   1      31.603 -19.799  -8.071  0.00  0.00     0.105 C 
ATOM     28  C   UNL d   1      30.732 -19.049  -5.518  0.00  0.00     0.266 C 
ATOM     29  O   UNL d   1      30.660 -18.668  -4.380  0.00  0.00    -0.266 OA
ATOM     30  N   UNL d   1      30.733 -20.372  -5.959  0.00  0.00    -0.287 N 
ATOM     31  N   UNL d   1      30.957 -20.798  -7.236  0.00  0.00    -0.229 NA
ATOM     32  H   UNL d   1      30.632 -21.106  -5.265  0.00  0.00     0.184 HD
ATOM     33  H   UNL d   1      30.127 -21.216  -7.664  0.00  0.00     0.147 HD
ATOM     34  C   UNL d   1      30.942 -19.963  -9.415  0.00  0.00     0.033 C 
ENDBRANCH   3  21
TORSDOF 5
ENDMDL
MODEL 2
REMARK VINA RESULT:    -8.559      3.178      5.105
REMARK INTER + INTRA:         -10.562
REMARK INTER:                 -10.050
REMARK INTRA:                  -0.512
REMARK CONF_INDEPENDENT:        1.492
REMARK UNBOUND:                -0.512
REMARK  5 active torsions:
REMARK  status: ('A' for Active; 'I' for Inactive)
REMARK    1  A    between atoms: C_5  and  C_6 
REMARK    2  A    between atoms: C_9  and  S_10 
REMARK    3  A    between atoms: S_10  and  C_11 
REMARK    4  A    between atoms: C_11  and  C_12 
REMARK       I    between atoms: C_12  and  N_14 
REMARK    5  A    between atoms: C_15  and  N_14 
ROOT
ATOM      1  C   UNL d   1      29.110 -16.227  -4.014  0.00  0.00     0.229 C 
ATOM      2  O   UNL d   1      29.945 -17.120  -3.868  0.00  0.00    -0.273 OA
ATOM      3  N   UNL d   1      28.861 -15.766  -5.309  0.00  0.00    -0.330 N 
ATOM      4  H   UNL d   1      29.316 -16.317  -6.025  0.00  0.00     0.165 HD
ENDROOT
BRANCH   1   5
ATOM      5  C   UNL d   1      28.403 -15.530  -2.844  0.00  0.00     0.180 C 
BRANCH   5   6
ATOM      6  S   UNL d   1      29.204 -15.400  -1.224  0.00  0.00    -0.112 SA
BRANCH   6   7
ATOM      7  C   UNL d   1      28.107 -16.294  -0.006  0.00  0.00     0.267 C 
ATOM      8  N   UNL d   1      28.228 -17.728  -0.148  0.00  0.00    -0.279 N 
ATOM      9  N   UNL d   1      26.992 -18.363  -0.126  0.00  0.00    -0.158 NA
ATOM     10  H   UNL d   1      29.046 -18.185   0.231  0.00  0.00     0.185 HD
ATOM     11  C   UNL d   1      26.089 -17.391  -0.143  0.00  0.00     0.157 C 
ATOM     12  N   UNL d   1      26.676 -16.129   0.048  0.00  0.00    -0.337 N 
ATOM     13  C   UNL d   1      26.085 -14.867  -0.041  0.00  0.00     0.154 C 
BRANCH  11  14
ATOM     14  C   UNL d   1      24.599 -17.685  -0.328  0.00  0.00     0.011 A 
ATOM     15  C   UNL d   1      23.696 -16.667  -0.601  0.00  0.00     0.016 A 
ATOM     16  C   UNL d   1      22.318 -16.945  -0.781  0.00  0.00     0.007 A 
ATOM     17  C   UNL d   1      21.805 -18.248  -0.698  0.00  0.00    -0.062 A 
ATOM     18  C   UNL d   1      20.354 -18.571  -0.894  0.00  0.00     0.048 C 
ATOM     19  C   UNL d   1      22.683 -19.267  -0.393  0.00  0.00     0.007 A 
ATOM     20  C   UNL d   1      24.029 -18.957  -0.172  0.00  0.00     0.016 A 
ENDBRANCH  11  14
ENDBRANCH   6   7
ENDBRANCH   5   6
ENDBRANCH   1   5
BRANCH   3  21
ATOM     21  C   UNL d   1      27.860 -14.833  -5.817  0.00  0.00     0.264 A 
ATOM     22  O   UNL d   1      28.546 -13.632  -6.275  0.00  0.00    -0.353 OA
ATOM     23  C   UNL d   1      28.094 -12.481  -5.492  0.00  0.00     0.152 A 
ATOM     24  C   UNL d   1      27.181 -13.022  -4.479  0.00  0.00    -0.017 A 
ATOM     25  C   UNL d   1      27.303 -11.490  -6.342  0.00  0.00     0.044 C 
ATOM     26  C   UNL d   1      27.028 -14.296  -4.746  0.00  0.00     0.066 A 
ATOM     27  C   UNL d   1      26.394 -12.249  -3.480  0.00  0.00     0.105 C 
ATOM     28  C   UNL d   1      25.782 -14.849  -4.321  0.00  0.00     0.266 C 
ATOM     29  O   UNL d   1      25.399 -15.815  -4.926  0.00  0.00    -0.266 OA
ATOM     30  N   UNL d   1      25.151 -14.235  -3.240  0.00  0.00    -0.287 N 
ATOM     31  N   UNL d   1      25.517 -13.059  -2.651  0.00  0.00    -0.229 NA
ATOM     32  H   UNL d   1      24.292 -14.649  -2.891  0.00  0.00     0.184 HD
ATOM     33  H   UNL d   1      25.858 -13.186  -1.695  0.00  0.00     0.147 HD
ATOM     34  C   UNL d   1      27.372 -11.651  -2.502  0.00  0.00     0.033 C 
ENDBRANCH   3  21
TORSDOF 5
ENDMDL
MODEL 3
REMARK VINA RESULT:    -8.276      4.028      5.454
REMARK INTER + INTRA:         -10.609
REMARK INTER:                  -9.767
REMARK INTRA:                  -0.842
REMARK CONF_INDEPENDENT:        1.492
REMARK UNBOUND:                -0.842
REMARK  5 active torsions:
REMARK  status: ('A' for Active; 'I' for Inactive)
REMARK    1  A    between atoms: C_5  and  C_6 
REMARK    2  A    between atoms: C_9  and  S_10 
REMARK    3  A    between atoms: S_10  and  C_11 
REMARK    4  A    between atoms: C_11  and  C_12 
REMARK       I    between atoms: C_12  and  N_14 
REMARK    5  A    between atoms: C_15  and  N_14 
ROOT
ATOM      1  C   UNL d   1      26.018 -14.202  -4.559  0.00  0.00     0.229 C 
ATOM      2  O   UNL d   1      25.014 -14.817  -4.195  0.00  0.00    -0.273 OA
ATOM      3  N   UNL d   1      25.848 -12.915  -5.072  0.00  0.00    -0.330 N 
ATOM      4  H   UNL d   1      24.904 -12.564  -4.974  0.00  0.00     0.165 HD
ENDROOT
BRANCH   1   5
ATOM      5  C   UNL d   1      27.426 -14.811  -4.567  0.00  0.00     0.180 C 
BRANCH   5   6
ATOM      6  S   UNL d   1      28.641 -14.353  -3.303  0.00  0.00    -0.112 SA
BRANCH   6   7
ATOM      7  C   UNL d   1      28.122 -15.200  -1.723  0.00  0.00     0.267 C 
ATOM      8  N   UNL d   1      28.536 -16.585  -1.712  0.00  0.00    -0.279 N 
ATOM      9  N   UNL d   1      27.528 -17.430  -1.261  0.00  0.00    -0.158 NA
ATOM     10  H   UNL d   1      29.506 -16.800  -1.526  0.00  0.00     0.185 HD
ATOM     11  C   UNL d   1      26.448 -16.668  -1.143  0.00  0.00     0.157 C 
ATOM     12  N   UNL d   1      26.753 -15.304  -1.287  0.00  0.00    -0.337 N 
ATOM     13  C   UNL d   1      25.880 -14.216  -1.362  0.00  0.00     0.154 C 
BRANCH  11  14
ATOM     14  C   UNL d   1      25.070 -17.270  -0.860  0.00  0.00     0.011 A 
ATOM     15  C   UNL d   1      24.938 -18.578  -0.415  0.00  0.00     0.016 A 
ATOM     16  C   UNL d   1      23.660 -19.129  -0.145  0.00  0.00     0.007 A 
ATOM     17  C   UNL d   1      22.480 -18.387  -0.308  0.00  0.00    -0.062 A 
ATOM     18  C   UNL d   1      21.118 -18.942  -0.020  0.00  0.00     0.048 C 
ATOM     19  C   UNL d   1      22.592 -17.097  -0.782  0.00  0.00     0.007 A 
ATOM     20  C   UNL d   1      23.862 -16.595  -1.087  0.00  0.00     0.016 A 
ENDBRANCH  11  14
ENDBRANCH   6   7
ENDBRANCH   5   6
ENDBRANCH   1   5
BRANCH   3  21
ATOM     21  C   UNL d   1      26.826 -11.901  -5.455  0.00  0.00     0.264 A 
ATOM     22  O   UNL d   1      26.114 -10.657  -5.721  0.00  0.00    -0.353 OA
ATOM     23  C   UNL d   1      26.316 -10.266  -7.117  0.00  0.00     0.152 A 
ATOM     24  C   UNL d   1      27.095 -11.350  -7.726  0.00  0.00    -0.017 A 
ATOM     25  C   UNL d   1      27.140  -8.986  -7.235  0.00  0.00     0.044 C 
ATOM     26  C   UNL d   1      27.412 -12.179  -6.761  0.00  0.00     0.066 A 
ATOM     27  C   UNL d   1      27.626 -11.399  -9.115  0.00  0.00     0.105 C 
ATOM     28  C   UNL d   1      28.616 -12.914  -6.979  0.00  0.00     0.266 C 
ATOM     29  O   UNL d   1      29.186 -13.299  -5.992  0.00  0.00    -0.266 OA
ATOM     30  N   UNL d   1      28.996 -13.134  -8.303  0.00  0.00    -0.287 N 
ATOM     31  N   UNL d   1      28.426 -12.576  -9.410  0.00  0.00    -0.229 NA
ATOM     32  H   UNL d   1      29.820 -13.701  -8.474  0.00  0.00     0.184 HD
ATOM     33  H   UNL d   1      27.943 -13.264  -9.994  0.00  0.00     0.147 HD
ATOM     34  C   UNL d   1      26.446 -11.516 -10.045  0.00  0.00     0.033 C 
ENDBRANCH   3  21
TORSDOF 5
ENDMDL
MODEL 4
REMARK VINA RESULT:    -7.943      4.358      7.271
REMARK INTER + INTRA:         -10.405
REMARK INTER:                  -9.435
REMARK INTRA:                  -0.970
REMARK CONF_INDEPENDENT:        1.492
REMARK UNBOUND:                -0.970
REMARK  5 active torsions:
REMARK  status: ('A' for Active; 'I' for Inactive)
REMARK    1  A    between atoms: C_5  and  C_6 
REMARK    2  A    between atoms: C_9  and  S_10 
REMARK    3  A    between atoms: S_10  and  C_11 
REMARK    4  A    between atoms: C_11  and  C_12 
REMARK       I    between atoms: C_12  and  N_14 
REMARK    5  A    between atoms: C_15  and  N_14 
ROOT
ATOM      1  C   UNL d   1      25.985 -13.917  -4.663  0.00  0.00     0.229 C 
ATOM      2  O   UNL d   1      25.125 -14.698  -4.253  0.00  0.00    -0.273 OA
ATOM      3  N   UNL d   1      25.598 -12.608  -4.955  0.00  0.00    -0.330 N 
ATOM      4  H   UNL d   1      24.650 -12.397  -4.674  0.00  0.00     0.165 HD
ENDROOT
BRANCH   1   5
ATOM      5  C   UNL d   1      27.432 -14.334  -4.958  0.00  0.00     0.180 C 
BRANCH   5   6
ATOM      6  S   UNL d   1      28.778 -13.870  -3.837  0.00  0.00    -0.112 SA
BRANCH   6   7
ATOM      7  C   UNL d   1      28.466 -14.756  -2.224  0.00  0.00     0.267 C 
ATOM      8  N   UNL d   1      28.873 -16.141  -2.300  0.00  0.00    -0.279 N 
ATOM      9  N   UNL d   1      27.930 -16.997  -1.744  0.00  0.00    -0.158 NA
ATOM     10  H   UNL d   1      29.859 -16.360  -2.248  0.00  0.00     0.185 HD
ATOM     11  C   UNL d   1      26.876 -16.238  -1.468  0.00  0.00     0.157 C 
ATOM     12  N   UNL d   1      27.164 -14.871  -1.616  0.00  0.00    -0.337 N 
ATOM     13  C   UNL d   1      26.292 -13.782  -1.552  0.00  0.00     0.154 C 
BRANCH  11  14
ATOM     14  C   UNL d   1      25.545 -16.847  -1.023  0.00  0.00     0.011 A 
ATOM     15  C   UNL d   1      24.336 -16.272  -1.389  0.00  0.00     0.016 A 
ATOM     16  C   UNL d   1      23.105 -16.845  -0.983  0.00  0.00     0.007 A 
ATOM     17  C   UNL d   1      23.048 -18.011  -0.205  0.00  0.00    -0.062 A 
ATOM     18  C   UNL d   1      21.760 -18.643   0.229  0.00  0.00     0.048 C 
ATOM     19  C   UNL d   1      24.241 -18.575   0.196  0.00  0.00     0.007 A 
ATOM     20  C   UNL d   1      25.440 -17.961  -0.178  0.00  0.00     0.016 A 
ENDBRANCH  11  14
ENDBRANCH   6   7
ENDBRANCH   5   6
ENDBRANCH   1   5
BRANCH   3  21
ATOM     21  C   UNL d   1      26.388 -11.436  -5.322  0.00  0.00     0.264 A 
ATOM     22  O   UNL d   1      27.747 -11.631  -4.833  0.00  0.00    -0.353 OA
ATOM     23  C   UNL d   1      28.074 -10.584  -3.864  0.00  0.00     0.152 A 
ATOM     24  C   UNL d   1      26.847  -9.795  -3.701  0.00  0.00    -0.017 A 
ATOM     25  C   UNL d   1      29.158  -9.644  -4.385  0.00  0.00     0.044 C 
ATOM     26  C   UNL d   1      25.982 -10.253  -4.572  0.00  0.00     0.066 A 
ATOM     27  C   UNL d   1      26.676  -8.567  -2.878  0.00  0.00     0.105 C 
ATOM     28  C   UNL d   1      25.015  -9.298  -5.010  0.00  0.00     0.266 C 
ATOM     29  O   UNL d   1      24.534  -9.493  -6.094  0.00  0.00    -0.266 OA
ATOM     30  N   UNL d   1      24.709  -8.257  -4.134  0.00  0.00    -0.287 N 
ATOM     31  N   UNL d   1      25.358  -7.962  -2.970  0.00  0.00    -0.229 NA
ATOM     32  H   UNL d   1      23.984  -7.601  -4.408  0.00  0.00     0.184 HD
ATOM     33  H   UNL d   1      24.776  -8.118  -2.143  0.00  0.00     0.147 HD
ATOM     34  C   UNL d   1      26.791  -8.975  -1.432  0.00  0.00     0.033 C 
ENDBRANCH   3  21
TORSDOF 5
ENDMDL
MODEL 5
REMARK VINA RESULT:    -7.886      4.723      7.613
REMARK INTER + INTRA:         -10.546
REMARK INTER:                  -9.378
REMARK INTRA:                  -1.168
REMARK CONF_INDEPENDENT:        1.492
REMARK UNBOUND:                -1.168
REMARK  5 active torsions:
REMARK  status: ('A' for Active; 'I' for Inactive)
REMARK    1  A    between atoms: C_5  and  C_6 
REMARK    2  A    between atoms: C_9  and  S_10 
REMARK    3  A    between atoms: S_10  and  C_11 
REMARK    4  A    between atoms: C_11  and  C_12 
REMARK       I    between atoms: C_12  and  N_14 
REMARK    5  A    between atoms: C_15  and  N_14 
ROOT
ATOM      1  C   UNL d   1      25.944 -13.663  -4.621  0.00  0.00     0.229 C 
ATOM      2  O   UNL d   1      25.083 -14.543  -4.642  0.00  0.00    -0.273 OA
ATOM      3  N   UNL d   1      25.525 -12.338  -4.489  0.00  0.00    -0.330 N 
ATOM      4  H   UNL d   1      24.537 -12.246  -4.294  0.00  0.00     0.165 HD
ENDROOT
BRANCH   1   5
ATOM      5  C   UNL d   1      27.439 -13.939  -4.830  0.00  0.00     0.180 C 
BRANCH   5   6
ATOM      6  S   UNL d   1      28.656 -13.443  -3.583  0.00  0.00    -0.112 SA
BRANCH   6   7
ATOM      7  C   UNL d   1      28.404 -14.561  -2.109  0.00  0.00     0.267 C 
ATOM      8  N   UNL d   1      28.784 -15.922  -2.413  0.00  0.00    -0.279 N 
ATOM      9  N   UNL d   1      27.852 -16.843  -1.947  0.00  0.00    -0.158 NA
ATOM     10  H   UNL d   1      29.767 -16.156  -2.441  0.00  0.00     0.185 HD
ATOM     11  C   UNL d   1      26.826 -16.124  -1.510  0.00  0.00     0.157 C 
ATOM     12  N   UNL d   1      27.129 -14.754  -1.464  0.00  0.00    -0.337 N 
ATOM     13  C   UNL d   1      26.280 -13.679  -1.194  0.00  0.00     0.154 C 
BRANCH  11  14
ATOM     14  C   UNL d   1      25.506 -16.781  -1.099  0.00  0.00     0.011 A 
ATOM     15  C   UNL d   1      24.296 -16.124  -1.268  0.00  0.00     0.016 A 
ATOM     16  C   UNL d   1      23.075 -16.740  -0.895  0.00  0.00     0.007 A 
ATOM     17  C   UNL d   1      23.030 -18.030  -0.347  0.00  0.00    -0.062 A 
ATOM     18  C   UNL d   1      21.752 -18.708   0.046  0.00  0.00     0.048 C 
ATOM     19  C   UNL d   1      24.227 -18.683  -0.141  0.00  0.00     0.007 A 
ATOM     20  C   UNL d   1      25.419 -18.032  -0.472  0.00  0.00     0.016 A 
ENDBRANCH  11  14
ENDBRANCH   6   7
ENDBRANCH   5   6
ENDBRANCH   1   5
BRANCH   3  21
ATOM     21  C   UNL d   1      26.289 -11.107  -4.303  0.00  0.00     0.264 A 
ATOM     22  O   UNL d   1      25.903 -10.519  -3.027  0.00  0.00    -0.353 OA
ATOM     23  C   UNL d   1      25.311  -9.200  -3.254  0.00  0.00     0.152 A 
ATOM     24  C   UNL d   1      25.259  -9.032  -4.711  0.00  0.00    -0.017 A 
ATOM     25  C   UNL d   1      26.184  -8.080  -2.694  0.00  0.00     0.044 C 
ATOM     26  C   UNL d   1      25.873 -10.065  -5.235  0.00  0.00     0.066 A 
ATOM     27  C   UNL d   1      24.809  -7.827  -5.458  0.00  0.00     0.105 C 
ATOM     28  C   UNL d   1      26.467  -9.822  -6.510  0.00  0.00     0.266 C 
ATOM     29  O   UNL d   1      27.397 -10.527  -6.802  0.00  0.00    -0.266 OA
ATOM     30  N   UNL d   1      25.900  -8.818  -7.294  0.00  0.00    -0.287 N 
ATOM     31  N   UNL d   1      24.940  -7.931  -6.901  0.00  0.00    -0.229 NA
ATOM     32  H   UNL d   1      26.277  -8.670  -8.225  0.00  0.00     0.184 HD
ATOM     33  H   UNL d   1      24.049  -8.074  -7.385  0.00  0.00     0.147 HD
ATOM     34  C   UNL d   1      23.326  -7.685  -5.234  0.00  0.00     0.033 C 
ENDBRANCH   3  21
TORSDOF 5
ENDMDL
MODEL 6
REMARK VINA RESULT:    -7.573      5.455      7.840
REMARK INTER + INTRA:         -10.458
REMARK INTER:                  -9.065
REMARK INTRA:                  -1.393
REMARK CONF_INDEPENDENT:        1.492
REMARK UNBOUND:                -1.393
REMARK  5 active torsions:
REMARK  status: ('A' for Active; 'I' for Inactive)
REMARK    1  A    between atoms: C_5  and  C_6 
REMARK    2  A    between atoms: C_9  and  S_10 
REMARK    3  A    between atoms: S_10  and  C_11 
REMARK    4  A    between atoms: C_11  and  C_12 
REMARK       I    between atoms: C_12  and  N_14 
REMARK    5  A    between atoms: C_15  and  N_14 
ROOT
ATOM      1  C   UNL d   1      27.642 -17.042  -0.506  0.00  0.00     0.229 C 
ATOM      2  O   UNL d   1      27.434 -18.245  -0.337  0.00  0.00    -0.273 OA
ATOM      3  N   UNL d   1      28.393 -16.364   0.456  0.00  0.00    -0.330 N 
ATOM      4  H   UNL d   1      28.806 -16.976   1.148  0.00  0.00     0.165 HD
ENDROOT
BRANCH   1   5
ATOM      5  C   UNL d   1      27.038 -16.235  -1.663  0.00  0.00     0.180 C 
BRANCH   5   6
ATOM      6  S   UNL d   1      25.265 -16.321  -2.027  0.00  0.00    -0.112 SA
BRANCH   6   7
ATOM      7  C   UNL d   1      24.446 -17.102  -0.542  0.00  0.00     0.267 C 
ATOM      8  N   UNL d   1      24.890 -18.465  -0.356  0.00  0.00    -0.279 N 
ATOM      9  N   UNL d   1      23.835 -19.326  -0.077  0.00  0.00    -0.158 NA
ATOM     10  H   UNL d   1      25.804 -18.627   0.044  0.00  0.00     0.185 HD
ATOM     11  C   UNL d   1      22.732 -18.606  -0.240  0.00  0.00     0.157 C 
ATOM     12  N   UNL d   1      23.019 -17.241  -0.401  0.00  0.00    -0.337 N 
ATOM     13  C   UNL d   1      22.150 -16.198  -0.729  0.00  0.00     0.154 C 
BRANCH  11  14
ATOM     14  C   UNL d   1      21.344 -19.251  -0.218  0.00  0.00     0.011 A 
ATOM     15  C   UNL d   1      20.457 -19.076  -1.270  0.00  0.00     0.016 A 
ATOM     16  C   UNL d   1      19.176 -19.683  -1.250  0.00  0.00     0.007 A 
ATOM     17  C   UNL d   1      18.749 -20.485  -0.181  0.00  0.00    -0.062 A 
ATOM     18  C   UNL d   1      17.405 -21.147  -0.140  0.00  0.00     0.048 C 
ATOM     19  C   UNL d   1      19.607 -20.641   0.888  0.00  0.00     0.007 A 
ATOM     20  C   UNL d   1      20.845 -19.990   0.864  0.00  0.00     0.016 A 
ENDBRANCH  11  14
ENDBRANCH   6   7
ENDBRANCH   5   6
ENDBRANCH   1   5
BRANCH   3  21
ATOM     21  C   UNL d   1      28.913 -15.000   0.476  0.00  0.00     0.264 A 
ATOM     22  O   UNL d   1      30.315 -15.052   0.869  0.00  0.00    -0.353 OA
ATOM     23  C   UNL d   1      30.501 -14.314   2.119  0.00  0.00     0.152 A 
ATOM     24  C   UNL d   1      29.160 -13.886   2.533  0.00  0.00    -0.017 A 
ATOM     25  C   UNL d   1      31.343 -13.056   1.918  0.00  0.00     0.044 C 
ATOM     26  C   UNL d   1      28.340 -14.218   1.566  0.00  0.00     0.066 A 
ATOM     27  C   UNL d   1      28.813 -13.037   3.705  0.00  0.00     0.105 C 
ATOM     28  C   UNL d   1      27.177 -13.396   1.461  0.00  0.00     0.266 C 
ATOM     29  O   UNL d   1      26.667 -13.340   0.374  0.00  0.00    -0.266 OA
ATOM     30  N   UNL d   1      26.738 -12.765   2.625  0.00  0.00    -0.287 N 
ATOM     31  N   UNL d   1      27.400 -12.719   3.818  0.00  0.00    -0.229 NA
ATOM     32  H   UNL d   1      25.882 -12.221   2.578  0.00  0.00     0.184 HD
ATOM     33  H   UNL d   1      26.919 -13.240   4.556  0.00  0.00     0.147 HD
ATOM     34  C   UNL d   1      29.107 -13.840   4.945  0.00  0.00     0.033 C 
ENDBRANCH   3  21
TORSDOF 5
ENDMDL
MODEL 7
REMARK VINA RESULT:    -7.257      4.052      5.429
REMARK INTER + INTRA:         -11.555
REMARK INTER:                  -8.748
REMARK INTRA:                  -2.806
REMARK CONF_INDEPENDENT:        1.492
REMARK UNBOUND:                -2.806
REMARK  5 active torsions:
REMARK  status: ('A' for Active; 'I' for Inactive)
REMARK    1  A    between atoms: C_5  and  C_6 
REMARK    2  A    between atoms: C_9  and  S_10 
REMARK    3  A    between atoms: S_10  and  C_11 
REMARK    4  A    between atoms: C_11  and  C_12 
REMARK       I    between atoms: C_12  and  N_14 
REMARK    5  A    between atoms: C_15  and  N_14 
ROOT
ATOM      1  C   UNL d   1      30.203 -12.772  -3.386  0.00  0.00     0.229 C 
ATOM      2  O   UNL d   1      31.226 -13.222  -2.867  0.00  0.00    -0.273 OA
ATOM      3  N   UNL d   1      29.978 -13.046  -4.736  0.00  0.00    -0.330 N 
ATOM      4  H   UNL d   1      30.634 -13.709  -5.127  0.00  0.00     0.165 HD
ENDROOT
BRANCH   1   5
ATOM      5  C   UNL d   1      29.220 -11.849  -2.655  0.00  0.00     0.180 C 
BRANCH   5   6
ATOM      6  S   UNL d   1      28.519 -12.325  -1.053  0.00  0.00    -0.112 SA
BRANCH   6   7
ATOM      7  C   UNL d   1      28.410 -14.189  -1.044  0.00  0.00     0.267 C 
ATOM      8  N   UNL d   1      28.226 -14.709  -2.380  0.00  0.00    -0.279 N 
ATOM      9  N   UNL d   1      27.251 -15.699  -2.428  0.00  0.00    -0.158 NA
ATOM     10  H   UNL d   1      29.023 -14.744  -3.001  0.00  0.00     0.185 HD
ATOM     11  C   UNL d   1      26.696 -15.714  -1.222  0.00  0.00     0.157 C 
ATOM     12  N   UNL d   1      27.413 -14.925  -0.308  0.00  0.00    -0.337 N 
ATOM     13  C   UNL d   1      27.076 -14.582   1.003  0.00  0.00     0.154 C 
BRANCH  11  14
ATOM     14  C   UNL d   1      25.439 -16.536  -0.930  0.00  0.00     0.011 A 
ATOM     15  C   UNL d   1      25.528 -17.825  -0.424  0.00  0.00     0.016 A 
ATOM     16  C   UNL d   1      24.361 -18.580  -0.145  0.00  0.00     0.007 A 
ATOM     17  C   UNL d   1      23.073 -18.065  -0.361  0.00  0.00    -0.062 A 
ATOM     18  C   UNL d   1      21.823 -18.838  -0.065  0.00  0.00     0.048 C 
ATOM     19  C   UNL d   1      22.968 -16.798  -0.895  0.00  0.00     0.007 A 
ATOM     20  C   UNL d   1      24.137 -16.095  -1.206  0.00  0.00     0.016 A 
ENDBRANCH  11  14
ENDBRANCH   6   7
ENDBRANCH   5   6
ENDBRANCH   1   5
BRANCH   3  21
ATOM     21  C   UNL d   1      28.822 -12.775  -5.587  0.00  0.00     0.264 A 
ATOM     22  O   UNL d   1      28.372 -11.414  -5.326  0.00  0.00    -0.353 OA
ATOM     23  C   UNL d   1      27.005 -11.442  -4.805  0.00  0.00     0.152 A 
ATOM     24  C   UNL d   1      26.660 -12.862  -4.667  0.00  0.00    -0.017 A 
ATOM     25  C   UNL d   1      26.011 -10.822  -5.784  0.00  0.00     0.044 C 
ATOM     26  C   UNL d   1      27.655 -13.546  -5.177  0.00  0.00     0.066 A 
ATOM     27  C   UNL d   1      25.350 -13.428  -4.246  0.00  0.00     0.105 C 
ATOM     28  C   UNL d   1      27.292 -14.825  -5.699  0.00  0.00     0.266 C 
ATOM     29  O   UNL d   1      28.007 -15.265  -6.561  0.00  0.00    -0.266 OA
ATOM     30  N   UNL d   1      26.172 -15.443  -5.145  0.00  0.00    -0.287 N 
ATOM     31  N   UNL d   1      25.287 -14.879  -4.272  0.00  0.00    -0.229 NA
ATOM     32  H   UNL d   1      25.934 -16.376  -5.468  0.00  0.00     0.184 HD
ATOM     33  H   UNL d   1      25.321 -15.309  -3.344  0.00  0.00     0.147 HD
ATOM     34  C   UNL d   1      25.155 -13.080  -2.793  0.00  0.00     0.033 C 
ENDBRANCH   3  21
TORSDOF 5
ENDMDL
MODEL 8
REMARK VINA RESULT:    -7.169      3.330      7.738
REMARK INTER + INTRA:         -10.548
REMARK INTER:                  -8.660
REMARK INTRA:                  -1.888
REMARK CONF_INDEPENDENT:        1.492
REMARK UNBOUND:                -1.888
REMARK  5 active torsions:
REMARK  status: ('A' for Active; 'I' for Inactive)
REMARK    1  A    between atoms: C_5  and  C_6 
REMARK    2  A    between atoms: C_9  and  S_10 
REMARK    3  A    between atoms: S_10  and  C_11 
REMARK    4  A    between atoms: C_11  and  C_12 
REMARK       I    between atoms: C_12  and  N_14 
REMARK    5  A    between atoms: C_15  and  N_14 
ROOT
ATOM      1  C   UNL d   1      25.989 -14.921  -4.736  0.00  0.00     0.229 C 
ATOM      2  O   UNL d   1      26.079 -15.579  -5.773  0.00  0.00    -0.273 OA
ATOM      3  N   UNL d   1      25.556 -15.573  -3.579  0.00  0.00    -0.330 N 
ATOM      4  H   UNL d   1      25.478 -16.576  -3.689  0.00  0.00     0.165 HD
ENDROOT
BRANCH   1   5
ATOM      5  C   UNL d   1      26.233 -13.407  -4.672  0.00  0.00     0.180 C 
BRANCH   5   6
ATOM      6  S   UNL d   1      27.352 -12.599  -5.845  0.00  0.00    -0.112 SA
BRANCH   6   7
ATOM      7  C   UNL d   1      28.903 -13.635  -5.913  0.00  0.00     0.267 C 
ATOM      8  N   UNL d   1      28.723 -14.792  -6.760  0.00  0.00    -0.279 N 
ATOM      9  N   UNL d   1      29.234 -15.949  -6.182  0.00  0.00    -0.158 NA
ATOM     10  H   UNL d   1      28.745 -14.668  -7.763  0.00  0.00     0.185 HD
ATOM     11  C   UNL d   1      29.579 -15.610  -4.946  0.00  0.00     0.157 C 
ATOM     12  N   UNL d   1      29.522 -14.220  -4.751  0.00  0.00    -0.337 N 
ATOM     13  C   UNL d   1      29.677 -13.497  -3.567  0.00  0.00     0.154 C 
BRANCH  11  14
ATOM     14  C   UNL d   1      30.001 -16.660  -3.916  0.00  0.00     0.011 A 
ATOM     15  C   UNL d   1      30.754 -17.765  -4.287  0.00  0.00     0.016 A 
ATOM     16  C   UNL d   1      31.152 -18.730  -3.328  0.00  0.00     0.007 A 
ATOM     17  C   UNL d   1      30.811 -18.615  -1.972  0.00  0.00    -0.062 A 
ATOM     18  C   UNL d   1      31.227 -19.616  -0.936  0.00  0.00     0.048 C 
ATOM     19  C   UNL d   1      30.033 -17.541  -1.593  0.00  0.00     0.007 A 
ATOM     20  C   UNL d   1      29.615 -16.630  -2.569  0.00  0.00     0.016 A 
ENDBRANCH  11  14
ENDBRANCH   6   7
ENDBRANCH   5   6
ENDBRANCH   1   5
BRANCH   3  21
ATOM     21  C   UNL d   1      25.474 -15.114  -2.196  0.00  0.00     0.264 A 
ATOM     22  O   UNL d   1      26.808 -14.710  -1.769  0.00  0.00    -0.353 OA
ATOM     23  C   UNL d   1      27.239 -15.548  -0.650  0.00  0.00     0.152 A 
ATOM     24  C   UNL d   1      26.173 -16.539  -0.459  0.00  0.00    -0.017 A 
ATOM     25  C   UNL d   1      27.360 -14.749   0.646  0.00  0.00     0.044 C 
ATOM     26  C   UNL d   1      25.201 -16.212  -1.276  0.00  0.00     0.066 A 
ATOM     27  C   UNL d   1      26.095 -17.576   0.604  0.00  0.00     0.105 C 
ATOM     28  C   UNL d   1      23.901 -16.616  -0.846  0.00  0.00     0.266 C 
ATOM     29  O   UNL d   1      22.980 -15.968  -1.268  0.00  0.00    -0.266 OA
ATOM     30  N   UNL d   1      23.826 -17.728  -0.007  0.00  0.00    -0.287 N 
ATOM     31  N   UNL d   1      24.877 -18.370   0.580  0.00  0.00    -0.229 NA
ATOM     32  H   UNL d   1      22.905 -18.060   0.263  0.00  0.00     0.184 HD
ATOM     33  H   UNL d   1      25.012 -19.317   0.219  0.00  0.00     0.147 HD
ATOM     34  C   UNL d   1      27.189 -18.577   0.338  0.00  0.00     0.033 C 
ENDBRANCH   3  21
TORSDOF 5
ENDMDL
MODEL 9
REMARK VINA RESULT:    -6.996      1.723      2.365
REMARK INTER + INTRA:         -10.561
REMARK INTER:                  -8.488
REMARK INTRA:                  -2.073
REMARK CONF_INDEPENDENT:        1.492
REMARK UNBOUND:                -2.073
REMARK  5 active torsions:
REMARK  status: ('A' for Active; 'I' for Inactive)
REMARK    1  A    between atoms: C_5  and  C_6 
REMARK    2  A    between atoms: C_9  and  S_10 
REMARK    3  A    between atoms: S_10  and  C_11 
REMARK    4  A    between atoms: C_11  and  C_12 
REMARK       I    between atoms: C_12  and  N_14 
REMARK    5  A    between atoms: C_15  and  N_14 
ROOT
ATOM      1  C   UNL d   1      26.803 -14.803  -3.800  0.00  0.00     0.229 C 
ATOM      2  O   UNL d   1      25.616 -15.131  -3.789  0.00  0.00    -0.273 OA
ATOM      3  N   UNL d   1      27.698 -15.603  -4.512  0.00  0.00    -0.330 N 
ATOM      4  H   UNL d   1      27.245 -16.320  -5.064  0.00  0.00     0.165 HD
ENDROOT
BRANCH   1   5
ATOM      5  C   UNL d   1      27.361 -13.622  -2.996  0.00  0.00     0.180 C 
BRANCH   5   6
ATOM      6  S   UNL d   1      28.615 -13.883  -1.715  0.00  0.00    -0.112 SA
BRANCH   6   7
ATOM      7  C   UNL d   1      28.039 -15.325  -0.680  0.00  0.00     0.267 C 
ATOM      8  N   UNL d   1      28.318 -16.584  -1.335  0.00  0.00    -0.279 N 
ATOM      9  N   UNL d   1      27.240 -17.459  -1.271  0.00  0.00    -0.158 NA
ATOM     10  H   UNL d   1      29.266 -16.936  -1.325  0.00  0.00     0.185 HD
ATOM     11  C   UNL d   1      26.239 -16.757  -0.752  0.00  0.00     0.157 C 
ATOM     12  N   UNL d   1      26.672 -15.513  -0.265  0.00  0.00    -0.337 N 
ATOM     13  C   UNL d   1      25.906 -14.450   0.220  0.00  0.00     0.154 C 
BRANCH  11  14
ATOM     14  C   UNL d   1      24.814 -17.311  -0.703  0.00  0.00     0.011 A 
ATOM     15  C   UNL d   1      24.578 -18.666  -0.518  0.00  0.00     0.016 A 
ATOM     16  C   UNL d   1      23.256 -19.174  -0.463  0.00  0.00     0.007 A 
ATOM     17  C   UNL d   1      22.134 -18.342  -0.588  0.00  0.00    -0.062 A 
ATOM     18  C   UNL d   1      20.725 -18.852  -0.524  0.00  0.00     0.048 C 
ATOM     19  C   UNL d   1      22.351 -16.998  -0.808  0.00  0.00     0.007 A 
ATOM     20  C   UNL d   1      23.666 -16.532  -0.906  0.00  0.00     0.016 A 
ENDBRANCH  11  14
ENDBRANCH   6   7
ENDBRANCH   5   6
ENDBRANCH   1   5
BRANCH   3  21
ATOM     21  C   UNL d   1      29.113 -15.415  -4.821  0.00  0.00     0.264 A 
ATOM     22  O   UNL d   1      29.234 -15.119  -6.243  0.00  0.00    -0.353 OA
ATOM     23  C   UNL d   1      30.029 -16.161  -6.894  0.00  0.00     0.152 A 
ATOM     24  C   UNL d   1      30.315 -17.154  -5.852  0.00  0.00    -0.017 A 
ATOM     25  C   UNL d   1      31.367 -15.625  -7.397  0.00  0.00     0.044 C 
ATOM     26  C   UNL d   1      29.859 -16.664  -4.725  0.00  0.00     0.066 A 
ATOM     27  C   UNL d   1      31.156 -18.374  -5.985  0.00  0.00     0.105 C 
ATOM     28  C   UNL d   1      30.540 -17.123  -3.557  0.00  0.00     0.266 C 
ATOM     29  O   UNL d   1      30.502 -16.393  -2.602  0.00  0.00    -0.266 OA
ATOM     30  N   UNL d   1      31.154 -18.373  -3.630  0.00  0.00    -0.287 N 
ATOM     31  N   UNL d   1      31.315 -19.130  -4.754  0.00  0.00    -0.229 NA
ATOM     32  H   UNL d   1      31.596 -18.737  -2.791  0.00  0.00     0.184 HD
ATOM     33  H   UNL d   1      30.767 -19.994  -4.730  0.00  0.00     0.147 HD
ATOM     34  C   UNL d   1      30.433 -19.322  -6.906  0.00  0.00     0.033 C 
ENDBRANCH   3  21
TORSDOF 5
ENDMDL
