MODEL 1
REMARK VINA RESULT:    -7.835      0.000      0.000
REMARK INTER + INTRA:          -9.994
REMARK INTER:                  -8.730
REMARK INTRA:                  -1.265
REMARK CONF_INDEPENDENT:        0.895
REMARK UNBOUND:                -1.265
REMARK  3 active torsions:
REMARK  status: ('A' for Active; 'I' for Inactive)
REMARK    1  A    between atoms: C_5  and  N_6 
REMARK       I    between atoms: N_6  and  C_7 
REMARK    2  A    between atoms: C_7  and  C_9 
REMARK    3  A    between atoms: C_17  and  O_18 
ROOT
ATOM      1  N   UNL d   1      22.105 -18.526   0.622  0.00  0.00    -0.320 N 
ATOM      2  C   UNL d   1      23.206 -18.906  -0.145  0.00  0.00     0.258 C 
ATOM      3  O   UNL d   1      23.368 -19.982  -0.717  0.00  0.00    -0.267 OA
ATOM      4  H   UNL d   1      22.145 -17.633   1.089  0.00  0.00     0.169 HD
ENDROOT
BRANCH   1   5
ATOM      5  C   UNL d   1      20.917 -19.314   0.778  0.00  0.00     0.068 A 
ATOM      6  C   UNL d   1      20.402 -19.598   2.052  0.00  0.00     0.033 A 
ATOM      7  C   UNL d   1      19.240 -20.348   2.247  0.00  0.00     0.009 A 
ATOM      8  C   UNL d   1      18.540 -20.845   1.158  0.00  0.00    -0.059 A 
ATOM      9  C   UNL d   1      17.280 -21.630   1.345  0.00  0.00     0.048 C 
ATOM     10  C   UNL d   1      19.039 -20.594  -0.125  0.00  0.00     0.045 A 
ATOM     11  C   UNL d   1      20.212 -19.847  -0.315  0.00  0.00     0.092 A 
BRANCH  11  12
ATOM     12  O   UNL d   1      20.570 -19.699  -1.628  0.00  0.00    -0.358 OA
ATOM     13  H   UNL d   1      21.503 -19.468  -1.699  0.00  0.00     0.217 HD
ENDBRANCH  11  12
ENDBRANCH   1   5
BRANCH   2  14
ATOM     14  C   UNL d   1      24.337 -17.960  -0.270  0.00  0.00     0.054 A 
ATOM     15  C   UNL d   1      25.651 -18.428  -0.130  0.00  0.00     0.020 A 
ATOM     16  C   UNL d   1      26.727 -17.570  -0.383  0.00  0.00     0.025 A 
ATOM     17  C   UNL d   1      26.493 -16.254  -0.784  0.00  0.00     0.035 A 
ATOM     18 CL   UNL d   1      27.822 -15.202  -1.083  0.00  0.00    -0.084 Cl
ATOM     19  C   UNL d   1      25.195 -15.783  -0.943  0.00  0.00     0.048 A 
ATOM     20  C   UNL d   1      24.115 -16.634  -0.691  0.00  0.00     0.051 A 
ATOM     21 CL   UNL d   1      22.537 -15.950  -0.895  0.00  0.00    -0.083 Cl
ENDBRANCH   2  14
TORSDOF 3
ENDMDL
MODEL 2
REMARK VINA RESULT:    -6.675      4.158      8.409
REMARK INTER + INTRA:          -8.220
REMARK INTER:                  -7.570
REMARK INTRA:                  -0.650
REMARK CONF_INDEPENDENT:        0.895
REMARK UNBOUND:                -0.650
REMARK  3 active torsions:
REMARK  status: ('A' for Active; 'I' for Inactive)
REMARK    1  A    between atoms: C_5  and  N_6 
REMARK       I    between atoms: N_6  and  C_7 
REMARK    2  A    between atoms: C_7  and  C_9 
REMARK    3  A    between atoms: C_17  and  O_18 
ROOT
ATOM      1  N   UNL d   1      25.479 -15.916  -3.057  0.00  0.00    -0.320 N 
ATOM      2  C   UNL d   1      25.295 -15.781  -1.681  0.00  0.00     0.258 C 
ATOM      3  O   UNL d   1      25.949 -15.072  -0.918  0.00  0.00    -0.267 OA
ATOM      4  H   UNL d   1      24.908 -16.591  -3.541  0.00  0.00     0.169 HD
ENDROOT
BRANCH   1   5
ATOM      5  C   UNL d   1      26.412 -15.147  -3.828  0.00  0.00     0.068 A 
ATOM      6  C   UNL d   1      27.772 -15.490  -3.866  0.00  0.00     0.033 A 
ATOM      7  C   UNL d   1      28.710 -14.778  -4.616  0.00  0.00     0.009 A 
ATOM      8  C   UNL d   1      28.314 -13.681  -5.368  0.00  0.00    -0.059 A 
ATOM      9  C   UNL d   1      29.300 -12.919  -6.197  0.00  0.00     0.048 C 
ATOM     10  C   UNL d   1      26.968 -13.303  -5.336  0.00  0.00     0.045 A 
ATOM     11  C   UNL d   1      26.030 -14.017  -4.574  0.00  0.00     0.092 A 
BRANCH  11  12
ATOM     12  O   UNL d   1      24.759 -13.514  -4.641  0.00  0.00    -0.358 OA
ATOM     13  H   UNL d   1      24.780 -12.572  -4.844  0.00  0.00     0.217 HD
ENDBRANCH  11  12
ENDBRANCH   1   5
BRANCH   2  14
ATOM     14  C   UNL d   1      24.247 -16.595  -1.027  0.00  0.00     0.054 A 
ATOM     15  C   UNL d   1      22.896 -16.309  -1.270  0.00  0.00     0.020 A 
ATOM     16  C   UNL d   1      21.904 -17.159  -0.767  0.00  0.00     0.025 A 
ATOM     17  C   UNL d   1      22.258 -18.292  -0.034  0.00  0.00     0.035 A 
ATOM     18 CL   UNL d   1      21.031 -19.325   0.590  0.00  0.00    -0.084 Cl
ATOM     19  C   UNL d   1      23.595 -18.595   0.198  0.00  0.00     0.048 A 
ATOM     20  C   UNL d   1      24.591 -17.752  -0.300  0.00  0.00     0.051 A 
ATOM     21 CL   UNL d   1      26.225 -18.200   0.061  0.00  0.00    -0.083 Cl
ENDBRANCH   2  14
TORSDOF 3
ENDMDL
MODEL 3
REMARK VINA RESULT:    -5.914      5.031      7.104
REMARK INTER + INTRA:          -7.508
REMARK INTER:                  -6.809
REMARK INTRA:                  -0.698
REMARK CONF_INDEPENDENT:        0.895
REMARK UNBOUND:                -0.698
REMARK  3 active torsions:
REMARK  status: ('A' for Active; 'I' for Inactive)
REMARK    1  A    between atoms: C_5  and  N_6 
REMARK       I    between atoms: N_6  and  C_7 
REMARK    2  A    between atoms: C_7  and  C_9 
REMARK    3  A    between atoms: C_17  and  O_18 
ROOT
ATOM      1  N   UNL d   1      26.783 -15.413  -3.199  0.00  0.00    -0.320 N 
ATOM      2  C   UNL d   1      26.299 -14.877  -4.392  0.00  0.00     0.258 C 
ATOM      3  O   UNL d   1      25.158 -14.986  -4.838  0.00  0.00    -0.267 OA
ATOM      4  H   UNL d   1      27.764 -15.297  -2.998  0.00  0.00     0.169 HD
ENDROOT
BRANCH   1   5
ATOM      5  C   UNL d   1      25.975 -16.103  -2.235  0.00  0.00     0.068 A 
ATOM      6  C   UNL d   1      24.591 -15.884  -2.165  0.00  0.00     0.033 A 
ATOM      7  C   UNL d   1      23.767 -16.546  -1.253  0.00  0.00     0.009 A 
ATOM      8  C   UNL d   1      24.306 -17.466  -0.366  0.00  0.00    -0.059 A 
ATOM      9  C   UNL d   1      23.436 -18.204   0.603  0.00  0.00     0.048 C 
ATOM     10  C   UNL d   1      25.686 -17.693  -0.399  0.00  0.00     0.045 A 
ATOM     11  C   UNL d   1      26.512 -17.019  -1.313  0.00  0.00     0.092 A 
BRANCH  11  12
ATOM     12  O   UNL d   1      27.837 -17.345  -1.210  0.00  0.00    -0.358 OA
ATOM     13  H   UNL d   1      28.061 -17.560  -0.298  0.00  0.00     0.217 HD
ENDBRANCH  11  12
ENDBRANCH   1   5
BRANCH   2  14
ATOM     14  C   UNL d   1      27.236 -14.131  -5.260  0.00  0.00     0.054 A 
ATOM     15  C   UNL d   1      28.188 -14.831  -6.015  0.00  0.00     0.020 A 
ATOM     16  C   UNL d   1      28.983 -14.145  -6.940  0.00  0.00     0.025 A 
ATOM     17  C   UNL d   1      28.824 -12.770  -7.118  0.00  0.00     0.035 A 
ATOM     18 CL   UNL d   1      29.813 -11.934  -8.250  0.00  0.00    -0.084 Cl
ATOM     19  C   UNL d   1      27.871 -12.069  -6.388  0.00  0.00     0.048 A 
ATOM     20  C   UNL d   1      27.074 -12.745  -5.461  0.00  0.00     0.051 A 
ATOM     21 CL   UNL d   1      25.933 -11.782  -4.583  0.00  0.00    -0.083 Cl
ENDBRANCH   2  14
TORSDOF 3
ENDMDL
MODEL 4
REMARK VINA RESULT:    -5.855      5.543      7.682
REMARK INTER + INTRA:          -8.088
REMARK INTER:                  -6.750
REMARK INTRA:                  -1.338
REMARK CONF_INDEPENDENT:        0.895
REMARK UNBOUND:                -1.338
REMARK  3 active torsions:
REMARK  status: ('A' for Active; 'I' for Inactive)
REMARK    1  A    between atoms: C_5  and  N_6 
REMARK       I    between atoms: N_6  and  C_7 
REMARK    2  A    between atoms: C_7  and  C_9 
REMARK    3  A    between atoms: C_17  and  O_18 
ROOT
ATOM      1  N   UNL d   1      27.391 -15.079  -3.577  0.00  0.00    -0.320 N 
ATOM      2  C   UNL d   1      27.169 -15.006  -4.952  0.00  0.00     0.258 C 
ATOM      3  O   UNL d   1      26.282 -15.575  -5.586  0.00  0.00    -0.267 OA
ATOM      4  H   UNL d   1      28.204 -14.611  -3.208  0.00  0.00     0.169 HD
ENDROOT
BRANCH   1   5
ATOM      5  C   UNL d   1      26.531 -15.762  -2.654  0.00  0.00     0.068 A 
ATOM      6  C   UNL d   1      27.046 -16.699  -1.746  0.00  0.00     0.033 A 
ATOM      7  C   UNL d   1      26.246 -17.373  -0.821  0.00  0.00     0.009 A 
ATOM      8  C   UNL d   1      24.882 -17.128  -0.770  0.00  0.00    -0.059 A 
ATOM      9  C   UNL d   1      24.012 -17.823   0.230  0.00  0.00     0.048 C 
ATOM     10  C   UNL d   1      24.335 -16.213  -1.675  0.00  0.00     0.045 A 
ATOM     11  C   UNL d   1      25.142 -15.543  -2.608  0.00  0.00     0.092 A 
BRANCH  11  12
ATOM     12  O   UNL d   1      24.454 -14.689  -3.427  0.00  0.00    -0.358 OA
ATOM     13  H   UNL d   1      24.882 -14.630  -4.288  0.00  0.00     0.217 HD
ENDBRANCH  11  12
ENDBRANCH   1   5
BRANCH   2  14
ATOM     14  C   UNL d   1      28.106 -14.209  -5.774  0.00  0.00     0.054 A 
ATOM     15  C   UNL d   1      29.202 -14.837  -6.381  0.00  0.00     0.020 A 
ATOM     16  C   UNL d   1      30.011 -14.119  -7.270  0.00  0.00     0.025 A 
ATOM     17  C   UNL d   1      29.722 -12.785  -7.560  0.00  0.00     0.035 A 
ATOM     18 CL   UNL d   1      30.728 -11.908  -8.645  0.00  0.00    -0.084 Cl
ATOM     19  C   UNL d   1      28.627 -12.157  -6.977  0.00  0.00     0.048 A 
ATOM     20  C   UNL d   1      27.815 -12.866  -6.088  0.00  0.00     0.051 A 
ATOM     21 CL   UNL d   1      26.489 -11.992  -5.396  0.00  0.00    -0.083 Cl
ENDBRANCH   2  14
TORSDOF 3
ENDMDL
MODEL 5
REMARK VINA RESULT:    -5.801      5.857      8.289
REMARK INTER + INTRA:          -8.002
REMARK INTER:                  -6.696
REMARK INTRA:                  -1.306
REMARK CONF_INDEPENDENT:        0.895
REMARK UNBOUND:                -1.306
REMARK  3 active torsions:
REMARK  status: ('A' for Active; 'I' for Inactive)
REMARK    1  A    between atoms: C_5  and  N_6 
REMARK       I    between atoms: N_6  and  C_7 
REMARK    2  A    between atoms: C_7  and  C_9 
REMARK    3  A    between atoms: C_17  and  O_18 
ROOT
ATOM      1  N   UNL d   1      27.731 -14.941  -3.972  0.00  0.00    -0.320 N 
ATOM      2  C   UNL d   1      27.511 -14.961  -5.349  0.00  0.00     0.258 C 
ATOM      3  O   UNL d   1      26.626 -15.575  -5.943  0.00  0.00    -0.267 OA
ATOM      4  H   UNL d   1      28.543 -14.445  -3.635  0.00  0.00     0.169 HD
ENDROOT
BRANCH   1   5
ATOM      5  C   UNL d   1      26.873 -15.562  -3.006  0.00  0.00     0.068 A 
ATOM      6  C   UNL d   1      27.397 -16.406  -2.014  0.00  0.00     0.033 A 
ATOM      7  C   UNL d   1      26.598 -17.018  -1.045  0.00  0.00     0.009 A 
ATOM      8  C   UNL d   1      25.228 -16.803  -1.033  0.00  0.00    -0.059 A 
ATOM      9  C   UNL d   1      24.359 -17.431   0.011  0.00  0.00     0.048 C 
ATOM     10  C   UNL d   1      24.674 -15.982  -2.020  0.00  0.00     0.045 A 
ATOM     11  C   UNL d   1      25.480 -15.375  -2.997  0.00  0.00     0.092 A 
BRANCH  11  12
ATOM     12  O   UNL d   1      24.784 -14.611  -3.895  0.00  0.00    -0.358 OA
ATOM     13  H   UNL d   1      25.172 -14.687  -4.774  0.00  0.00     0.217 HD
ENDBRANCH  11  12
ENDBRANCH   1   5
BRANCH   2  14
ATOM     14  C   UNL d   1      28.444 -14.218  -6.223  0.00  0.00     0.054 A 
ATOM     15  C   UNL d   1      28.146 -12.899  -6.594  0.00  0.00     0.020 A 
ATOM     16  C   UNL d   1      29.088 -12.146  -7.304  0.00  0.00     0.025 A 
ATOM     17  C   UNL d   1      30.325 -12.701  -7.633  0.00  0.00     0.035 A 
ATOM     18 CL   UNL d   1      31.472 -11.771  -8.516  0.00  0.00    -0.084 Cl
ATOM     19  C   UNL d   1      30.639 -14.002  -7.256  0.00  0.00     0.048 A 
ATOM     20  C   UNL d   1      29.704 -14.761  -6.548  0.00  0.00     0.051 A 
ATOM     21 CL   UNL d   1      30.177 -16.377  -6.142  0.00  0.00    -0.083 Cl
ENDBRANCH   2  14
TORSDOF 3
ENDMDL
MODEL 6
REMARK VINA RESULT:    -5.564      5.751      9.528
REMARK INTER + INTRA:          -7.736
REMARK INTER:                  -6.458
REMARK INTRA:                  -1.278
REMARK CONF_INDEPENDENT:        0.895
REMARK UNBOUND:                -1.278
REMARK  3 active torsions:
REMARK  status: ('A' for Active; 'I' for Inactive)
REMARK    1  A    between atoms: C_5  and  N_6 
REMARK       I    between atoms: N_6  and  C_7 
REMARK    2  A    between atoms: C_7  and  C_9 
REMARK    3  A    between atoms: C_17  and  O_18 
ROOT
ATOM      1  N   UNL d   1      26.853 -13.752  -4.001  0.00  0.00    -0.320 N 
ATOM      2  C   UNL d   1      25.659 -14.278  -3.506  0.00  0.00     0.258 C 
ATOM      3  O   UNL d   1      24.524 -14.028  -3.906  0.00  0.00    -0.267 OA
ATOM      4  H   UNL d   1      27.706 -13.999  -3.524  0.00  0.00     0.169 HD
ENDROOT
BRANCH   1   5
ATOM      5  C   UNL d   1      26.946 -12.899  -5.150  0.00  0.00     0.068 A 
ATOM      6  C   UNL d   1      27.793 -13.222  -6.221  0.00  0.00     0.033 A 
ATOM      7  C   UNL d   1      27.902 -12.427  -7.364  0.00  0.00     0.009 A 
ATOM      8  C   UNL d   1      27.154 -11.264  -7.478  0.00  0.00    -0.059 A 
ATOM      9  C   UNL d   1      27.239 -10.411  -8.705  0.00  0.00     0.048 C 
ATOM     10  C   UNL d   1      26.314 -10.906  -6.419  0.00  0.00     0.045 A 
ATOM     11  C   UNL d   1      26.214 -11.704  -5.268  0.00  0.00     0.092 A 
BRANCH  11  12
ATOM     12  O   UNL d   1      25.358 -11.210  -4.321  0.00  0.00    -0.358 OA
ATOM     13  H   UNL d   1      24.672 -11.856  -4.118  0.00  0.00     0.217 HD
ENDBRANCH  11  12
ENDBRANCH   1   5
BRANCH   2  14
ATOM     14  C   UNL d   1      25.722 -15.200  -2.352  0.00  0.00     0.054 A 
ATOM     15  C   UNL d   1      25.144 -16.474  -2.450  0.00  0.00     0.020 A 
ATOM     16  C   UNL d   1      25.320 -17.400  -1.414  0.00  0.00     0.025 A 
ATOM     17  C   UNL d   1      26.075 -17.060  -0.292  0.00  0.00     0.035 A 
ATOM     18 CL   UNL d   1      26.277 -18.200   0.981  0.00  0.00    -0.084 Cl
ATOM     19  C   UNL d   1      26.667 -15.806  -0.191  0.00  0.00     0.048 A 
ATOM     20  C   UNL d   1      26.496 -14.876  -1.220  0.00  0.00     0.051 A 
ATOM     21 CL   UNL d   1      27.252 -13.334  -0.993  0.00  0.00    -0.083 Cl
ENDBRANCH   2  14
TORSDOF 3
ENDMDL
MODEL 7
REMARK VINA RESULT:    -5.455      5.142      7.415
REMARK INTER + INTRA:          -7.572
REMARK INTER:                  -6.350
REMARK INTRA:                  -1.222
REMARK CONF_INDEPENDENT:        0.895
REMARK UNBOUND:                -1.222
REMARK  3 active torsions:
REMARK  status: ('A' for Active; 'I' for Inactive)
REMARK    1  A    between atoms: C_5  and  N_6 
REMARK       I    between atoms: N_6  and  C_7 
REMARK    2  A    between atoms: C_7  and  C_9 
REMARK    3  A    between atoms: C_17  and  O_18 
ROOT
ATOM      1  N   UNL d   1      26.765 -14.862  -3.268  0.00  0.00    -0.320 N 
ATOM      2  C   UNL d   1      26.247 -14.469  -4.502  0.00  0.00     0.258 C 
ATOM      3  O   UNL d   1      25.187 -14.836  -5.006  0.00  0.00    -0.267 OA
ATOM      4  H   UNL d   1      27.684 -14.530  -3.018  0.00  0.00     0.169 HD
ENDROOT
BRANCH   1   5
ATOM      5  C   UNL d   1      26.070 -15.691  -2.327  0.00  0.00     0.068 A 
ATOM      6  C   UNL d   1      26.753 -16.667  -1.584  0.00  0.00     0.033 A 
ATOM      7  C   UNL d   1      26.117 -17.483  -0.646  0.00  0.00     0.009 A 
ATOM      8  C   UNL d   1      24.756 -17.350  -0.414  0.00  0.00    -0.059 A 
ATOM      9  C   UNL d   1      24.061 -18.200   0.604  0.00  0.00     0.048 C 
ATOM     10  C   UNL d   1      24.045 -16.400  -1.152  0.00  0.00     0.045 A 
ATOM     11  C   UNL d   1      24.686 -15.586  -2.099  0.00  0.00     0.092 A 
BRANCH  11  12
ATOM     12  O   UNL d   1      23.849 -14.714  -2.743  0.00  0.00    -0.358 OA
ATOM     13  H   UNL d   1      24.356 -14.084  -3.265  0.00  0.00     0.217 HD
ENDBRANCH  11  12
ENDBRANCH   1   5
BRANCH   2  14
ATOM     14  C   UNL d   1      27.050 -13.555  -5.343  0.00  0.00     0.054 A 
ATOM     15  C   UNL d   1      26.639 -12.225  -5.509  0.00  0.00     0.020 A 
ATOM     16  C   UNL d   1      27.464 -11.321  -6.188  0.00  0.00     0.025 A 
ATOM     17  C   UNL d   1      28.698 -11.738  -6.689  0.00  0.00     0.035 A 
ATOM     18 CL   UNL d   1      29.701 -10.622  -7.531  0.00  0.00    -0.084 Cl
ATOM     19  C   UNL d   1      29.124 -13.050  -6.515  0.00  0.00     0.048 A 
ATOM     20  C   UNL d   1      28.306 -13.959  -5.840  0.00  0.00     0.051 A 
ATOM     21 CL   UNL d   1      28.913 -15.575  -5.694  0.00  0.00    -0.083 Cl
ENDBRANCH   2  14
TORSDOF 3
ENDMDL
MODEL 8
REMARK VINA RESULT:    -5.394      5.691      9.476
REMARK INTER + INTRA:          -7.636
REMARK INTER:                  -6.289
REMARK INTRA:                  -1.347
REMARK CONF_INDEPENDENT:        0.895
REMARK UNBOUND:                -1.347
REMARK  3 active torsions:
REMARK  status: ('A' for Active; 'I' for Inactive)
REMARK    1  A    between atoms: C_5  and  N_6 
REMARK       I    between atoms: N_6  and  C_7 
REMARK    2  A    between atoms: C_7  and  C_9 
REMARK    3  A    between atoms: C_17  and  O_18 
ROOT
ATOM      1  N   UNL d   1      26.094 -12.785  -3.262  0.00  0.00    -0.320 N 
ATOM      2  C   UNL d   1      25.636 -14.077  -3.524  0.00  0.00     0.258 C 
ATOM      3  O   UNL d   1      25.055 -14.459  -4.538  0.00  0.00    -0.267 OA
ATOM      4  H   UNL d   1      26.492 -12.605  -2.353  0.00  0.00     0.169 HD
ENDROOT
BRANCH   1   5
ATOM      5  C   UNL d   1      26.051 -11.705  -4.204  0.00  0.00     0.068 A 
ATOM      6  C   UNL d   1      25.530 -10.453  -3.842  0.00  0.00     0.033 A 
ATOM      7  C   UNL d   1      25.484  -9.371  -4.724  0.00  0.00     0.009 A 
ATOM      8  C   UNL d   1      25.967  -9.504  -6.017  0.00  0.00    -0.059 A 
ATOM      9  C   UNL d   1      25.948  -8.350  -6.970  0.00  0.00     0.048 C 
ATOM     10  C   UNL d   1      26.475 -10.745  -6.414  0.00  0.00     0.045 A 
ATOM     11  C   UNL d   1      26.512 -11.833  -5.526  0.00  0.00     0.092 A 
BRANCH  11  12
ATOM     12  O   UNL d   1      27.030 -12.977  -6.071  0.00  0.00    -0.358 OA
ATOM     13  H   UNL d   1      26.533 -13.747  -5.771  0.00  0.00     0.217 HD
ENDBRANCH  11  12
ENDBRANCH   1   5
BRANCH   2  14
ATOM     14  C   UNL d   1      25.807 -15.109  -2.479  0.00  0.00     0.054 A 
ATOM     15  C   UNL d   1      24.676 -15.694  -1.890  0.00  0.00     0.020 A 
ATOM     16  C   UNL d   1      24.829 -16.766  -1.004  0.00  0.00     0.025 A 
ATOM     17  C   UNL d   1      26.101 -17.259  -0.713  0.00  0.00     0.035 A 
ATOM     18 CL   UNL d   1      26.280 -18.571   0.386  0.00  0.00    -0.084 Cl
ATOM     19  C   UNL d   1      27.228 -16.700  -1.304  0.00  0.00     0.048 A 
ATOM     20  C   UNL d   1      27.085 -15.628  -2.190  0.00  0.00     0.051 A 
ATOM     21 CL   UNL d   1      28.548 -14.983  -2.857  0.00  0.00    -0.083 Cl
ENDBRANCH   2  14
TORSDOF 3
ENDMDL
MODEL 9
REMARK VINA RESULT:    -5.314      6.695      8.924
REMARK INTER + INTRA:          -7.487
REMARK INTER:                  -6.209
REMARK INTRA:                  -1.278
REMARK CONF_INDEPENDENT:        0.895
REMARK UNBOUND:                -1.278
REMARK  3 active torsions:
REMARK  status: ('A' for Active; 'I' for Inactive)
REMARK    1  A    between atoms: C_5  and  N_6 
REMARK       I    between atoms: N_6  and  C_7 
REMARK    2  A    between atoms: C_7  and  C_9 
REMARK    3  A    between atoms: C_17  and  O_18 
ROOT
ATOM      1  N   UNL d   1      27.145 -13.374   2.496  0.00  0.00    -0.320 N 
ATOM      2  C   UNL d   1      27.743 -14.211   1.554  0.00  0.00     0.258 C 
ATOM      3  O   UNL d   1      28.798 -14.830   1.685  0.00  0.00    -0.267 OA
ATOM      4  H   UNL d   1      26.312 -12.878   2.219  0.00  0.00     0.169 HD
ENDROOT
BRANCH   1   5
ATOM      5  C   UNL d   1      27.627 -13.187   3.834  0.00  0.00     0.068 A 
ATOM      6  C   UNL d   1      27.783 -11.899   4.371  0.00  0.00     0.033 A 
ATOM      7  C   UNL d   1      28.234 -11.674   5.673  0.00  0.00     0.009 A 
ATOM      8  C   UNL d   1      28.548 -12.744   6.497  0.00  0.00    -0.059 A 
ATOM      9  C   UNL d   1      29.011 -12.523   7.904  0.00  0.00     0.048 C 
ATOM     10  C   UNL d   1      28.421 -14.039   5.985  0.00  0.00     0.045 A 
ATOM     11  C   UNL d   1      27.975 -14.261   4.672  0.00  0.00     0.092 A 
BRANCH  11  12
ATOM     12  O   UNL d   1      27.915 -15.583   4.321  0.00  0.00    -0.358 OA
ATOM     13  H   UNL d   1      28.530 -15.768   3.604  0.00  0.00     0.217 HD
ENDBRANCH  11  12
ENDBRANCH   1   5
BRANCH   2  14
ATOM     14  C   UNL d   1      27.096 -14.359   0.233  0.00  0.00     0.054 A 
ATOM     15  C   UNL d   1      26.892 -13.228  -0.570  0.00  0.00     0.020 A 
ATOM     16  C   UNL d   1      26.408 -13.378  -1.875  0.00  0.00     0.025 A 
ATOM     17  C   UNL d   1      26.138 -14.650  -2.380  0.00  0.00     0.035 A 
ATOM     18 CL   UNL d   1      25.534 -14.825  -3.981  0.00  0.00    -0.084 Cl
ATOM     19  C   UNL d   1      26.353 -15.781  -1.599  0.00  0.00     0.048 A 
ATOM     20  C   UNL d   1      26.835 -15.639  -0.295  0.00  0.00     0.051 A 
ATOM     21 CL   UNL d   1      27.047 -17.103   0.607  0.00  0.00    -0.083 Cl
ENDBRANCH   2  14
TORSDOF 3
ENDMDL
