MODEL 1
REMARK VINA RESULT:    -8.830      0.000      0.000
REMARK INTER + INTRA:         -10.862
REMARK INTER:                  -9.725
REMARK INTRA:                  -1.137
REMARK CONF_INDEPENDENT:        0.895
REMARK UNBOUND:                -1.137
REMARK  3 active torsions:
REMARK  status: ('A' for Active; 'I' for Inactive)
REMARK    1  A    between atoms: C_5  and  N_6 
REMARK       I    between atoms: N_6  and  C_7 
REMARK    2  A    between atoms: C_7  and  C_9 
REMARK    3  A    between atoms: C_17  and  O_18 
ROOT
ATOM      1  N   UNL d   1      22.173 -18.160   0.270  0.00  0.00    -0.321 N 
ATOM      2  C   UNL d   1      23.166 -18.391  -0.680  0.00  0.00     0.256 C 
ATOM      3  O   UNL d   1      23.261 -19.347  -1.446  0.00  0.00    -0.267 OA
ATOM      4  H   UNL d   1      22.226 -17.303   0.798  0.00  0.00     0.169 HD
ENDROOT
BRANCH   1   5
ATOM      5  C   UNL d   1      21.062 -19.031   0.517  0.00  0.00     0.068 A 
ATOM      6  C   UNL d   1      20.652 -19.324   1.826  0.00  0.00     0.033 A 
ATOM      7  C   UNL d   1      19.561 -20.149   2.107  0.00  0.00     0.009 A 
ATOM      8  C   UNL d   1      18.824 -20.711   1.073  0.00  0.00    -0.059 A 
ATOM      9  C   UNL d   1      17.634 -21.575   1.352  0.00  0.00     0.048 C 
ATOM     10  C   UNL d   1      19.217 -20.448  -0.243  0.00  0.00     0.045 A 
ATOM     11  C   UNL d   1      20.322 -19.627  -0.521  0.00  0.00     0.092 A 
BRANCH  11  12
ATOM     12  O   UNL d   1      20.579 -19.480  -1.857  0.00  0.00    -0.358 OA
ATOM     13  H   UNL d   1      21.244 -18.797  -2.001  0.00  0.00     0.217 HD
ENDBRANCH  11  12
ENDBRANCH   1   5
BRANCH   2  14
ATOM     14  C   UNL d   1      24.235 -17.381  -0.832  0.00  0.00     0.035 A 
ATOM     15  C   UNL d   1      25.464 -17.502  -0.183  0.00  0.00     0.041 A 
ATOM     16  C   UNL d   1      26.466 -16.567  -0.455  0.00  0.00     0.036 A 
ATOM     17 CL   UNL d   1      27.988 -16.712   0.334  0.00  0.00    -0.084 Cl
ATOM     18  C   UNL d   1      26.258 -15.525  -1.360  0.00  0.00     0.047 A 
ATOM     19  C   UNL d   1      25.036 -15.428  -2.017  0.00  0.00     0.036 A 
ATOM     20 CL   UNL d   1      24.767 -14.155  -3.143  0.00  0.00    -0.084 Cl
ATOM     21  C   UNL d   1      24.029 -16.354  -1.768  0.00  0.00     0.041 A 
ENDBRANCH   2  14
TORSDOF 3
ENDMDL
MODEL 2
REMARK VINA RESULT:    -8.424      0.175      2.074
REMARK INTER + INTRA:         -10.506
REMARK INTER:                  -9.319
REMARK INTRA:                  -1.187
REMARK CONF_INDEPENDENT:        0.895
REMARK UNBOUND:                -1.187
REMARK  3 active torsions:
REMARK  status: ('A' for Active; 'I' for Inactive)
REMARK    1  A    between atoms: C_5  and  N_6 
REMARK       I    between atoms: N_6  and  C_7 
REMARK    2  A    between atoms: C_7  and  C_9 
REMARK    3  A    between atoms: C_17  and  O_18 
ROOT
ATOM      1  N   UNL d   1      22.123 -18.187   0.061  0.00  0.00    -0.321 N 
ATOM      2  C   UNL d   1      23.134 -18.484  -0.850  0.00  0.00     0.256 C 
ATOM      3  O   UNL d   1      23.250 -19.498  -1.534  0.00  0.00    -0.267 OA
ATOM      4  H   UNL d   1      22.159 -17.288   0.518  0.00  0.00     0.169 HD
ENDROOT
BRANCH   1   5
ATOM      5  C   UNL d   1      21.015 -19.045   0.359  0.00  0.00     0.068 A 
ATOM      6  C   UNL d   1      20.655 -19.325   1.685  0.00  0.00     0.033 A 
ATOM      7  C   UNL d   1      19.569 -20.137   2.017  0.00  0.00     0.009 A 
ATOM      8  C   UNL d   1      18.786 -20.700   1.017  0.00  0.00    -0.059 A 
ATOM      9  C   UNL d   1      17.601 -21.551   1.351  0.00  0.00     0.048 C 
ATOM     10  C   UNL d   1      19.128 -20.451  -0.315  0.00  0.00     0.045 A 
ATOM     11  C   UNL d   1      20.228 -19.642  -0.644  0.00  0.00     0.092 A 
BRANCH  11  12
ATOM     12  O   UNL d   1      20.433 -19.507  -1.990  0.00  0.00    -0.358 OA
ATOM     13  H   UNL d   1      21.355 -19.292  -2.173  0.00  0.00     0.217 HD
ENDBRANCH  11  12
ENDBRANCH   1   5
BRANCH   2  14
ATOM     14  C   UNL d   1      24.197 -17.480  -1.066  0.00  0.00     0.035 A 
ATOM     15  C   UNL d   1      24.033 -16.406  -1.941  0.00  0.00     0.041 A 
ATOM     16  C   UNL d   1      25.036 -15.437  -2.017  0.00  0.00     0.036 A 
ATOM     17 CL   UNL d   1      24.840 -14.105  -3.088  0.00  0.00    -0.084 Cl
ATOM     18  C   UNL d   1      26.189 -15.525  -1.235  0.00  0.00     0.047 A 
ATOM     19  C   UNL d   1      26.332 -16.589  -0.350  0.00  0.00     0.036 A 
ATOM     20 CL   UNL d   1      27.742 -16.708   0.628  0.00  0.00    -0.084 Cl
ATOM     21  C   UNL d   1      25.340 -17.559  -0.252  0.00  0.00     0.041 A 
ENDBRANCH   2  14
TORSDOF 3
ENDMDL
MODEL 3
REMARK VINA RESULT:    -6.785      4.383      8.688
REMARK INTER + INTRA:          -8.711
REMARK INTER:                  -7.680
REMARK INTRA:                  -1.031
REMARK CONF_INDEPENDENT:        0.895
REMARK UNBOUND:                -1.031
REMARK  3 active torsions:
REMARK  status: ('A' for Active; 'I' for Inactive)
REMARK    1  A    between atoms: C_5  and  N_6 
REMARK       I    between atoms: N_6  and  C_7 
REMARK    2  A    between atoms: C_7  and  C_9 
REMARK    3  A    between atoms: C_17  and  O_18 
ROOT
ATOM      1  N   UNL d   1      26.448 -15.186  -3.414  0.00  0.00    -0.321 N 
ATOM      2  C   UNL d   1      25.170 -15.185  -2.861  0.00  0.00     0.256 C 
ATOM      3  O   UNL d   1      24.230 -14.449  -3.151  0.00  0.00    -0.267 OA
ATOM      4  H   UNL d   1      27.097 -15.885  -3.084  0.00  0.00     0.169 HD
ENDROOT
BRANCH   1   5
ATOM      5  C   UNL d   1      26.891 -14.297  -4.447  0.00  0.00     0.068 A 
ATOM      6  C   UNL d   1      27.843 -14.707  -5.393  0.00  0.00     0.033 A 
ATOM      7  C   UNL d   1      28.283 -13.879  -6.428  0.00  0.00     0.009 A 
ATOM      8  C   UNL d   1      27.771 -12.595  -6.561  0.00  0.00    -0.059 A 
ATOM      9  C   UNL d   1      28.208 -11.702  -7.679  0.00  0.00     0.048 C 
ATOM     10  C   UNL d   1      26.832 -12.153  -5.625  0.00  0.00     0.045 A 
ATOM     11  C   UNL d   1      26.400 -12.985  -4.579  0.00  0.00     0.092 A 
BRANCH  11  12
ATOM     12  O   UNL d   1      25.487 -12.398  -3.745  0.00  0.00    -0.358 OA
ATOM     13  H   UNL d   1      24.592 -12.523  -4.081  0.00  0.00     0.217 HD
ENDBRANCH  11  12
ENDBRANCH   1   5
BRANCH   2  14
ATOM     14  C   UNL d   1      24.859 -16.186  -1.818  0.00  0.00     0.035 A 
ATOM     15  C   UNL d   1      23.573 -16.697  -1.644  0.00  0.00     0.041 A 
ATOM     16  C   UNL d   1      23.372 -17.717  -0.711  0.00  0.00     0.036 A 
ATOM     17 CL   UNL d   1      21.791 -18.359  -0.494  0.00  0.00    -0.084 Cl
ATOM     18  C   UNL d   1      24.430 -18.230   0.041  0.00  0.00     0.047 A 
ATOM     19  C   UNL d   1      25.712 -17.728  -0.157  0.00  0.00     0.036 A 
ATOM     20 CL   UNL d   1      27.030 -18.355   0.754  0.00  0.00    -0.084 Cl
ATOM     21  C   UNL d   1      25.935 -16.719  -1.089  0.00  0.00     0.041 A 
ENDBRANCH   2  14
TORSDOF 3
ENDMDL
MODEL 4
REMARK VINA RESULT:    -6.690      4.344      8.469
REMARK INTER + INTRA:          -8.615
REMARK INTER:                  -7.585
REMARK INTRA:                  -1.030
REMARK CONF_INDEPENDENT:        0.895
REMARK UNBOUND:                -1.030
REMARK  3 active torsions:
REMARK  status: ('A' for Active; 'I' for Inactive)
REMARK    1  A    between atoms: C_5  and  N_6 
REMARK       I    between atoms: N_6  and  C_7 
REMARK    2  A    between atoms: C_7  and  C_9 
REMARK    3  A    between atoms: C_17  and  O_18 
ROOT
ATOM      1  N   UNL d   1      26.429 -15.074  -3.391  0.00  0.00    -0.321 N 
ATOM      2  C   UNL d   1      25.163 -15.232  -2.831  0.00  0.00     0.256 C 
ATOM      3  O   UNL d   1      24.150 -14.580  -3.076  0.00  0.00    -0.267 OA
ATOM      4  H   UNL d   1      27.148 -15.720  -3.102  0.00  0.00     0.169 HD
ENDROOT
BRANCH   1   5
ATOM      5  C   UNL d   1      26.768 -14.092  -4.378  0.00  0.00     0.068 A 
ATOM      6  C   UNL d   1      27.740 -14.357  -5.354  0.00  0.00     0.033 A 
ATOM      7  C   UNL d   1      28.082 -13.435  -6.346  0.00  0.00     0.009 A 
ATOM      8  C   UNL d   1      27.448 -12.201  -6.403  0.00  0.00    -0.059 A 
ATOM      9  C   UNL d   1      27.780 -11.210  -7.474  0.00  0.00     0.048 C 
ATOM     10  C   UNL d   1      26.486 -11.903  -5.434  0.00  0.00     0.045 A 
ATOM     11  C   UNL d   1      26.152 -12.828  -4.431  0.00  0.00     0.092 A 
BRANCH  11  12
ATOM     12  O   UNL d   1      25.201 -12.378  -3.557  0.00  0.00    -0.358 OA
ATOM     13  H   UNL d   1      24.317 -12.560  -3.895  0.00  0.00     0.217 HD
ENDBRANCH  11  12
ENDBRANCH   1   5
BRANCH   2  14
ATOM     14  C   UNL d   1      24.966 -16.312  -1.841  0.00  0.00     0.035 A 
ATOM     15  C   UNL d   1      26.004 -16.766  -1.027  0.00  0.00     0.041 A 
ATOM     16  C   UNL d   1      25.722 -17.716  -0.042  0.00  0.00     0.036 A 
ATOM     17 CL   UNL d   1      26.994 -18.277   0.972  0.00  0.00    -0.084 Cl
ATOM     18  C   UNL d   1      24.430 -18.210   0.141  0.00  0.00     0.047 A 
ATOM     19  C   UNL d   1      23.399 -17.733  -0.663  0.00  0.00     0.036 A 
ATOM     20 CL   UNL d   1      21.798 -18.324  -0.445  0.00  0.00    -0.084 Cl
ATOM     21  C   UNL d   1      23.657 -16.780  -1.643  0.00  0.00     0.041 A 
ENDBRANCH   2  14
TORSDOF 3
ENDMDL
MODEL 5
REMARK VINA RESULT:    -6.593      4.011      8.285
REMARK INTER + INTRA:          -8.614
REMARK INTER:                  -7.488
REMARK INTRA:                  -1.127
REMARK CONF_INDEPENDENT:        0.895
REMARK UNBOUND:                -1.127
REMARK  3 active torsions:
REMARK  status: ('A' for Active; 'I' for Inactive)
REMARK    1  A    between atoms: C_5  and  N_6 
REMARK       I    between atoms: N_6  and  C_7 
REMARK    2  A    between atoms: C_7  and  C_9 
REMARK    3  A    between atoms: C_17  and  O_18 
ROOT
ATOM      1  N   UNL d   1      25.819 -14.426  -2.261  0.00  0.00    -0.321 N 
ATOM      2  C   UNL d   1      24.578 -15.053  -2.178  0.00  0.00     0.256 C 
ATOM      3  O   UNL d   1      23.545 -14.749  -2.771  0.00  0.00    -0.267 OA
ATOM      4  H   UNL d   1      26.578 -14.826  -1.731  0.00  0.00     0.169 HD
ENDROOT
BRANCH   1   5
ATOM      5  C   UNL d   1      26.103 -13.284  -3.079  0.00  0.00     0.068 A 
ATOM      6  C   UNL d   1      26.913 -12.241  -2.605  0.00  0.00     0.033 A 
ATOM      7  C   UNL d   1      27.232 -11.123  -3.378  0.00  0.00     0.009 A 
ATOM      8  C   UNL d   1      26.753 -11.012  -4.677  0.00  0.00    -0.059 A 
ATOM      9  C   UNL d   1      27.106  -9.835  -5.532  0.00  0.00     0.048 C 
ATOM     10  C   UNL d   1      25.931 -12.028  -5.172  0.00  0.00     0.045 A 
ATOM     11  C   UNL d   1      25.604 -13.146  -4.387  0.00  0.00     0.092 A 
BRANCH  11  12
ATOM     12  O   UNL d   1      24.783 -14.043  -5.015  0.00  0.00    -0.358 OA
ATOM     13  H   UNL d   1      23.866 -13.902  -4.756  0.00  0.00     0.217 HD
ENDBRANCH  11  12
ENDBRANCH   1   5
BRANCH   2  14
ATOM     14  C   UNL d   1      24.452 -16.240  -1.306  0.00  0.00     0.035 A 
ATOM     15  C   UNL d   1      23.235 -16.897  -1.124  0.00  0.00     0.041 A 
ATOM     16  C   UNL d   1      23.209 -18.074  -0.372  0.00  0.00     0.036 A 
ATOM     17 CL   UNL d   1      21.714 -18.896  -0.147  0.00  0.00    -0.084 Cl
ATOM     18  C   UNL d   1      24.373 -18.599   0.193  0.00  0.00     0.047 A 
ATOM     19  C   UNL d   1      25.584 -17.947  -0.015  0.00  0.00     0.036 A 
ATOM     20 CL   UNL d   1      27.029 -18.586   0.665  0.00  0.00    -0.084 Cl
ATOM     21  C   UNL d   1      25.632 -16.779  -0.769  0.00  0.00     0.041 A 
ENDBRANCH   2  14
TORSDOF 3
ENDMDL
MODEL 6
REMARK VINA RESULT:    -6.533      4.024      8.118
REMARK INTER + INTRA:          -8.543
REMARK INTER:                  -7.428
REMARK INTRA:                  -1.115
REMARK CONF_INDEPENDENT:        0.895
REMARK UNBOUND:                -1.115
REMARK  3 active torsions:
REMARK  status: ('A' for Active; 'I' for Inactive)
REMARK    1  A    between atoms: C_5  and  N_6 
REMARK       I    between atoms: N_6  and  C_7 
REMARK    2  A    between atoms: C_7  and  C_9 
REMARK    3  A    between atoms: C_17  and  O_18 
ROOT
ATOM      1  N   UNL d   1      25.871 -14.385  -2.209  0.00  0.00    -0.321 N 
ATOM      2  C   UNL d   1      24.667 -15.086  -2.204  0.00  0.00     0.256 C 
ATOM      3  O   UNL d   1      23.635 -14.806  -2.809  0.00  0.00    -0.267 OA
ATOM      4  H   UNL d   1      26.637 -14.773  -1.680  0.00  0.00     0.169 HD
ENDROOT
BRANCH   1   5
ATOM      5  C   UNL d   1      26.109 -13.179  -2.946  0.00  0.00     0.068 A 
ATOM      6  C   UNL d   1      26.883 -12.143  -2.402  0.00  0.00     0.033 A 
ATOM      7  C   UNL d   1      27.157 -10.963  -3.097  0.00  0.00     0.009 A 
ATOM      8  C   UNL d   1      26.666 -10.778  -4.383  0.00  0.00    -0.059 A 
ATOM      9  C   UNL d   1      26.972  -9.533  -5.156  0.00  0.00     0.048 C 
ATOM     10  C   UNL d   1      25.880 -11.787  -4.946  0.00  0.00     0.045 A 
ATOM     11  C   UNL d   1      25.597 -12.968  -4.240  0.00  0.00     0.092 A 
BRANCH  11  12
ATOM     12  O   UNL d   1      24.807 -13.849  -4.927  0.00  0.00    -0.358 OA
ATOM     13  H   UNL d   1      23.882 -13.741  -4.676  0.00  0.00     0.217 HD
ENDBRANCH  11  12
ENDBRANCH   1   5
BRANCH   2  14
ATOM     14  C   UNL d   1      24.588 -16.332  -1.411  0.00  0.00     0.035 A 
ATOM     15  C   UNL d   1      25.685 -16.831  -0.709  0.00  0.00     0.041 A 
ATOM     16  C   UNL d   1      25.511 -17.954   0.104  0.00  0.00     0.036 A 
ATOM     17 CL   UNL d   1      26.856 -18.574   0.980  0.00  0.00    -0.084 Cl
ATOM     18  C   UNL d   1      24.267 -18.576   0.226  0.00  0.00     0.047 A 
ATOM     19  C   UNL d   1      23.176 -18.055  -0.462  0.00  0.00     0.036 A 
ATOM     20 CL   UNL d   1      21.634 -18.802  -0.316  0.00  0.00    -0.084 Cl
ATOM     21  C   UNL d   1      23.326 -16.932  -1.269  0.00  0.00     0.041 A 
ENDBRANCH   2  14
TORSDOF 3
ENDMDL
MODEL 7
REMARK VINA RESULT:    -6.436      4.182      8.696
REMARK INTER + INTRA:          -8.517
REMARK INTER:                  -7.331
REMARK INTRA:                  -1.186
REMARK CONF_INDEPENDENT:        0.895
REMARK UNBOUND:                -1.186
REMARK  3 active torsions:
REMARK  status: ('A' for Active; 'I' for Inactive)
REMARK    1  A    between atoms: C_5  and  N_6 
REMARK       I    between atoms: N_6  and  C_7 
REMARK    2  A    between atoms: C_7  and  C_9 
REMARK    3  A    between atoms: C_17  and  O_18 
ROOT
ATOM      1  N   UNL d   1      27.012 -15.597  -2.936  0.00  0.00    -0.321 N 
ATOM      2  C   UNL d   1      25.637 -15.576  -2.713  0.00  0.00     0.256 C 
ATOM      3  O   UNL d   1      24.791 -14.917  -3.313  0.00  0.00    -0.267 OA
ATOM      4  H   UNL d   1      27.565 -16.225  -2.373  0.00  0.00     0.169 HD
ENDROOT
BRANCH   1   5
ATOM      5  C   UNL d   1      27.688 -14.824  -3.936  0.00  0.00     0.068 A 
ATOM      6  C   UNL d   1      28.774 -14.002  -3.601  0.00  0.00     0.033 A 
ATOM      7  C   UNL d   1      29.473 -13.252  -4.549  0.00  0.00     0.009 A 
ATOM      8  C   UNL d   1      29.110 -13.306  -5.889  0.00  0.00    -0.059 A 
ATOM      9  C   UNL d   1      29.863 -12.532  -6.925  0.00  0.00     0.048 C 
ATOM     10  C   UNL d   1      28.022 -14.105  -6.251  0.00  0.00     0.045 A 
ATOM     11  C   UNL d   1      27.315 -14.849  -5.293  0.00  0.00     0.092 A 
BRANCH  11  12
ATOM     12  O   UNL d   1      26.273 -15.570  -5.810  0.00  0.00    -0.358 OA
ATOM     13  H   UNL d   1      25.453 -15.359  -5.348  0.00  0.00     0.217 HD
ENDBRANCH  11  12
ENDBRANCH   1   5
BRANCH   2  14
ATOM     14  C   UNL d   1      25.088 -16.454  -1.657  0.00  0.00     0.035 A 
ATOM     15  C   UNL d   1      23.746 -16.835  -1.637  0.00  0.00     0.041 A 
ATOM     16  C   UNL d   1      23.319 -17.750  -0.672  0.00  0.00     0.036 A 
ATOM     17 CL   UNL d   1      21.667 -18.232  -0.643  0.00  0.00    -0.084 Cl
ATOM     18  C   UNL d   1      24.206 -18.286   0.262  0.00  0.00     0.047 A 
ATOM     19  C   UNL d   1      25.547 -17.916   0.218  0.00  0.00     0.036 A 
ATOM     20 CL   UNL d   1      26.657 -18.574   1.355  0.00  0.00    -0.084 Cl
ATOM     21  C   UNL d   1      25.995 -17.013  -0.742  0.00  0.00     0.041 A 
ENDBRANCH   2  14
TORSDOF 3
ENDMDL
MODEL 8
REMARK VINA RESULT:    -6.065      4.786      8.788
REMARK INTER + INTRA:          -8.151
REMARK INTER:                  -6.960
REMARK INTRA:                  -1.192
REMARK CONF_INDEPENDENT:        0.895
REMARK UNBOUND:                -1.192
REMARK  3 active torsions:
REMARK  status: ('A' for Active; 'I' for Inactive)
REMARK    1  A    between atoms: C_5  and  N_6 
REMARK       I    between atoms: N_6  and  C_7 
REMARK    2  A    between atoms: C_7  and  C_9 
REMARK    3  A    between atoms: C_17  and  O_18 
ROOT
ATOM      1  N   UNL d   1      26.043 -13.290  -3.118  0.00  0.00    -0.321 N 
ATOM      2  C   UNL d   1      25.471 -14.520  -3.436  0.00  0.00     0.256 C 
ATOM      3  O   UNL d   1      24.879 -14.825  -4.468  0.00  0.00    -0.267 OA
ATOM      4  H   UNL d   1      26.526 -13.216  -2.236  0.00  0.00     0.169 HD
ENDROOT
BRANCH   1   5
ATOM      5  C   UNL d   1      26.031 -12.139  -3.973  0.00  0.00     0.068 A 
ATOM      6  C   UNL d   1      25.532 -10.909  -3.519  0.00  0.00     0.033 A 
ATOM      7  C   UNL d   1      25.524  -9.760  -4.313  0.00  0.00     0.009 A 
ATOM      8  C   UNL d   1      26.031  -9.799  -5.605  0.00  0.00    -0.059 A 
ATOM      9  C   UNL d   1      26.057  -8.573  -6.462  0.00  0.00     0.048 C 
ATOM     10  C   UNL d   1      26.522 -11.015  -6.090  0.00  0.00     0.045 A 
ATOM     11  C   UNL d   1      26.518 -12.171  -5.292  0.00  0.00     0.092 A 
BRANCH  11  12
ATOM     12  O   UNL d   1      27.023 -13.278  -5.919  0.00  0.00    -0.358 OA
ATOM     13  H   UNL d   1      26.524 -14.064  -5.672  0.00  0.00     0.217 HD
ENDBRANCH  11  12
ENDBRANCH   1   5
BRANCH   2  14
ATOM     14  C   UNL d   1      25.592 -15.620  -2.456  0.00  0.00     0.035 A 
ATOM     15  C   UNL d   1      26.812 -15.960  -1.872  0.00  0.00     0.041 A 
ATOM     16  C   UNL d   1      26.835 -16.939  -0.876  0.00  0.00     0.036 A 
ATOM     17 CL   UNL d   1      28.334 -17.360  -0.145  0.00  0.00    -0.084 Cl
ATOM     18  C   UNL d   1      25.665 -17.575  -0.458  0.00  0.00     0.047 A 
ATOM     19  C   UNL d   1      24.451 -17.211  -1.031  0.00  0.00     0.036 A 
ATOM     20 CL   UNL d   1      22.997 -17.977  -0.521  0.00  0.00    -0.084 Cl
ATOM     21  C   UNL d   1      24.405 -16.232  -2.018  0.00  0.00     0.041 A 
ENDBRANCH   2  14
TORSDOF 3
ENDMDL
