MODEL 1
REMARK VINA RESULT:    -7.813      0.000      0.000
REMARK INTER + INTRA:          -9.634
REMARK INTER:                  -9.305
REMARK INTRA:                  -0.330
REMARK CONF_INDEPENDENT:        1.492
REMARK UNBOUND:                -0.330
REMARK  5 active torsions:
REMARK  status: ('A' for Active; 'I' for Inactive)
REMARK    1  A    between atoms: C_2  and  N_4 
REMARK       I    between atoms: N_4  and  C_5 
REMARK    2  A    between atoms: C_5  and  C_7 
REMARK    3  A    between atoms: C_7  and  C_8 
REMARK    4  A    between atoms: C_8  and  C_9 
REMARK    5  A    between atoms: C_13  and  N_14 
ROOT
ATOM      1  C   UNL d   1      24.814 -17.721  -0.354  0.00  0.00    -0.056 A 
ATOM      2  C   UNL d   1      24.629 -16.785  -1.377  0.00  0.00     0.007 A 
ATOM      3  C   UNL d   1      25.707 -16.037  -1.840  0.00  0.00     0.003 A 
ATOM      4  C   UNL d   1      26.973 -16.217  -1.280  0.00  0.00     0.029 A 
ATOM      5  C   UNL d   1      27.171 -17.109  -0.222  0.00  0.00     0.026 A 
ATOM      6  C   UNL d   1      26.086 -17.870   0.219  0.00  0.00     0.036 A 
ENDROOT
BRANCH   1   7
ATOM      7  C   UNL d   1      23.666 -18.591   0.088  0.00  0.00     0.048 C 
BRANCH   7   8
ATOM      8  C   UNL d   1      22.683 -18.873  -1.056  0.00  0.00     0.107 C 
BRANCH   8   9
ATOM      9  C   UNL d   1      21.264 -18.797  -0.537  0.00  0.00     0.218 C 
ATOM     10  N   UNL d   1      20.910 -19.766   0.381  0.00  0.00    -0.357 N 
ATOM     11  H   UNL d   1      21.564 -20.505   0.609  0.00  0.00     0.162 HD
ATOM     12  O   UNL d   1      20.480 -17.922  -0.911  0.00  0.00    -0.274 OA
BRANCH  10  13
ATOM     13  C   UNL d   1      19.574 -19.777   0.978  0.00  0.00     0.076 C 
ATOM     14  C   UNL d   1      18.653 -20.795   0.305  0.00  0.00     0.032 C 
ATOM     15  C   UNL d   1      19.644 -20.090   2.475  0.00  0.00     0.032 C 
ENDBRANCH  10  13
ENDBRANCH   8   9
ENDBRANCH   7   8
ENDBRANCH   1   7
BRANCH   5  16
ATOM     16  N   UNL d   1      28.457 -17.387   0.232  0.00  0.00    -0.399 N 
ATOM     17  H   UNL d   1      28.842 -16.790   0.954  0.00  0.00     0.156 HD
ATOM     18  H   UNL d   1      28.752 -18.355   0.251  0.00  0.00     0.156 HD
ENDBRANCH   5  16
TORSDOF 5
ENDMDL
MODEL 2
REMARK VINA RESULT:    -7.127      1.356      1.844
REMARK INTER + INTRA:          -8.963
REMARK INTER:                  -8.619
REMARK INTRA:                  -0.344
REMARK CONF_INDEPENDENT:        1.492
REMARK UNBOUND:                -0.344
REMARK  5 active torsions:
REMARK  status: ('A' for Active; 'I' for Inactive)
REMARK    1  A    between atoms: C_2  and  N_4 
REMARK       I    between atoms: N_4  and  C_5 
REMARK    2  A    between atoms: C_5  and  C_7 
REMARK    3  A    between atoms: C_7  and  C_8 
REMARK    4  A    between atoms: C_8  and  C_9 
REMARK    5  A    between atoms: C_13  and  N_14 
ROOT
ATOM      1  C   UNL d   1      24.628 -17.862  -0.547  0.00  0.00    -0.056 A 
ATOM      2  C   UNL d   1      25.820 -17.840   0.185  0.00  0.00     0.007 A 
ATOM      3  C   UNL d   1      26.781 -16.869  -0.078  0.00  0.00     0.003 A 
ATOM      4  C   UNL d   1      26.558 -15.918  -1.077  0.00  0.00     0.029 A 
ATOM      5  C   UNL d   1      25.398 -15.953  -1.855  0.00  0.00     0.026 A 
ATOM      6  C   UNL d   1      24.430 -16.919  -1.567  0.00  0.00     0.036 A 
ENDROOT
BRANCH   1   7
ATOM      7  C   UNL d   1      23.552 -18.860  -0.205  0.00  0.00     0.048 C 
BRANCH   7   8
ATOM      8  C   UNL d   1      22.448 -18.904  -1.271  0.00  0.00     0.107 C 
BRANCH   8   9
ATOM      9  C   UNL d   1      21.093 -18.852  -0.600  0.00  0.00     0.218 C 
ATOM     10  N   UNL d   1      20.893 -19.766   0.416  0.00  0.00    -0.357 N 
ATOM     11  H   UNL d   1      21.605 -20.458   0.618  0.00  0.00     0.162 HD
ATOM     12  O   UNL d   1      20.229 -18.041  -0.940  0.00  0.00    -0.274 OA
BRANCH  10  13
ATOM     13  C   UNL d   1      19.633 -19.792   1.160  0.00  0.00     0.076 C 
ATOM     14  C   UNL d   1      18.661 -20.834   0.608  0.00  0.00     0.032 C 
ATOM     15  C   UNL d   1      19.878 -20.082   2.643  0.00  0.00     0.032 C 
ENDBRANCH  10  13
ENDBRANCH   8   9
ENDBRANCH   7   8
ENDBRANCH   1   7
BRANCH   5  16
ATOM     16  N   UNL d   1      25.118 -14.921  -2.746  0.00  0.00    -0.399 N 
ATOM     17  H   UNL d   1      24.180 -14.538  -2.747  0.00  0.00     0.156 HD
ATOM     18  H   UNL d   1      25.863 -14.272  -2.966  0.00  0.00     0.156 HD
ENDBRANCH   5  16
TORSDOF 5
ENDMDL
MODEL 3
REMARK VINA RESULT:    -6.556      2.540      3.353
REMARK INTER + INTRA:          -8.332
REMARK INTER:                  -8.048
REMARK INTRA:                  -0.284
REMARK CONF_INDEPENDENT:        1.492
REMARK UNBOUND:                -0.284
REMARK  5 active torsions:
REMARK  status: ('A' for Active; 'I' for Inactive)
REMARK    1  A    between atoms: C_2  and  N_4 
REMARK       I    between atoms: N_4  and  C_5 
REMARK    2  A    between atoms: C_5  and  C_7 
REMARK    3  A    between atoms: C_7  and  C_8 
REMARK    4  A    between atoms: C_8  and  C_9 
REMARK    5  A    between atoms: C_13  and  N_14 
ROOT
ATOM      1  C   UNL d   1      25.399 -15.839  -1.917  0.00  0.00    -0.056 A 
ATOM      2  C   UNL d   1      26.291 -15.184  -1.060  0.00  0.00     0.007 A 
ATOM      3  C   UNL d   1      26.705 -13.887  -1.346  0.00  0.00     0.003 A 
ATOM      4  C   UNL d   1      26.236 -13.240  -2.491  0.00  0.00     0.029 A 
ATOM      5  C   UNL d   1      25.386 -13.893  -3.387  0.00  0.00     0.026 A 
ATOM      6  C   UNL d   1      24.959 -15.187  -3.079  0.00  0.00     0.036 A 
ENDROOT
BRANCH   1   7
ATOM      7  C   UNL d   1      24.884 -17.210  -1.564  0.00  0.00     0.048 C 
BRANCH   7   8
ATOM      8  C   UNL d   1      23.784 -17.154  -0.495  0.00  0.00     0.107 C 
BRANCH   8   9
ATOM      9  C   UNL d   1      22.898 -18.375  -0.613  0.00  0.00     0.218 C 
ATOM     10  N   UNL d   1      21.805 -18.404   0.229  0.00  0.00    -0.357 N 
ATOM     11  H   UNL d   1      21.680 -17.672   0.918  0.00  0.00     0.162 HD
ATOM     12  O   UNL d   1      23.140 -19.279  -1.415  0.00  0.00    -0.274 OA
BRANCH  10  13
ATOM     13  C   UNL d   1      20.857 -19.519   0.185  0.00  0.00     0.076 C 
ATOM     14  C   UNL d   1      20.158 -19.731   1.527  0.00  0.00     0.032 C 
ATOM     15  C   UNL d   1      19.795 -19.294  -0.895  0.00  0.00     0.032 C 
ENDBRANCH  10  13
ENDBRANCH   8   9
ENDBRANCH   7   8
ENDBRANCH   1   7
BRANCH   5  16
ATOM     16  N   UNL d   1      24.811 -13.196  -4.446  0.00  0.00    -0.399 N 
ATOM     17  H   UNL d   1      24.134 -13.683  -5.020  0.00  0.00     0.156 HD
ATOM     18  H   UNL d   1      24.664 -12.201  -4.331  0.00  0.00     0.156 HD
ENDBRANCH   5  16
TORSDOF 5
ENDMDL
MODEL 4
REMARK VINA RESULT:    -6.380      1.779      6.648
REMARK INTER + INTRA:          -8.218
REMARK INTER:                  -7.871
REMARK INTRA:                  -0.347
REMARK CONF_INDEPENDENT:        1.492
REMARK UNBOUND:                -0.347
REMARK  5 active torsions:
REMARK  status: ('A' for Active; 'I' for Inactive)
REMARK    1  A    between atoms: C_2  and  N_4 
REMARK       I    between atoms: N_4  and  C_5 
REMARK    2  A    between atoms: C_5  and  C_7 
REMARK    3  A    between atoms: C_7  and  C_8 
REMARK    4  A    between atoms: C_8  and  C_9 
REMARK    5  A    between atoms: C_13  and  N_14 
ROOT
ATOM      1  C   UNL d   1      19.999 -19.447  -0.119  0.00  0.00    -0.056 A 
ATOM      2  C   UNL d   1      18.809 -20.066  -0.518  0.00  0.00     0.007 A 
ATOM      3  C   UNL d   1      18.083 -20.831   0.390  0.00  0.00     0.003 A 
ATOM      4  C   UNL d   1      18.544 -20.985   1.699  0.00  0.00     0.029 A 
ATOM      5  C   UNL d   1      19.755 -20.419   2.105  0.00  0.00     0.026 A 
ATOM      6  C   UNL d   1      20.465 -19.635   1.191  0.00  0.00     0.036 A 
ENDROOT
BRANCH   1   7
ATOM      7  C   UNL d   1      20.740 -18.551  -1.076  0.00  0.00     0.048 C 
BRANCH   7   8
ATOM      8  C   UNL d   1      22.194 -18.999  -1.277  0.00  0.00     0.107 C 
BRANCH   8   9
ATOM      9  C   UNL d   1      23.128 -17.999  -0.633  0.00  0.00     0.218 C 
ATOM     10  N   UNL d   1      24.401 -18.458  -0.359  0.00  0.00    -0.357 N 
ATOM     11  H   UNL d   1      24.631 -19.431  -0.525  0.00  0.00     0.162 HD
ATOM     12  O   UNL d   1      22.771 -16.846  -0.377  0.00  0.00    -0.274 OA
BRANCH  10  13
ATOM     13  C   UNL d   1      25.403 -17.573   0.235  0.00  0.00     0.076 C 
ATOM     14  C   UNL d   1      26.658 -18.333   0.664  0.00  0.00     0.032 C 
ATOM     15  C   UNL d   1      25.807 -16.466  -0.743  0.00  0.00     0.032 C 
ENDBRANCH  10  13
ENDBRANCH   8   9
ENDBRANCH   7   8
ENDBRANCH   1   7
BRANCH   5  16
ATOM     16  N   UNL d   1      20.135 -20.456   3.444  0.00  0.00    -0.399 N 
ATOM     17  H   UNL d   1      19.821 -21.241   4.002  0.00  0.00     0.156 HD
ATOM     18  H   UNL d   1      21.036 -20.067   3.690  0.00  0.00     0.156 HD
ENDBRANCH   5  16
TORSDOF 5
ENDMDL
MODEL 5
REMARK VINA RESULT:    -5.804      2.072      6.777
REMARK INTER + INTRA:          -7.611
REMARK INTER:                  -7.295
REMARK INTRA:                  -0.316
REMARK CONF_INDEPENDENT:        1.492
REMARK UNBOUND:                -0.316
REMARK  5 active torsions:
REMARK  status: ('A' for Active; 'I' for Inactive)
REMARK    1  A    between atoms: C_2  and  N_4 
REMARK       I    between atoms: N_4  and  C_5 
REMARK    2  A    between atoms: C_5  and  C_7 
REMARK    3  A    between atoms: C_7  and  C_8 
REMARK    4  A    between atoms: C_8  and  C_9 
REMARK    5  A    between atoms: C_13  and  N_14 
ROOT
ATOM      1  C   UNL d   1      20.837 -18.989  -0.449  0.00  0.00    -0.056 A 
ATOM      2  C   UNL d   1      19.659 -19.349  -1.112  0.00  0.00     0.007 A 
ATOM      3  C   UNL d   1      18.677 -20.075  -0.443  0.00  0.00     0.003 A 
ATOM      4  C   UNL d   1      18.871 -20.449   0.888  0.00  0.00     0.029 A 
ATOM      5  C   UNL d   1      20.061 -20.144   1.554  0.00  0.00     0.026 A 
ATOM      6  C   UNL d   1      21.030 -19.396   0.880  0.00  0.00     0.036 A 
ENDROOT
BRANCH   1   7
ATOM      7  C   UNL d   1      21.861 -18.131  -1.145  0.00  0.00     0.048 C 
BRANCH   7   8
ATOM      8  C   UNL d   1      22.769 -17.396  -0.149  0.00  0.00     0.107 C 
BRANCH   8   9
ATOM      9  C   UNL d   1      24.192 -17.399  -0.663  0.00  0.00     0.218 C 
ATOM     10  N   UNL d   1      24.534 -16.346  -1.486  0.00  0.00    -0.357 N 
ATOM     11  H   UNL d   1      23.827 -15.675  -1.765  0.00  0.00     0.162 HD
ATOM     12  O   UNL d   1      24.993 -18.287  -0.357  0.00  0.00    -0.274 OA
BRANCH  10  13
ATOM     13  C   UNL d   1      25.891 -16.223  -2.020  0.00  0.00     0.076 C 
ATOM     14  C   UNL d   1      25.907 -15.573  -3.403  0.00  0.00     0.032 C 
ATOM     15  C   UNL d   1      26.779 -15.405  -1.079  0.00  0.00     0.032 C 
ENDBRANCH  10  13
ENDBRANCH   8   9
ENDBRANCH   7   8
ENDBRANCH   1   7
BRANCH   5  16
ATOM     16  N   UNL d   1      20.187 -20.393   2.918  0.00  0.00    -0.399 N 
ATOM     17  H   UNL d   1      21.030 -20.854   3.238  0.00  0.00     0.156 HD
ATOM     18  H   UNL d   1      19.773 -19.728   3.559  0.00  0.00     0.156 HD
ENDBRANCH   5  16
TORSDOF 5
ENDMDL
MODEL 6
REMARK VINA RESULT:    -5.581      3.600      7.653
REMARK INTER + INTRA:          -7.409
REMARK INTER:                  -7.072
REMARK INTRA:                  -0.337
REMARK CONF_INDEPENDENT:        1.492
REMARK UNBOUND:                -0.337
REMARK  5 active torsions:
REMARK  status: ('A' for Active; 'I' for Inactive)
REMARK    1  A    between atoms: C_2  and  N_4 
REMARK       I    between atoms: N_4  and  C_5 
REMARK    2  A    between atoms: C_5  and  C_7 
REMARK    3  A    between atoms: C_7  and  C_8 
REMARK    4  A    between atoms: C_8  and  C_9 
REMARK    5  A    between atoms: C_13  and  N_14 
ROOT
ATOM      1  C   UNL d   1      24.682 -16.326  -1.435  0.00  0.00    -0.056 A 
ATOM      2  C   UNL d   1      25.866 -16.976  -1.070  0.00  0.00     0.007 A 
ATOM      3  C   UNL d   1      25.821 -18.098  -0.249  0.00  0.00     0.003 A 
ATOM      4  C   UNL d   1      24.593 -18.574   0.217  0.00  0.00     0.029 A 
ATOM      5  C   UNL d   1      23.402 -17.910  -0.092  0.00  0.00     0.026 A 
ATOM      6  C   UNL d   1      23.458 -16.798  -0.936  0.00  0.00     0.036 A 
ENDROOT
BRANCH   1   7
ATOM      7  C   UNL d   1      24.724 -15.164  -2.391  0.00  0.00     0.048 C 
BRANCH   7   8
ATOM      8  C   UNL d   1      26.162 -14.729  -2.707  0.00  0.00     0.107 C 
BRANCH   8   9
ATOM      9  C   UNL d   1      26.415 -14.853  -4.193  0.00  0.00     0.218 C 
ATOM     10  N   UNL d   1      27.699 -14.559  -4.608  0.00  0.00    -0.357 N 
ATOM     11  H   UNL d   1      28.377 -14.214  -3.939  0.00  0.00     0.162 HD
ATOM     12  O   UNL d   1      25.530 -15.201  -4.978  0.00  0.00    -0.274 OA
BRANCH  10  13
ATOM     13  C   UNL d   1      28.074 -14.673  -6.018  0.00  0.00     0.076 C 
ATOM     14  C   UNL d   1      28.374 -13.311  -6.644  0.00  0.00     0.032 C 
ATOM     15  C   UNL d   1      29.298 -15.576  -6.189  0.00  0.00     0.032 C 
ENDBRANCH  10  13
ENDBRANCH   8   9
ENDBRANCH   7   8
ENDBRANCH   1   7
BRANCH   5  16
ATOM     16  N   UNL d   1      22.176 -18.470   0.254  0.00  0.00    -0.399 N 
ATOM     17  H   UNL d   1      22.174 -19.412   0.626  0.00  0.00     0.156 HD
ATOM     18  H   UNL d   1      21.457 -17.851   0.609  0.00  0.00     0.156 HD
ENDBRANCH   5  16
TORSDOF 5
ENDMDL
MODEL 7
REMARK VINA RESULT:    -5.492      4.132      7.291
REMARK INTER + INTRA:          -7.382
REMARK INTER:                  -6.983
REMARK INTRA:                  -0.399
REMARK CONF_INDEPENDENT:        1.492
REMARK UNBOUND:                -0.399
REMARK  5 active torsions:
REMARK  status: ('A' for Active; 'I' for Inactive)
REMARK    1  A    between atoms: C_2  and  N_4 
REMARK       I    between atoms: N_4  and  C_5 
REMARK    2  A    between atoms: C_5  and  C_7 
REMARK    3  A    between atoms: C_7  and  C_8 
REMARK    4  A    between atoms: C_8  and  C_9 
REMARK    5  A    between atoms: C_13  and  N_14 
ROOT
ATOM      1  C   UNL d   1      25.374 -16.467  -1.365  0.00  0.00    -0.056 A 
ATOM      2  C   UNL d   1      24.538 -17.359  -0.685  0.00  0.00     0.007 A 
ATOM      3  C   UNL d   1      25.069 -18.219   0.272  0.00  0.00     0.003 A 
ATOM      4  C   UNL d   1      26.437 -18.195   0.551  0.00  0.00     0.029 A 
ATOM      5  C   UNL d   1      27.298 -17.349  -0.152  0.00  0.00     0.026 A 
ATOM      6  C   UNL d   1      26.751 -16.474  -1.095  0.00  0.00     0.036 A 
ENDROOT
BRANCH   1   7
ATOM      7  C   UNL d   1      24.788 -15.478  -2.338  0.00  0.00     0.048 C 
BRANCH   7   8
ATOM      8  C   UNL d   1      25.831 -14.463  -2.827  0.00  0.00     0.107 C 
BRANCH   8   9
ATOM      9  C   UNL d   1      26.279 -14.828  -4.225  0.00  0.00     0.218 C 
ATOM     10  N   UNL d   1      27.579 -14.491  -4.544  0.00  0.00    -0.357 N 
ATOM     11  H   UNL d   1      28.141 -13.969  -3.882  0.00  0.00     0.162 HD
ATOM     12  O   UNL d   1      25.527 -15.393  -5.022  0.00  0.00    -0.274 OA
BRANCH  10  13
ATOM     13  C   UNL d   1      28.136 -14.821  -5.856  0.00  0.00     0.076 C 
ATOM     14  C   UNL d   1      28.550 -13.572  -6.634  0.00  0.00     0.032 C 
ATOM     15  C   UNL d   1      29.351 -15.743  -5.721  0.00  0.00     0.032 C 
ENDBRANCH  10  13
ENDBRANCH   8   9
ENDBRANCH   7   8
ENDBRANCH   1   7
BRANCH   5  16
ATOM     16  N   UNL d   1      28.631 -17.228   0.230  0.00  0.00    -0.399 N 
ATOM     17  H   UNL d   1      28.853 -16.575   0.971  0.00  0.00     0.156 HD
ATOM     18  H   UNL d   1      29.215 -18.053   0.174  0.00  0.00     0.156 HD
ENDBRANCH   5  16
TORSDOF 5
ENDMDL
MODEL 8
REMARK VINA RESULT:    -5.340      3.330      6.770
REMARK INTER + INTRA:          -7.289
REMARK INTER:                  -6.832
REMARK INTRA:                  -0.457
REMARK CONF_INDEPENDENT:        1.492
REMARK UNBOUND:                -0.457
REMARK  5 active torsions:
REMARK  status: ('A' for Active; 'I' for Inactive)
REMARK    1  A    between atoms: C_2  and  N_4 
REMARK       I    between atoms: N_4  and  C_5 
REMARK    2  A    between atoms: C_5  and  C_7 
REMARK    3  A    between atoms: C_7  and  C_8 
REMARK    4  A    between atoms: C_8  and  C_9 
REMARK    5  A    between atoms: C_13  and  N_14 
ROOT
ATOM      1  C   UNL d   1      25.719 -17.620   0.047  0.00  0.00    -0.056 A 
ATOM      2  C   UNL d   1      25.627 -16.993  -1.200  0.00  0.00     0.007 A 
ATOM      3  C   UNL d   1      24.398 -16.912  -1.850  0.00  0.00     0.003 A 
ATOM      4  C   UNL d   1      23.259 -17.462  -1.260  0.00  0.00     0.029 A 
ATOM      5  C   UNL d   1      23.337 -18.138  -0.039  0.00  0.00     0.026 A 
ATOM      6  C   UNL d   1      24.571 -18.193   0.614  0.00  0.00     0.036 A 
ENDROOT
BRANCH   1   7
ATOM      7  C   UNL d   1      27.030 -17.633   0.788  0.00  0.00     0.048 C 
BRANCH   7   8
ATOM      8  C   UNL d   1      27.922 -16.444   0.403  0.00  0.00     0.107 C 
BRANCH   8   9
ATOM      9  C   UNL d   1      27.423 -15.192   1.090  0.00  0.00     0.218 C 
ATOM     10  N   UNL d   1      27.922 -14.966   2.357  0.00  0.00    -0.357 N 
ATOM     11  H   UNL d   1      28.523 -15.656   2.792  0.00  0.00     0.162 HD
ATOM     12  O   UNL d   1      26.627 -14.423   0.546  0.00  0.00    -0.274 OA
BRANCH  10  13
ATOM     13  C   UNL d   1      27.538 -13.771   3.110  0.00  0.00     0.076 C 
ATOM     14  C   UNL d   1      27.329 -14.070   4.594  0.00  0.00     0.032 C 
ATOM     15  C   UNL d   1      28.594 -12.672   2.973  0.00  0.00     0.032 C 
ENDBRANCH  10  13
ENDBRANCH   8   9
ENDBRANCH   7   8
ENDBRANCH   1   7
BRANCH   5  16
ATOM     16  N   UNL d   1      22.178 -18.555   0.609  0.00  0.00    -0.399 N 
ATOM     17  H   UNL d   1      22.136 -19.515   0.930  0.00  0.00     0.156 HD
ATOM     18  H   UNL d   1      21.681 -17.876   1.171  0.00  0.00     0.156 HD
ENDBRANCH   5  16
TORSDOF 5
ENDMDL
MODEL 9
REMARK VINA RESULT:    -5.320      3.167      4.826
REMARK INTER + INTRA:          -7.300
REMARK INTER:                  -6.812
REMARK INTRA:                  -0.488
REMARK CONF_INDEPENDENT:        1.492
REMARK UNBOUND:                -0.488
REMARK  5 active torsions:
REMARK  status: ('A' for Active; 'I' for Inactive)
REMARK    1  A    between atoms: C_2  and  N_4 
REMARK       I    between atoms: N_4  and  C_5 
REMARK    2  A    between atoms: C_5  and  C_7 
REMARK    3  A    between atoms: C_7  and  C_8 
REMARK    4  A    between atoms: C_8  and  C_9 
REMARK    5  A    between atoms: C_13  and  N_14 
ROOT
ATOM      1  C   UNL d   1      26.729 -15.239  -2.257  0.00  0.00    -0.056 A 
ATOM      2  C   UNL d   1      27.710 -15.599  -3.188  0.00  0.00     0.007 A 
ATOM      3  C   UNL d   1      27.573 -15.226  -4.522  0.00  0.00     0.003 A 
ATOM      4  C   UNL d   1      26.455 -14.498  -4.933  0.00  0.00     0.029 A 
ATOM      5  C   UNL d   1      25.438 -14.173  -4.030  0.00  0.00     0.026 A 
ATOM      6  C   UNL d   1      25.597 -14.533  -2.689  0.00  0.00     0.036 A 
ENDROOT
BRANCH   1   7
ATOM      7  C   UNL d   1      26.919 -15.569  -0.799  0.00  0.00     0.048 C 
BRANCH   7   8
ATOM      8  C   UNL d   1      27.155 -17.069  -0.573  0.00  0.00     0.107 C 
BRANCH   8   9
ATOM      9  C   UNL d   1      25.907 -17.698   0.003  0.00  0.00     0.218 C 
ATOM     10  N   UNL d   1      24.717 -17.311  -0.581  0.00  0.00    -0.357 N 
ATOM     11  H   UNL d   1      24.718 -16.594  -1.296  0.00  0.00     0.162 HD
ATOM     12  O   UNL d   1      25.955 -18.508   0.932  0.00  0.00    -0.274 OA
BRANCH  10  13
ATOM     13  C   UNL d   1      23.444 -17.876  -0.130  0.00  0.00     0.076 C 
ATOM     14  C   UNL d   1      22.251 -17.033  -0.579  0.00  0.00     0.032 C 
ATOM     15  C   UNL d   1      23.263 -19.304  -0.649  0.00  0.00     0.032 C 
ENDBRANCH  10  13
ENDBRANCH   8   9
ENDBRANCH   7   8
ENDBRANCH   1   7
BRANCH   5  16
ATOM     16  N   UNL d   1      24.402 -13.327  -4.413  0.00  0.00    -0.399 N 
ATOM     17  H   UNL d   1      23.554 -13.750  -4.771  0.00  0.00     0.156 HD
ATOM     18  H   UNL d   1      24.285 -12.461  -3.901  0.00  0.00     0.156 HD
ENDBRANCH   5  16
TORSDOF 5
ENDMDL
