MODEL 1
REMARK VINA RESULT:    -8.345      0.000      0.000
REMARK INTER + INTRA:         -11.358
REMARK INTER:                 -10.433
REMARK INTRA:                  -0.924
REMARK CONF_INDEPENDENT:        2.088
REMARK UNBOUND:                -0.924
REMARK  7 active torsions:
REMARK  status: ('A' for Active; 'I' for Inactive)
REMARK    1  A    between atoms: O_2  and  C_3 
REMARK    2  A    between atoms: C_6  and  C_7 
REMARK       I    between atoms: C_7  and  N_9 
REMARK    3  A    between atoms: N_9  and  C_10 
REMARK    4  A    between atoms: C_10  and  N_12 
REMARK    5  A    between atoms: N_12  and  C_13 
REMARK    6  A    between atoms: C_16  and  N_17 
REMARK       I    between atoms: N_20  and  C_21 
REMARK    7  A    between atoms: C_29  and  O_30 
ROOT
ATOM      1  N   UNL d   1      30.160 -14.325   1.247  0.00  0.00    -0.333 N 
ATOM      2  H   UNL d   1      30.449 -13.526   0.695  0.00  0.00     0.168 HD
ENDROOT
BRANCH   1   3
ATOM      3  C   UNL d   1      31.001 -14.822   2.281  0.00  0.00     0.179 C 
ATOM      4  S   UNL d   1      32.296 -15.870   1.972  0.00  0.00    -0.040 SA
BRANCH   3   5
ATOM      5  N   UNL d   1      30.709 -14.338   3.586  0.00  0.00    -0.299 N 
ATOM      6  C   UNL d   1      29.408 -14.209   4.138  0.00  0.00     0.257 C 
ATOM      7  O   UNL d   1      28.363 -14.430   3.504  0.00  0.00    -0.267 OA
ATOM      8  H   UNL d   1      31.491 -14.066   4.166  0.00  0.00     0.171 HD
BRANCH   6   9
ATOM      9  C   UNL d   1      29.149 -13.732   5.529  0.00  0.00     0.035 A 
ATOM     10  C   UNL d   1      28.451 -12.522   5.712  0.00  0.00     0.020 A 
ATOM     11  C   UNL d   1      28.267 -11.962   6.989  0.00  0.00     0.040 A 
ATOM     12  C   UNL d   1      28.702 -12.628   8.150  0.00  0.00     0.101 A 
ATOM     13  C   UNL d   1      29.371 -13.864   7.962  0.00  0.00     0.102 A 
ATOM     14  C   UNL d   1      29.586 -14.389   6.663  0.00  0.00     0.056 A 
BRANCH  12  15
ATOM     15  O   UNL d   1      28.154 -12.101   9.300  0.00  0.00    -0.353 OA
ATOM     16  C   UNL d   1      27.921 -12.864  10.483  0.00  0.00     0.210 C 
ENDBRANCH  12  15
BRANCH  13  17
ATOM     17  O   UNL d   1      29.867 -14.783   8.855  0.00  0.00    -0.353 OA
ATOM     18  C   UNL d   1      30.772 -14.275   9.785  0.00  0.00     0.210 C 
ENDBRANCH  13  17
ENDBRANCH   6   9
ENDBRANCH   3   5
ENDBRANCH   1   3
BRANCH   1  19
ATOM     19  C   UNL d   1      28.992 -15.028   0.748  0.00  0.00     0.034 A 
ATOM     20  C   UNL d   1      29.030 -16.328   0.231  0.00  0.00     0.032 A 
ATOM     21  C   UNL d   1      27.838 -16.948  -0.253  0.00  0.00     0.031 A 
ATOM     22  C   UNL d   1      26.580 -16.318  -0.215  0.00  0.00     0.030 A 
ATOM     23  C   UNL d   1      26.572 -15.016   0.274  0.00  0.00     0.031 A 
ATOM     24  C   UNL d   1      27.748 -14.388   0.722  0.00  0.00     0.032 A 
BRANCH  22  25
ATOM     25  N   UNL d   1      25.424 -16.948  -0.630  0.00  0.00    -0.378 N 
ATOM     26  C   UNL d   1      25.092 -18.315  -0.196  0.00  0.00     0.143 C 
ATOM     27  C   UNL d   1      23.745 -18.339   0.572  0.00  0.00     0.145 C 
ATOM     28  N   UNL d   1      22.668 -17.715  -0.212  0.00  0.00    -0.349 N 
ATOM     29  C   UNL d   1      21.463 -18.285  -0.586  0.00  0.00     0.215 C 
ATOM     30  C   UNL d   1      22.995 -16.334  -0.619  0.00  0.00     0.145 C 
ATOM     31  C   UNL d   1      21.125 -19.702  -0.164  0.00  0.00     0.117 C 
ATOM     32  O   UNL d   1      20.638 -17.671  -1.270  0.00  0.00    -0.274 OA
ATOM     33  C   UNL d   1      24.348 -16.261  -1.370  0.00  0.00     0.143 C 
ENDBRANCH  22  25
ENDBRANCH   1  19
TORSDOF 7
ENDMDL
MODEL 2
REMARK VINA RESULT:    -8.008      7.009     10.590
REMARK INTER + INTRA:         -10.853
REMARK INTER:                 -10.096
REMARK INTRA:                  -0.757
REMARK CONF_INDEPENDENT:        2.088
REMARK UNBOUND:                -0.757
REMARK  7 active torsions:
REMARK  status: ('A' for Active; 'I' for Inactive)
REMARK    1  A    between atoms: O_2  and  C_3 
REMARK    2  A    between atoms: C_6  and  C_7 
REMARK       I    between atoms: C_7  and  N_9 
REMARK    3  A    between atoms: N_9  and  C_10 
REMARK    4  A    between atoms: C_10  and  N_12 
REMARK    5  A    between atoms: N_12  and  C_13 
REMARK    6  A    between atoms: C_16  and  N_17 
REMARK       I    between atoms: N_20  and  C_21 
REMARK    7  A    between atoms: C_29  and  O_30 
ROOT
ATOM      1  N   UNL d   1      25.110 -15.857  -1.678  0.00  0.00    -0.333 N 
ATOM      2  H   UNL d   1      24.540 -15.055  -1.434  0.00  0.00     0.168 HD
ENDROOT
BRANCH   1   3
ATOM      3  C   UNL d   1      25.188 -16.973  -0.799  0.00  0.00     0.179 C 
ATOM      4  S   UNL d   1      26.666 -17.649  -0.319  0.00  0.00    -0.040 SA
BRANCH   3   5
ATOM      5  N   UNL d   1      23.940 -17.450  -0.312  0.00  0.00    -0.299 N 
ATOM      6  C   UNL d   1      23.106 -18.385  -0.978  0.00  0.00     0.257 C 
ATOM      7  O   UNL d   1      23.338 -18.831  -2.114  0.00  0.00    -0.267 OA
ATOM      8  H   UNL d   1      23.624 -17.097   0.581  0.00  0.00     0.171 HD
BRANCH   6   9
ATOM      9  C   UNL d   1      21.820 -18.888  -0.412  0.00  0.00     0.035 A 
ATOM     10  C   UNL d   1      20.815 -19.332  -1.295  0.00  0.00     0.020 A 
ATOM     11  C   UNL d   1      19.544 -19.717  -0.834  0.00  0.00     0.040 A 
ATOM     12  C   UNL d   1      19.244 -19.755   0.541  0.00  0.00     0.101 A 
ATOM     13  C   UNL d   1      20.271 -19.344   1.427  0.00  0.00     0.102 A 
ATOM     14  C   UNL d   1      21.531 -18.915   0.939  0.00  0.00     0.056 A 
BRANCH  12  15
ATOM     15  O   UNL d   1      18.089 -20.457   0.811  0.00  0.00    -0.353 OA
ATOM     16  C   UNL d   1      18.051 -21.873   0.986  0.00  0.00     0.210 C 
ENDBRANCH  12  15
BRANCH  13  17
ATOM     17  O   UNL d   1      20.338 -19.309   2.799  0.00  0.00    -0.353 OA
ATOM     18  C   UNL d   1      19.861 -20.449   3.444  0.00  0.00     0.210 C 
ENDBRANCH  13  17
ENDBRANCH   6   9
ENDBRANCH   3   5
ENDBRANCH   1   3
BRANCH   1  19
ATOM     19  C   UNL d   1      25.985 -15.666  -2.819  0.00  0.00     0.034 A 
ATOM     20  C   UNL d   1      25.530 -15.336  -4.101  0.00  0.00     0.032 A 
ATOM     21  C   UNL d   1      26.454 -15.177  -5.178  0.00  0.00     0.031 A 
ATOM     22  C   UNL d   1      27.846 -15.310  -5.015  0.00  0.00     0.030 A 
ATOM     23  C   UNL d   1      28.273 -15.668  -3.740  0.00  0.00     0.031 A 
ATOM     24  C   UNL d   1      27.365 -15.858  -2.683  0.00  0.00     0.032 A 
BRANCH  22  25
ATOM     25  N   UNL d   1      28.736 -15.096  -6.048  0.00  0.00    -0.378 N 
ATOM     26  C   UNL d   1      28.746 -13.836  -6.809  0.00  0.00     0.143 C 
ATOM     27  C   UNL d   1      30.122 -13.130  -6.691  0.00  0.00     0.145 C 
ATOM     28  N   UNL d   1      31.222 -14.030  -7.069  0.00  0.00    -0.349 N 
ATOM     29  C   UNL d   1      32.180 -13.821  -8.047  0.00  0.00     0.215 C 
ATOM     30  C   UNL d   1      31.224 -15.280  -6.282  0.00  0.00     0.145 C 
ATOM     31  C   UNL d   1      32.181 -12.537  -8.852  0.00  0.00     0.117 C 
ATOM     32  O   UNL d   1      33.048 -14.664  -8.297  0.00  0.00    -0.274 OA
ATOM     33  C   UNL d   1      29.858 -16.006  -6.353  0.00  0.00     0.143 C 
ENDBRANCH  22  25
ENDBRANCH   1  19
TORSDOF 7
ENDMDL
MODEL 3
REMARK VINA RESULT:    -7.826      0.863      1.811
REMARK INTER + INTRA:         -10.785
REMARK INTER:                  -9.914
REMARK INTRA:                  -0.872
REMARK CONF_INDEPENDENT:        2.088
REMARK UNBOUND:                -0.872
REMARK  7 active torsions:
REMARK  status: ('A' for Active; 'I' for Inactive)
REMARK    1  A    between atoms: O_2  and  C_3 
REMARK    2  A    between atoms: C_6  and  C_7 
REMARK       I    between atoms: C_7  and  N_9 
REMARK    3  A    between atoms: N_9  and  C_10 
REMARK    4  A    between atoms: C_10  and  N_12 
REMARK    5  A    between atoms: N_12  and  C_13 
REMARK    6  A    between atoms: C_16  and  N_17 
REMARK       I    between atoms: N_20  and  C_21 
REMARK    7  A    between atoms: C_29  and  O_30 
ROOT
ATOM      1  N   UNL d   1      30.197 -14.281   0.924  0.00  0.00    -0.333 N 
ATOM      2  H   UNL d   1      30.506 -13.530   0.319  0.00  0.00     0.168 HD
ENDROOT
BRANCH   1   3
ATOM      3  C   UNL d   1      31.072 -14.809   1.914  0.00  0.00     0.179 C 
ATOM      4  S   UNL d   1      32.386 -15.806   1.524  0.00  0.00    -0.040 SA
BRANCH   3   5
ATOM      5  N   UNL d   1      30.797 -14.401   3.247  0.00  0.00    -0.299 N 
ATOM      6  C   UNL d   1      29.641 -13.689   3.662  0.00  0.00     0.257 C 
ATOM      7  O   UNL d   1      28.773 -13.266   2.881  0.00  0.00    -0.267 OA
ATOM      8  H   UNL d   1      31.477 -14.639   3.956  0.00  0.00     0.171 HD
BRANCH   6   9
ATOM      9  C   UNL d   1      29.373 -13.313   5.081  0.00  0.00     0.035 A 
ATOM     10  C   UNL d   1      29.395 -14.320   6.066  0.00  0.00     0.020 A 
ATOM     11  C   UNL d   1      29.048 -14.054   7.403  0.00  0.00     0.040 A 
ATOM     12  C   UNL d   1      28.742 -12.749   7.834  0.00  0.00     0.101 A 
ATOM     13  C   UNL d   1      28.758 -11.733   6.846  0.00  0.00     0.102 A 
ATOM     14  C   UNL d   1      29.067 -12.030   5.495  0.00  0.00     0.056 A 
BRANCH  12  15
ATOM     15  O   UNL d   1      28.751 -12.630   9.207  0.00  0.00    -0.353 OA
ATOM     16  C   UNL d   1      28.167 -13.591  10.085  0.00  0.00     0.210 C 
ENDBRANCH  12  15
BRANCH  13  17
ATOM     17  O   UNL d   1      28.567 -10.374   6.925  0.00  0.00    -0.353 OA
ATOM     18  C   UNL d   1      29.398  -9.711   7.826  0.00  0.00     0.210 C 
ENDBRANCH  13  17
ENDBRANCH   6   9
ENDBRANCH   3   5
ENDBRANCH   1   3
BRANCH   1  19
ATOM     19  C   UNL d   1      28.941 -14.902   0.543  0.00  0.00     0.034 A 
ATOM     20  C   UNL d   1      27.737 -14.201   0.409  0.00  0.00     0.032 A 
ATOM     21  C   UNL d   1      26.539 -14.886   0.042  0.00  0.00     0.031 A 
ATOM     22  C   UNL d   1      26.502 -16.267  -0.229  0.00  0.00     0.030 A 
ATOM     23  C   UNL d   1      27.703 -16.948  -0.060  0.00  0.00     0.031 A 
ATOM     24  C   UNL d   1      28.879 -16.284   0.333  0.00  0.00     0.032 A 
BRANCH  22  25
ATOM     25  N   UNL d   1      25.352 -16.910  -0.641  0.00  0.00    -0.378 N 
ATOM     26  C   UNL d   1      25.036 -18.280  -0.206  0.00  0.00     0.143 C 
ATOM     27  C   UNL d   1      23.691 -18.318   0.565  0.00  0.00     0.145 C 
ATOM     28  N   UNL d   1      22.605 -17.706  -0.216  0.00  0.00    -0.349 N 
ATOM     29  C   UNL d   1      21.405 -18.289  -0.587  0.00  0.00     0.215 C 
ATOM     30  C   UNL d   1      22.917 -16.322  -0.625  0.00  0.00     0.145 C 
ATOM     31  C   UNL d   1      21.084 -19.710  -0.164  0.00  0.00     0.117 C 
ATOM     32  O   UNL d   1      20.573 -17.685  -1.270  0.00  0.00    -0.274 OA
ATOM     33  C   UNL d   1      24.267 -16.235  -1.379  0.00  0.00     0.143 C 
ENDBRANCH  22  25
ENDBRANCH   1  19
TORSDOF 7
ENDMDL
MODEL 4
REMARK VINA RESULT:    -7.245      3.649      5.028
REMARK INTER + INTRA:         -10.389
REMARK INTER:                  -9.333
REMARK INTRA:                  -1.056
REMARK CONF_INDEPENDENT:        2.088
REMARK UNBOUND:                -1.056
REMARK  7 active torsions:
REMARK  status: ('A' for Active; 'I' for Inactive)
REMARK    1  A    between atoms: O_2  and  C_3 
REMARK    2  A    between atoms: C_6  and  C_7 
REMARK       I    between atoms: C_7  and  N_9 
REMARK    3  A    between atoms: N_9  and  C_10 
REMARK    4  A    between atoms: C_10  and  N_12 
REMARK    5  A    between atoms: N_12  and  C_13 
REMARK    6  A    between atoms: C_16  and  N_17 
REMARK       I    between atoms: N_20  and  C_21 
REMARK    7  A    between atoms: C_29  and  O_30 
ROOT
ATOM      1  N   UNL d   1      29.617 -14.923   1.143  0.00  0.00    -0.333 N 
ATOM      2  H   UNL d   1      29.981 -15.334   1.994  0.00  0.00     0.168 HD
ENDROOT
BRANCH   1   3
ATOM      3  C   UNL d   1      30.138 -13.687   0.666  0.00  0.00     0.179 C 
ATOM      4  S   UNL d   1      31.533 -13.600  -0.292  0.00  0.00    -0.040 SA
BRANCH   3   5
ATOM      5  N   UNL d   1      29.378 -12.536   1.010  0.00  0.00    -0.299 N 
ATOM      6  C   UNL d   1      28.447 -11.887   0.157  0.00  0.00     0.257 C 
ATOM      7  O   UNL d   1      28.254 -12.208  -1.027  0.00  0.00    -0.267 OA
ATOM      8  H   UNL d   1      29.509 -12.151   1.935  0.00  0.00     0.171 HD
BRANCH   6   9
ATOM      9  C   UNL d   1      27.640 -10.702   0.573  0.00  0.00     0.035 A 
ATOM     10  C   UNL d   1      27.070  -9.884  -0.424  0.00  0.00     0.020 A 
ATOM     11  C   UNL d   1      26.390  -8.696  -0.104  0.00  0.00     0.040 A 
ATOM     12  C   UNL d   1      26.177  -8.311   1.233  0.00  0.00     0.101 A 
ATOM     13  C   UNL d   1      26.720  -9.157   2.233  0.00  0.00     0.102 A 
ATOM     14  C   UNL d   1      27.442 -10.327   1.888  0.00  0.00     0.056 A 
BRANCH  12  15
ATOM     15  O   UNL d   1      25.228  -7.318   1.353  0.00  0.00    -0.353 OA
ATOM     16  C   UNL d   1      25.322  -6.056   0.694  0.00  0.00     0.210 C 
ENDBRANCH  12  15
BRANCH  13  17
ATOM     17  O   UNL d   1      26.655  -9.114   3.605  0.00  0.00    -0.353 OA
ATOM     18  C   UNL d   1      27.177 -10.229   4.257  0.00  0.00     0.210 C 
ENDBRANCH  13  17
ENDBRANCH   6   9
ENDBRANCH   3   5
ENDBRANCH   1   3
BRANCH   1  19
ATOM     19  C   UNL d   1      28.414 -15.546   0.621  0.00  0.00     0.034 A 
ATOM     20  C   UNL d   1      28.379 -16.839   0.086  0.00  0.00     0.032 A 
ATOM     21  C   UNL d   1      27.157 -17.378  -0.420  0.00  0.00     0.031 A 
ATOM     22  C   UNL d   1      25.939 -16.673  -0.385  0.00  0.00     0.030 A 
ATOM     23  C   UNL d   1      26.005 -15.380   0.123  0.00  0.00     0.031 A 
ATOM     24  C   UNL d   1      27.212 -14.831   0.593  0.00  0.00     0.032 A 
BRANCH  22  25
ATOM     25  N   UNL d   1      24.751 -17.226  -0.821  0.00  0.00    -0.378 N 
ATOM     26  C   UNL d   1      24.443 -18.650  -0.618  0.00  0.00     0.143 C 
ATOM     27  C   UNL d   1      23.156 -18.822   0.230  0.00  0.00     0.145 C 
ATOM     28  N   UNL d   1      22.028 -18.074  -0.347  0.00  0.00    -0.349 N 
ATOM     29  C   UNL d   1      20.795 -18.574  -0.728  0.00  0.00     0.215 C 
ATOM     30  C   UNL d   1      22.334 -16.639  -0.521  0.00  0.00     0.145 C 
ATOM     31  C   UNL d   1      20.480 -20.046  -0.546  0.00  0.00     0.117 C 
ATOM     32  O   UNL d   1      19.927 -17.852  -1.228  0.00  0.00    -0.274 OA
ATOM     33  C   UNL d   1      23.629 -16.423  -1.343  0.00  0.00     0.143 C 
ENDBRANCH  22  25
ENDBRANCH   1  19
TORSDOF 7
ENDMDL
MODEL 5
REMARK VINA RESULT:    -7.215      6.530      9.418
REMARK INTER + INTRA:         -10.391
REMARK INTER:                  -9.303
REMARK INTRA:                  -1.088
REMARK CONF_INDEPENDENT:        2.088
REMARK UNBOUND:                -1.088
REMARK  7 active torsions:
REMARK  status: ('A' for Active; 'I' for Inactive)
REMARK    1  A    between atoms: O_2  and  C_3 
REMARK    2  A    between atoms: C_6  and  C_7 
REMARK       I    between atoms: C_7  and  N_9 
REMARK    3  A    between atoms: N_9  and  C_10 
REMARK    4  A    between atoms: C_10  and  N_12 
REMARK    5  A    between atoms: N_12  and  C_13 
REMARK    6  A    between atoms: C_16  and  N_17 
REMARK       I    between atoms: N_20  and  C_21 
REMARK    7  A    between atoms: C_29  and  O_30 
ROOT
ATOM      1  N   UNL d   1      27.265 -12.831  -4.839  0.00  0.00    -0.333 N 
ATOM      2  H   UNL d   1      27.166 -12.239  -5.655  0.00  0.00     0.168 HD
ENDROOT
BRANCH   1   3
ATOM      3  C   UNL d   1      26.759 -12.404  -3.580  0.00  0.00     0.179 C 
ATOM      4  S   UNL d   1      26.644 -10.768  -3.156  0.00  0.00    -0.040 SA
BRANCH   3   5
ATOM      5  N   UNL d   1      26.309 -13.446  -2.723  0.00  0.00    -0.299 N 
ATOM      6  C   UNL d   1      25.417 -14.485  -3.097  0.00  0.00     0.257 C 
ATOM      7  O   UNL d   1      24.860 -14.551  -4.204  0.00  0.00    -0.267 OA
ATOM      8  H   UNL d   1      26.654 -13.447  -1.773  0.00  0.00     0.171 HD
BRANCH   6   9
ATOM      9  C   UNL d   1      25.001 -15.582  -2.174  0.00  0.00     0.035 A 
ATOM     10  C   UNL d   1      23.660 -15.637  -1.745  0.00  0.00     0.020 A 
ATOM     11  C   UNL d   1      23.227 -16.579  -0.795  0.00  0.00     0.040 A 
ATOM     12  C   UNL d   1      24.098 -17.563  -0.290  0.00  0.00     0.101 A 
ATOM     13  C   UNL d   1      25.437 -17.527  -0.754  0.00  0.00     0.102 A 
ATOM     14  C   UNL d   1      25.864 -16.541  -1.678  0.00  0.00     0.056 A 
BRANCH  12  15
ATOM     15  O   UNL d   1      23.429 -18.577   0.362  0.00  0.00    -0.353 OA
ATOM     16  C   UNL d   1      22.249 -19.197  -0.148  0.00  0.00     0.210 C 
ENDBRANCH  12  15
BRANCH  13  17
ATOM     17  O   UNL d   1      26.512 -18.349  -0.517  0.00  0.00    -0.353 OA
ATOM     18  C   UNL d   1      26.848 -18.511   0.826  0.00  0.00     0.210 C 
ENDBRANCH  13  17
ENDBRANCH   6   9
ENDBRANCH   3   5
ENDBRANCH   1   3
BRANCH   1  19
ATOM     19  C   UNL d   1      28.142 -13.975  -5.011  0.00  0.00     0.034 A 
ATOM     20  C   UNL d   1      28.645 -14.735  -3.948  0.00  0.00     0.032 A 
ATOM     21  C   UNL d   1      29.514 -15.840  -4.198  0.00  0.00     0.031 A 
ATOM     22  C   UNL d   1      29.886 -16.241  -5.495  0.00  0.00     0.030 A 
ATOM     23  C   UNL d   1      29.400 -15.452  -6.533  0.00  0.00     0.031 A 
ATOM     24  C   UNL d   1      28.569 -14.343  -6.292  0.00  0.00     0.032 A 
BRANCH  22  25
ATOM     25  N   UNL d   1      30.678 -17.347  -5.730  0.00  0.00    -0.378 N 
ATOM     26  C   UNL d   1      30.870 -18.389  -4.708  0.00  0.00     0.143 C 
ATOM     27  C   UNL d   1      30.378 -19.766  -5.224  0.00  0.00     0.145 C 
ATOM     28  N   UNL d   1      31.001 -20.112  -6.511  0.00  0.00    -0.349 N 
ATOM     29  C   UNL d   1      31.739 -21.244  -6.810  0.00  0.00     0.215 C 
ATOM     30  C   UNL d   1      30.779 -19.076  -7.540  0.00  0.00     0.145 C 
ATOM     31  C   UNL d   1      31.963 -22.310  -5.754  0.00  0.00     0.117 C 
ATOM     32  O   UNL d   1      32.239 -21.419  -7.926  0.00  0.00    -0.274 OA
ATOM     33  C   UNL d   1      31.236 -17.678  -7.056  0.00  0.00     0.143 C 
ENDBRANCH  22  25
ENDBRANCH   1  19
TORSDOF 7
ENDMDL
MODEL 6
REMARK VINA RESULT:    -7.139      6.583      9.465
REMARK INTER + INTRA:         -10.507
REMARK INTER:                  -9.227
REMARK INTRA:                  -1.281
REMARK CONF_INDEPENDENT:        2.088
REMARK UNBOUND:                -1.281
REMARK  7 active torsions:
REMARK  status: ('A' for Active; 'I' for Inactive)
REMARK    1  A    between atoms: O_2  and  C_3 
REMARK    2  A    between atoms: C_6  and  C_7 
REMARK       I    between atoms: C_7  and  N_9 
REMARK    3  A    between atoms: N_9  and  C_10 
REMARK    4  A    between atoms: C_10  and  N_12 
REMARK    5  A    between atoms: N_12  and  C_13 
REMARK    6  A    between atoms: C_16  and  N_17 
REMARK       I    between atoms: N_20  and  C_21 
REMARK    7  A    between atoms: C_29  and  O_30 
ROOT
ATOM      1  N   UNL d   1      27.554 -12.098  -5.133  0.00  0.00    -0.333 N 
ATOM      2  H   UNL d   1      27.877 -11.316  -5.690  0.00  0.00     0.168 HD
ENDROOT
BRANCH   1   3
ATOM      3  C   UNL d   1      26.518 -11.914  -4.174  0.00  0.00     0.179 C 
ATOM      4  S   UNL d   1      25.530 -10.538  -4.160  0.00  0.00    -0.040 SA
BRANCH   3   5
ATOM      5  N   UNL d   1      26.339 -12.989  -3.261  0.00  0.00    -0.299 N 
ATOM      6  C   UNL d   1      25.510 -14.120  -3.482  0.00  0.00     0.257 C 
ATOM      7  O   UNL d   1      24.776 -14.255  -4.475  0.00  0.00    -0.267 OA
ATOM      8  H   UNL d   1      26.844 -12.945  -2.387  0.00  0.00     0.171 HD
BRANCH   6   9
ATOM      9  C   UNL d   1      25.381 -15.246  -2.511  0.00  0.00     0.035 A 
ATOM     10  C   UNL d   1      26.542 -15.939  -2.117  0.00  0.00     0.020 A 
ATOM     11  C   UNL d   1      26.479 -17.075  -1.290  0.00  0.00     0.040 A 
ATOM     12  C   UNL d   1      25.258 -17.521  -0.751  0.00  0.00     0.101 A 
ATOM     13  C   UNL d   1      24.097 -16.796  -1.120  0.00  0.00     0.102 A 
ATOM     14  C   UNL d   1      24.176 -15.681  -1.992  0.00  0.00     0.056 A 
BRANCH  12  15
ATOM     15  O   UNL d   1      25.431 -18.424   0.276  0.00  0.00    -0.353 OA
ATOM     16  C   UNL d   1      26.643 -18.549   1.019  0.00  0.00     0.210 C 
ENDBRANCH  12  15
BRANCH  13  17
ATOM     17  O   UNL d   1      22.781 -16.920  -0.745  0.00  0.00    -0.353 OA
ATOM     18  C   UNL d   1      22.433 -18.157  -0.205  0.00  0.00     0.210 C 
ENDBRANCH  13  17
ENDBRANCH   6   9
ENDBRANCH   3   5
ENDBRANCH   1   3
BRANCH   1  19
ATOM     19  C   UNL d   1      28.369 -13.296  -5.220  0.00  0.00     0.034 A 
ATOM     20  C   UNL d   1      29.172 -13.767  -4.175  0.00  0.00     0.032 A 
ATOM     21  C   UNL d   1      29.957 -14.949  -4.342  0.00  0.00     0.031 A 
ATOM     22  C   UNL d   1      29.949 -15.708  -5.527  0.00  0.00     0.030 A 
ATOM     23  C   UNL d   1      29.168 -15.204  -6.562  0.00  0.00     0.031 A 
ATOM     24  C   UNL d   1      28.419 -14.023  -6.414  0.00  0.00     0.032 A 
BRANCH  22  25
ATOM     25  N   UNL d   1      30.664 -16.882  -5.659  0.00  0.00    -0.378 N 
ATOM     26  C   UNL d   1      31.011 -17.708  -4.492  0.00  0.00     0.143 C 
ATOM     27  C   UNL d   1      30.407 -19.131  -4.623  0.00  0.00     0.145 C 
ATOM     28  N   UNL d   1      30.786 -19.760  -5.898  0.00  0.00    -0.349 N 
ATOM     29  C   UNL d   1      31.437 -20.969  -6.077  0.00  0.00     0.215 C 
ATOM     30  C   UNL d   1      30.409 -18.939  -7.066  0.00  0.00     0.145 C 
ATOM     31  C   UNL d   1      31.820 -21.815  -4.877  0.00  0.00     0.117 C 
ATOM     32  O   UNL d   1      31.728 -21.390  -7.201  0.00  0.00    -0.274 OA
ATOM     33  C   UNL d   1      30.973 -17.500  -6.963  0.00  0.00     0.143 C 
ENDBRANCH  22  25
ENDBRANCH   1  19
TORSDOF 7
ENDMDL
MODEL 7
REMARK VINA RESULT:    -6.949      3.672      4.734
REMARK INTER + INTRA:         -10.100
REMARK INTER:                  -9.037
REMARK INTRA:                  -1.063
REMARK CONF_INDEPENDENT:        2.088
REMARK UNBOUND:                -1.063
REMARK  7 active torsions:
REMARK  status: ('A' for Active; 'I' for Inactive)
REMARK    1  A    between atoms: O_2  and  C_3 
REMARK    2  A    between atoms: C_6  and  C_7 
REMARK       I    between atoms: C_7  and  N_9 
REMARK    3  A    between atoms: N_9  and  C_10 
REMARK    4  A    between atoms: C_10  and  N_12 
REMARK    5  A    between atoms: N_12  and  C_13 
REMARK    6  A    between atoms: C_16  and  N_17 
REMARK       I    between atoms: N_20  and  C_21 
REMARK    7  A    between atoms: C_29  and  O_30 
ROOT
ATOM      1  N   UNL d   1      29.685 -14.076   0.315  0.00  0.00    -0.333 N 
ATOM      2  H   UNL d   1      30.337 -13.963  -0.452  0.00  0.00     0.168 HD
ENDROOT
BRANCH   1   3
ATOM      3  C   UNL d   1      30.049 -13.670   1.630  0.00  0.00     0.179 C 
ATOM      4  S   UNL d   1      30.997 -14.637   2.648  0.00  0.00    -0.040 SA
BRANCH   3   5
ATOM      5  N   UNL d   1      29.604 -12.374   2.010  0.00  0.00    -0.299 N 
ATOM      6  C   UNL d   1      28.249 -11.950   2.034  0.00  0.00     0.257 C 
ATOM      7  O   UNL d   1      27.300 -12.646   1.640  0.00  0.00    -0.267 OA
ATOM      8  H   UNL d   1      30.307 -11.704   2.287  0.00  0.00     0.171 HD
BRANCH   6   9
ATOM      9  C   UNL d   1      27.823 -10.590   2.477  0.00  0.00     0.035 A 
ATOM     10  C   UNL d   1      28.558  -9.944   3.492  0.00  0.00     0.020 A 
ATOM     11  C   UNL d   1      28.149  -8.711   4.029  0.00  0.00     0.040 A 
ATOM     12  C   UNL d   1      27.030  -8.025   3.519  0.00  0.00     0.101 A 
ATOM     13  C   UNL d   1      26.316  -8.661   2.472  0.00  0.00     0.102 A 
ATOM     14  C   UNL d   1      26.719  -9.926   1.975  0.00  0.00     0.056 A 
BRANCH  12  15
ATOM     15  O   UNL d   1      26.980  -6.712   3.935  0.00  0.00    -0.353 OA
ATOM     16  C   UNL d   1      27.541  -5.629   3.195  0.00  0.00     0.210 C 
ENDBRANCH  12  15
BRANCH  13  17
ATOM     17  O   UNL d   1      25.236  -8.260   1.724  0.00  0.00    -0.353 OA
ATOM     18  C   UNL d   1      25.521  -7.943   0.397  0.00  0.00     0.210 C 
ENDBRANCH  13  17
ENDBRANCH   6   9
ENDBRANCH   3   5
ENDBRANCH   1   3
BRANCH   1  19
ATOM     19  C   UNL d   1      28.510 -14.874   0.014  0.00  0.00     0.034 A 
ATOM     20  C   UNL d   1      28.175 -16.051   0.694  0.00  0.00     0.032 A 
ATOM     21  C   UNL d   1      27.008 -16.789   0.329  0.00  0.00     0.031 A 
ATOM     22  C   UNL d   1      26.130 -16.374  -0.690  0.00  0.00     0.030 A 
ATOM     23  C   UNL d   1      26.500 -15.219  -1.372  0.00  0.00     0.031 A 
ATOM     24  C   UNL d   1      27.665 -14.506  -1.039  0.00  0.00     0.032 A 
BRANCH  22  25
ATOM     25  N   UNL d   1      24.972 -17.061  -0.995  0.00  0.00    -0.378 N 
ATOM     26  C   UNL d   1      24.743 -18.435  -0.519  0.00  0.00     0.143 C 
ATOM     27  C   UNL d   1      23.471 -18.508   0.364  0.00  0.00     0.145 C 
ATOM     28  N   UNL d   1      22.302 -17.946  -0.329  0.00  0.00    -0.349 N 
ATOM     29  C   UNL d   1      21.096 -18.575  -0.589  0.00  0.00     0.215 C 
ATOM     30  C   UNL d   1      22.528 -16.557  -0.778  0.00  0.00     0.145 C 
ATOM     31  C   UNL d   1      20.863 -19.999  -0.124  0.00  0.00     0.117 C 
ATOM     32  O   UNL d   1      20.188 -18.009  -1.205  0.00  0.00    -0.274 OA
ATOM     33  C   UNL d   1      23.805 -16.434  -1.645  0.00  0.00     0.143 C 
ENDBRANCH  22  25
ENDBRANCH   1  19
TORSDOF 7
ENDMDL
MODEL 8
REMARK VINA RESULT:    -6.804      5.256      8.267
REMARK INTER + INTRA:         -10.212
REMARK INTER:                  -8.892
REMARK INTRA:                  -1.319
REMARK CONF_INDEPENDENT:        2.088
REMARK UNBOUND:                -1.319
REMARK  7 active torsions:
REMARK  status: ('A' for Active; 'I' for Inactive)
REMARK    1  A    between atoms: O_2  and  C_3 
REMARK    2  A    between atoms: C_6  and  C_7 
REMARK       I    between atoms: C_7  and  N_9 
REMARK    3  A    between atoms: N_9  and  C_10 
REMARK    4  A    between atoms: C_10  and  N_12 
REMARK    5  A    between atoms: N_12  and  C_13 
REMARK    6  A    between atoms: C_16  and  N_17 
REMARK       I    between atoms: N_20  and  C_21 
REMARK    7  A    between atoms: C_29  and  O_30 
ROOT
ATOM      1  N   UNL d   1      30.453 -15.196   0.699  0.00  0.00    -0.333 N 
ATOM      2  H   UNL d   1      30.640 -15.236   1.694  0.00  0.00     0.168 HD
ENDROOT
BRANCH   1   3
ATOM      3  C   UNL d   1      31.265 -14.394  -0.151  0.00  0.00     0.179 C 
ATOM      4  S   UNL d   1      32.798 -13.842   0.316  0.00  0.00    -0.040 SA
BRANCH   3   5
ATOM      5  N   UNL d   1      30.722 -14.131  -1.438  0.00  0.00    -0.299 N 
ATOM      6  C   UNL d   1      30.607 -15.081  -2.487  0.00  0.00     0.257 C 
ATOM      7  O   UNL d   1      31.052 -16.239  -2.422  0.00  0.00    -0.267 OA
ATOM      8  H   UNL d   1      30.388 -13.195  -1.619  0.00  0.00     0.171 HD
BRANCH   6   9
ATOM      9  C   UNL d   1      29.994 -14.771  -3.812  0.00  0.00     0.035 A 
ATOM     10  C   UNL d   1      30.678 -13.911  -4.693  0.00  0.00     0.020 A 
ATOM     11  C   UNL d   1      30.109 -13.495  -5.909  0.00  0.00     0.040 A 
ATOM     12  C   UNL d   1      28.861 -13.984  -6.339  0.00  0.00     0.101 A 
ATOM     13  C   UNL d   1      28.193 -14.879  -5.466  0.00  0.00     0.102 A 
ATOM     14  C   UNL d   1      28.765 -15.251  -4.223  0.00  0.00     0.056 A 
BRANCH  12  15
ATOM     15  O   UNL d   1      28.623 -13.729  -7.673  0.00  0.00    -0.353 OA
ATOM     16  C   UNL d   1      28.159 -12.471  -8.163  0.00  0.00     0.210 C 
ENDBRANCH  12  15
BRANCH  13  17
ATOM     17  O   UNL d   1      27.014 -15.573  -5.591  0.00  0.00    -0.353 OA
ATOM     18  C   UNL d   1      25.985 -15.147  -4.753  0.00  0.00     0.210 C 
ENDBRANCH  13  17
ENDBRANCH   6   9
ENDBRANCH   3   5
ENDBRANCH   1   3
BRANCH   1  19
ATOM     19  C   UNL d   1      29.200 -15.799   0.283  0.00  0.00     0.034 A 
ATOM     20  C   UNL d   1      29.115 -16.993  -0.443  0.00  0.00     0.032 A 
ATOM     21  C   UNL d   1      27.843 -17.517  -0.826  0.00  0.00     0.031 A 
ATOM     22  C   UNL d   1      26.627 -16.898  -0.482  0.00  0.00     0.030 A 
ATOM     23  C   UNL d   1      26.737 -15.697   0.212  0.00  0.00     0.031 A 
ATOM     24  C   UNL d   1      27.988 -15.159   0.564  0.00  0.00     0.032 A 
BRANCH  22  25
ATOM     25  N   UNL d   1      25.401 -17.443  -0.806  0.00  0.00    -0.378 N 
ATOM     26  C   UNL d   1      24.946 -18.716  -0.225  0.00  0.00     0.143 C 
ATOM     27  C   UNL d   1      23.628 -18.522   0.569  0.00  0.00     0.145 C 
ATOM     28  N   UNL d   1      22.596 -17.872  -0.254  0.00  0.00    -0.349 N 
ATOM     29  C   UNL d   1      21.328 -18.349  -0.542  0.00  0.00     0.215 C 
ATOM     30  C   UNL d   1      23.049 -16.581  -0.810  0.00  0.00     0.145 C 
ATOM     31  C   UNL d   1      20.861 -19.672   0.032  0.00  0.00     0.117 C 
ATOM     32  O   UNL d   1      20.549 -17.725  -1.271  0.00  0.00    -0.274 OA
ATOM     33  C   UNL d   1      24.378 -16.726  -1.592  0.00  0.00     0.143 C 
ENDBRANCH  22  25
ENDBRANCH   1  19
TORSDOF 7
ENDMDL
MODEL 9
REMARK VINA RESULT:    -6.732      5.292      8.700
REMARK INTER + INTRA:         -10.096
REMARK INTER:                  -8.820
REMARK INTRA:                  -1.276
REMARK CONF_INDEPENDENT:        2.088
REMARK UNBOUND:                -1.276
REMARK  7 active torsions:
REMARK  status: ('A' for Active; 'I' for Inactive)
REMARK    1  A    between atoms: O_2  and  C_3 
REMARK    2  A    between atoms: C_6  and  C_7 
REMARK       I    between atoms: C_7  and  N_9 
REMARK    3  A    between atoms: N_9  and  C_10 
REMARK    4  A    between atoms: C_10  and  N_12 
REMARK    5  A    between atoms: N_12  and  C_13 
REMARK    6  A    between atoms: C_16  and  N_17 
REMARK       I    between atoms: N_20  and  C_21 
REMARK    7  A    between atoms: C_29  and  O_30 
ROOT
ATOM      1  N   UNL d   1      29.768 -14.450   0.307  0.00  0.00    -0.333 N 
ATOM      2  H   UNL d   1      29.701 -13.590   0.838  0.00  0.00     0.168 HD
ENDROOT
BRANCH   1   3
ATOM      3  C   UNL d   1      31.016 -14.851  -0.247  0.00  0.00     0.179 C 
ATOM      4  S   UNL d   1      32.419 -15.002   0.691  0.00  0.00    -0.040 SA
BRANCH   3   5
ATOM      5  N   UNL d   1      30.990 -15.165  -1.634  0.00  0.00    -0.299 N 
ATOM      6  C   UNL d   1      30.649 -16.430  -2.179  0.00  0.00     0.257 C 
ATOM      7  O   UNL d   1      30.413 -17.438  -1.493  0.00  0.00    -0.267 OA
ATOM      8  H   UNL d   1      31.232 -14.428  -2.282  0.00  0.00     0.171 HD
BRANCH   6   9
ATOM      9  C   UNL d   1      30.597 -16.706  -3.645  0.00  0.00     0.035 A 
ATOM     10  C   UNL d   1      31.497 -17.642  -4.193  0.00  0.00     0.020 A 
ATOM     11  C   UNL d   1      31.574 -17.870  -5.578  0.00  0.00     0.040 A 
ATOM     12  C   UNL d   1      30.696 -17.231  -6.475  0.00  0.00     0.101 A 
ATOM     13  C   UNL d   1      29.768 -16.318  -5.914  0.00  0.00     0.102 A 
ATOM     14  C   UNL d   1      29.737 -16.069  -4.519  0.00  0.00     0.056 A 
BRANCH  12  15
ATOM     15  O   UNL d   1      30.700 -17.813  -7.724  0.00  0.00    -0.353 OA
ATOM     16  C   UNL d   1      31.106 -19.160  -7.964  0.00  0.00     0.210 C 
ENDBRANCH  12  15
BRANCH  13  17
ATOM     17  O   UNL d   1      28.755 -15.580  -6.477  0.00  0.00    -0.353 OA
ATOM     18  C   UNL d   1      28.019 -14.805  -5.582  0.00  0.00     0.210 C 
ENDBRANCH  13  17
ENDBRANCH   6   9
ENDBRANCH   3   5
ENDBRANCH   1   3
BRANCH   1  19
ATOM     19  C   UNL d   1      28.499 -15.068  -0.029  0.00  0.00     0.034 A 
ATOM     20  C   UNL d   1      27.553 -14.486  -0.882  0.00  0.00     0.032 A 
ATOM     21  C   UNL d   1      26.320 -15.153  -1.154  0.00  0.00     0.031 A 
ATOM     22  C   UNL d   1      26.000 -16.415  -0.620  0.00  0.00     0.030 A 
ATOM     23  C   UNL d   1      26.941 -16.959   0.248  0.00  0.00     0.031 A 
ATOM     24  C   UNL d   1      28.143 -16.293   0.546  0.00  0.00     0.032 A 
BRANCH  22  25
ATOM     25  N   UNL d   1      24.831 -17.078  -0.937  0.00  0.00    -0.378 N 
ATOM     26  C   UNL d   1      24.597 -18.470  -0.520  0.00  0.00     0.143 C 
ATOM     27  C   UNL d   1      23.339 -18.573   0.381  0.00  0.00     0.145 C 
ATOM     28  N   UNL d   1      22.164 -17.969  -0.266  0.00  0.00    -0.349 N 
ATOM     29  C   UNL d   1      20.949 -18.576  -0.534  0.00  0.00     0.215 C 
ATOM     30  C   UNL d   1      22.396 -16.564  -0.655  0.00  0.00     0.145 C 
ATOM     31  C   UNL d   1      20.709 -20.018  -0.131  0.00  0.00     0.117 C 
ATOM     32  O   UNL d   1      20.035 -17.974  -1.108  0.00  0.00    -0.274 OA
ATOM     33  C   UNL d   1      23.659 -16.412  -1.537  0.00  0.00     0.143 C 
ENDBRANCH  22  25
ENDBRANCH   1  19
TORSDOF 7
ENDMDL
