MODEL 1
REMARK VINA RESULT:    -6.042      0.000      0.000
REMARK INTER + INTRA:          -7.158
REMARK INTER:                  -7.235
REMARK INTRA:                   0.077
REMARK CONF_INDEPENDENT:        1.193
REMARK UNBOUND:                 0.077
REMARK  4 active torsions:
REMARK  status: ('A' for Active; 'I' for Inactive)
REMARK    1  A    between atoms: C_2  and  N_3 
REMARK       I    between atoms: N_3  and  C_4 
REMARK       I    between atoms: C_4  and  N_6 
REMARK    2  A    between atoms: N_6  and  C_8 
REMARK    3  A    between atoms: C_8  and  C_9 
REMARK    4  A    between atoms: C_12  and  O_13 
ROOT
ATOM      1  C   UNL d   1      23.419 -16.848  -1.278  0.00  0.00     0.165 C 
ENDROOT
BRANCH   1   2
ATOM      2  N   UNL d   1      22.787 -18.132  -0.879  0.00  0.00    -0.334 N 
ATOM      3  C   UNL d   1      21.399 -18.200  -0.918  0.00  0.00     0.318 C 
ATOM      4  N   UNL d   1      20.828 -19.393  -0.541  0.00  0.00    -0.343 N 
ATOM      5  O   UNL d   1      20.704 -17.244  -1.269  0.00  0.00    -0.247 OA
ATOM      6  H   UNL d   1      21.398 -20.167  -0.261  0.00  0.00     0.164 HD
ATOM      7  C   UNL d   1      23.674 -19.223  -0.485  0.00  0.00     0.154 C 
BRANCH   4   8
ATOM      8  C   UNL d   1      19.392 -19.614  -0.533  0.00  0.00     0.120 C 
ATOM      9  C   UNL d   1      18.998 -20.809   0.328  0.00  0.00     0.026 C 
ENDBRANCH   4   8
ENDBRANCH   1   2
BRANCH   1  10
ATOM     10  C   UNL d   1      24.918 -16.771  -1.014  0.00  0.00    -0.040 A 
ATOM     11  C   UNL d   1      25.440 -17.137   0.241  0.00  0.00     0.011 A 
ATOM     12  C   UNL d   1      26.817 -17.313   0.419  0.00  0.00     0.037 A 
ATOM     13  C   UNL d   1      27.678 -17.092  -0.650  0.00  0.00     0.065 A 
ATOM     14  C   UNL d   1      27.187 -16.670  -1.880  0.00  0.00     0.037 A 
ATOM     15  C   UNL d   1      25.811 -16.505  -2.062  0.00  0.00     0.011 A 
BRANCH  13  16
ATOM     16  O   UNL d   1      29.023 -17.295  -0.549  0.00  0.00    -0.361 OA
ATOM     17  H   UNL d   1      29.206 -17.862   0.217  0.00  0.00     0.217 HD
ENDBRANCH  13  16
ENDBRANCH   1  10
TORSDOF 4
ENDMDL
MODEL 2
REMARK VINA RESULT:    -6.011      1.428      1.868
REMARK INTER + INTRA:          -7.333
REMARK INTER:                  -7.205
REMARK INTRA:                  -0.128
REMARK CONF_INDEPENDENT:        1.193
REMARK UNBOUND:                -0.128
REMARK  4 active torsions:
REMARK  status: ('A' for Active; 'I' for Inactive)
REMARK    1  A    between atoms: C_2  and  N_3 
REMARK       I    between atoms: N_3  and  C_4 
REMARK       I    between atoms: C_4  and  N_6 
REMARK    2  A    between atoms: N_6  and  C_8 
REMARK    3  A    between atoms: C_8  and  C_9 
REMARK    4  A    between atoms: C_12  and  O_13 
ROOT
ATOM      1  C   UNL d   1      23.116 -18.505  -1.646  0.00  0.00     0.165 C 
ENDROOT
BRANCH   1   2
ATOM      2  N   UNL d   1      22.084 -18.683  -0.592  0.00  0.00    -0.334 N 
ATOM      3  C   UNL d   1      20.896 -19.305  -0.961  0.00  0.00     0.318 C 
ATOM      4  N   UNL d   1      19.948 -19.460   0.023  0.00  0.00    -0.343 N 
ATOM      5  O   UNL d   1      20.691 -19.700  -2.111  0.00  0.00    -0.247 OA
ATOM      6  H   UNL d   1      20.122 -19.140   0.956  0.00  0.00     0.164 HD
ATOM      7  C   UNL d   1      22.402 -18.200   0.748  0.00  0.00     0.154 C 
BRANCH   4   8
ATOM      8  C   UNL d   1      18.661 -20.091  -0.212  0.00  0.00     0.120 C 
ATOM      9  C   UNL d   1      18.375 -21.207   0.787  0.00  0.00     0.026 C 
ENDBRANCH   4   8
ENDBRANCH   1   2
BRANCH   1  10
ATOM     10  C   UNL d   1      24.426 -17.902  -1.152  0.00  0.00    -0.040 A 
ATOM     11  C   UNL d   1      24.788 -16.591  -1.513  0.00  0.00     0.011 A 
ATOM     12  C   UNL d   1      25.849 -15.939  -0.873  0.00  0.00     0.037 A 
ATOM     13  C   UNL d   1      26.570 -16.610   0.109  0.00  0.00     0.065 A 
ATOM     14  C   UNL d   1      26.268 -17.927   0.434  0.00  0.00     0.037 A 
ATOM     15  C   UNL d   1      25.202 -18.575  -0.196  0.00  0.00     0.011 A 
BRANCH  13  16
ATOM     16  O   UNL d   1      27.582 -16.011   0.800  0.00  0.00    -0.361 OA
ATOM     17  H   UNL d   1      28.039 -16.675   1.339  0.00  0.00     0.217 HD
ENDBRANCH  13  16
ENDBRANCH   1  10
TORSDOF 4
ENDMDL
MODEL 3
REMARK VINA RESULT:    -5.912      2.706      5.989
REMARK INTER + INTRA:          -7.416
REMARK INTER:                  -7.106
REMARK INTRA:                  -0.310
REMARK CONF_INDEPENDENT:        1.193
REMARK UNBOUND:                -0.310
REMARK  4 active torsions:
REMARK  status: ('A' for Active; 'I' for Inactive)
REMARK    1  A    between atoms: C_2  and  N_3 
REMARK       I    between atoms: N_3  and  C_4 
REMARK       I    between atoms: C_4  and  N_6 
REMARK    2  A    between atoms: N_6  and  C_8 
REMARK    3  A    between atoms: C_8  and  C_9 
REMARK    4  A    between atoms: C_12  and  O_13 
ROOT
ATOM      1  C   UNL d   1      25.844 -17.703  -0.450  0.00  0.00     0.165 C 
ENDROOT
BRANCH   1   2
ATOM      2  N   UNL d   1      26.384 -16.416  -0.959  0.00  0.00    -0.334 N 
ATOM      3  C   UNL d   1      25.994 -16.020  -2.234  0.00  0.00     0.318 C 
ATOM      4  N   UNL d   1      26.505 -14.829  -2.694  0.00  0.00    -0.343 N 
ATOM      5  O   UNL d   1      25.232 -16.696  -2.928  0.00  0.00    -0.247 OA
ATOM      6  H   UNL d   1      27.121 -14.282  -2.124  0.00  0.00     0.164 HD
ATOM      7  C   UNL d   1      27.273 -15.665  -0.078  0.00  0.00     0.154 C 
BRANCH   4   8
ATOM      8  C   UNL d   1      26.188 -14.286  -4.004  0.00  0.00     0.120 C 
ATOM      9  C   UNL d   1      24.780 -13.707  -4.063  0.00  0.00     0.026 C 
ENDBRANCH   4   8
ENDBRANCH   1   2
BRANCH   1  10
ATOM     10  C   UNL d   1      24.322 -17.790  -0.439  0.00  0.00    -0.040 A 
ATOM     11  C   UNL d   1      23.541 -16.622  -0.519  0.00  0.00     0.011 A 
ATOM     12  C   UNL d   1      22.165 -16.696  -0.763  0.00  0.00     0.037 A 
ATOM     13  C   UNL d   1      21.561 -17.942  -0.895  0.00  0.00     0.065 A 
ATOM     14  C   UNL d   1      22.305 -19.108  -0.756  0.00  0.00     0.037 A 
ATOM     15  C   UNL d   1      23.681 -19.035  -0.525  0.00  0.00     0.011 A 
BRANCH  13  16
ATOM     16  O   UNL d   1      20.234 -18.076  -1.181  0.00  0.00    -0.361 OA
ATOM     17  H   UNL d   1      19.986 -17.430  -1.861  0.00  0.00     0.217 HD
ENDBRANCH  13  16
ENDBRANCH   1  10
TORSDOF 4
ENDMDL
MODEL 4
REMARK VINA RESULT:    -5.579      2.756      6.388
REMARK INTER + INTRA:          -7.106
REMARK INTER:                  -6.772
REMARK INTRA:                  -0.334
REMARK CONF_INDEPENDENT:        1.193
REMARK UNBOUND:                -0.334
REMARK  4 active torsions:
REMARK  status: ('A' for Active; 'I' for Inactive)
REMARK    1  A    between atoms: C_2  and  N_3 
REMARK       I    between atoms: N_3  and  C_4 
REMARK       I    between atoms: C_4  and  N_6 
REMARK    2  A    between atoms: N_6  and  C_8 
REMARK    3  A    between atoms: C_8  and  C_9 
REMARK    4  A    between atoms: C_12  and  O_13 
ROOT
ATOM      1  C   UNL d   1      25.884 -17.087  -1.243  0.00  0.00     0.165 C 
ENDROOT
BRANCH   1   2
ATOM      2  N   UNL d   1      26.736 -16.950  -0.034  0.00  0.00    -0.334 N 
ATOM      3  C   UNL d   1      27.015 -15.661   0.407  0.00  0.00     0.318 C 
ATOM      4  N   UNL d   1      27.809 -15.550   1.525  0.00  0.00    -0.343 N 
ATOM      5  O   UNL d   1      26.582 -14.661  -0.169  0.00  0.00    -0.247 OA
ATOM      6  H   UNL d   1      28.155 -16.366   1.990  0.00  0.00     0.164 HD
ATOM      7  C   UNL d   1      27.204 -18.178   0.600  0.00  0.00     0.154 C 
BRANCH   4   8
ATOM      8  C   UNL d   1      28.185 -14.271   2.103  0.00  0.00     0.120 C 
ATOM      9  C   UNL d   1      27.595 -14.070   3.493  0.00  0.00     0.026 C 
ENDBRANCH   4   8
ENDBRANCH   1   2
BRANCH   1  10
ATOM     10  C   UNL d   1      24.412 -17.358  -0.953  0.00  0.00    -0.040 A 
ATOM     11  C   UNL d   1      23.488 -16.298  -0.907  0.00  0.00     0.011 A 
ATOM     12  C   UNL d   1      22.111 -16.550  -0.894  0.00  0.00     0.037 A 
ATOM     13  C   UNL d   1      21.656 -17.864  -0.893  0.00  0.00     0.065 A 
ATOM     14  C   UNL d   1      22.555 -18.925  -0.874  0.00  0.00     0.037 A 
ATOM     15  C   UNL d   1      23.930 -18.675  -0.899  0.00  0.00     0.011 A 
BRANCH  13  16
ATOM     16  O   UNL d   1      20.328 -18.170  -0.929  0.00  0.00    -0.361 OA
ATOM     17  H   UNL d   1      19.843 -17.444  -1.353  0.00  0.00     0.217 HD
ENDBRANCH  13  16
ENDBRANCH   1  10
TORSDOF 4
ENDMDL
MODEL 5
REMARK VINA RESULT:    -5.457      3.156      6.326
REMARK INTER + INTRA:          -6.985
REMARK INTER:                  -6.650
REMARK INTRA:                  -0.335
REMARK CONF_INDEPENDENT:        1.193
REMARK UNBOUND:                -0.335
REMARK  4 active torsions:
REMARK  status: ('A' for Active; 'I' for Inactive)
REMARK    1  A    between atoms: C_2  and  N_3 
REMARK       I    between atoms: N_3  and  C_4 
REMARK       I    between atoms: C_4  and  N_6 
REMARK    2  A    between atoms: N_6  and  C_8 
REMARK    3  A    between atoms: C_8  and  C_9 
REMARK    4  A    between atoms: C_12  and  O_13 
ROOT
ATOM      1  C   UNL d   1      25.517 -15.528  -0.769  0.00  0.00     0.165 C 
ENDROOT
BRANCH   1   2
ATOM      2  N   UNL d   1      26.574 -15.661  -1.804  0.00  0.00    -0.334 N 
ATOM      3  C   UNL d   1      26.254 -15.264  -3.098  0.00  0.00     0.318 C 
ATOM      4  N   UNL d   1      27.240 -15.397  -4.047  0.00  0.00    -0.343 N 
ATOM      5  O   UNL d   1      25.142 -14.817  -3.392  0.00  0.00    -0.247 OA
ATOM      6  H   UNL d   1      28.141 -15.757  -3.801  0.00  0.00     0.164 HD
ATOM      7  C   UNL d   1      27.867 -16.189  -1.381  0.00  0.00     0.154 C 
BRANCH   4   8
ATOM      8  C   UNL d   1      27.053 -15.023  -5.439  0.00  0.00     0.120 C 
ATOM      9  C   UNL d   1      28.378 -14.844  -6.171  0.00  0.00     0.026 C 
ENDBRANCH   4   8
ENDBRANCH   1   2
BRANCH   1  10
ATOM     10  C   UNL d   1      24.483 -16.647  -0.775  0.00  0.00    -0.040 A 
ATOM     11  C   UNL d   1      24.864 -17.971  -0.489  0.00  0.00     0.011 A 
ATOM     12  C   UNL d   1      23.900 -18.957  -0.243  0.00  0.00     0.037 A 
ATOM     13  C   UNL d   1      22.551 -18.626  -0.315  0.00  0.00     0.065 A 
ATOM     14  C   UNL d   1      22.155 -17.338  -0.658  0.00  0.00     0.037 A 
ATOM     15  C   UNL d   1      23.116 -16.351  -0.892  0.00  0.00     0.011 A 
BRANCH  13  16
ATOM     16  O   UNL d   1      21.569 -19.531  -0.039  0.00  0.00    -0.361 OA
ATOM     17  H   UNL d   1      21.901 -20.178   0.603  0.00  0.00     0.217 HD
ENDBRANCH  13  16
ENDBRANCH   1  10
TORSDOF 4
ENDMDL
MODEL 6
REMARK VINA RESULT:    -5.428      2.297      3.143
REMARK INTER + INTRA:          -6.986
REMARK INTER:                  -6.621
REMARK INTRA:                  -0.365
REMARK CONF_INDEPENDENT:        1.193
REMARK UNBOUND:                -0.365
REMARK  4 active torsions:
REMARK  status: ('A' for Active; 'I' for Inactive)
REMARK    1  A    between atoms: C_2  and  N_3 
REMARK       I    between atoms: N_3  and  C_4 
REMARK       I    between atoms: C_4  and  N_6 
REMARK    2  A    between atoms: N_6  and  C_8 
REMARK    3  A    between atoms: C_8  and  C_9 
REMARK    4  A    between atoms: C_12  and  O_13 
ROOT
ATOM      1  C   UNL d   1      25.522 -15.742  -0.419  0.00  0.00     0.165 C 
ENDROOT
BRANCH   1   2
ATOM      2  N   UNL d   1      24.867 -17.071  -0.308  0.00  0.00    -0.334 N 
ATOM      3  C   UNL d   1      23.509 -17.140  -0.600  0.00  0.00     0.318 C 
ATOM      4  N   UNL d   1      22.915 -18.375  -0.489  0.00  0.00    -0.343 N 
ATOM      5  O   UNL d   1      22.858 -16.148  -0.939  0.00  0.00    -0.247 OA
ATOM      6  H   UNL d   1      23.450 -19.177  -0.217  0.00  0.00     0.164 HD
ATOM      7  C   UNL d   1      25.702 -18.200   0.088  0.00  0.00     0.154 C 
BRANCH   4   8
ATOM      8  C   UNL d   1      21.506 -18.602  -0.762  0.00  0.00     0.120 C 
ATOM      9  C   UNL d   1      20.900 -19.646   0.169  0.00  0.00     0.026 C 
ENDBRANCH   4   8
ENDBRANCH   1   2
BRANCH   1  10
ATOM     10  C   UNL d   1      26.031 -15.402  -1.814  0.00  0.00    -0.040 A 
ATOM     11  C   UNL d   1      27.374 -15.642  -2.160  0.00  0.00     0.011 A 
ATOM     12  C   UNL d   1      27.793 -15.575  -3.494  0.00  0.00     0.037 A 
ATOM     13  C   UNL d   1      26.875 -15.234  -4.482  0.00  0.00     0.065 A 
ATOM     14  C   UNL d   1      25.559 -14.931  -4.152  0.00  0.00     0.037 A 
ATOM     15  C   UNL d   1      25.137 -15.010  -2.822  0.00  0.00     0.011 A 
BRANCH  13  16
ATOM     16  O   UNL d   1      27.213 -15.200  -5.803  0.00  0.00    -0.361 OA
ATOM     17  H   UNL d   1      27.560 -14.320  -6.022  0.00  0.00     0.217 HD
ENDBRANCH  13  16
ENDBRANCH   1  10
TORSDOF 4
ENDMDL
MODEL 7
REMARK VINA RESULT:    -5.302      3.443      6.483
REMARK INTER + INTRA:          -6.836
REMARK INTER:                  -6.495
REMARK INTRA:                  -0.341
REMARK CONF_INDEPENDENT:        1.193
REMARK UNBOUND:                -0.341
REMARK  4 active torsions:
REMARK  status: ('A' for Active; 'I' for Inactive)
REMARK    1  A    between atoms: C_2  and  N_3 
REMARK       I    between atoms: N_3  and  C_4 
REMARK       I    between atoms: C_4  and  N_6 
REMARK    2  A    between atoms: N_6  and  C_8 
REMARK    3  A    between atoms: C_8  and  C_9 
REMARK    4  A    between atoms: C_12  and  O_13 
ROOT
ATOM      1  C   UNL d   1      26.107 -16.421  -1.966  0.00  0.00     0.165 C 
ENDROOT
BRANCH   1   2
ATOM      2  N   UNL d   1      26.154 -14.940  -2.067  0.00  0.00    -0.334 N 
ATOM      3  C   UNL d   1      25.810 -14.372  -3.289  0.00  0.00     0.318 C 
ATOM      4  N   UNL d   1      25.862 -13.001  -3.369  0.00  0.00    -0.343 N 
ATOM      5  O   UNL d   1      25.476 -15.056  -4.260  0.00  0.00    -0.247 OA
ATOM      6  H   UNL d   1      26.130 -12.451  -2.576  0.00  0.00     0.164 HD
ATOM      7  C   UNL d   1      26.548 -14.197  -0.874  0.00  0.00     0.154 C 
BRANCH   4   8
ATOM      8  C   UNL d   1      25.530 -12.267  -4.579  0.00  0.00     0.120 C 
ATOM      9  C   UNL d   1      26.734 -12.094  -5.497  0.00  0.00     0.026 C 
ENDBRANCH   4   8
ENDBRANCH   1   2
BRANCH   1  10
ATOM     10  C   UNL d   1      24.915 -16.964  -1.187  0.00  0.00    -0.040 A 
ATOM     11  C   UNL d   1      23.664 -16.325  -1.261  0.00  0.00     0.011 A 
ATOM     12  C   UNL d   1      22.512 -16.945  -0.762  0.00  0.00     0.037 A 
ATOM     13  C   UNL d   1      22.615 -18.193  -0.158  0.00  0.00     0.065 A 
ATOM     14  C   UNL d   1      23.852 -18.813  -0.019  0.00  0.00     0.037 A 
ATOM     15  C   UNL d   1      25.001 -18.200  -0.527  0.00  0.00     0.011 A 
BRANCH  13  16
ATOM     16  O   UNL d   1      21.523 -18.867   0.302  0.00  0.00    -0.361 OA
ATOM     17  H   UNL d   1      21.813 -19.602   0.865  0.00  0.00     0.217 HD
ENDBRANCH  13  16
ENDBRANCH   1  10
TORSDOF 4
ENDMDL
MODEL 8
REMARK VINA RESULT:    -5.288      2.172      6.836
REMARK INTER + INTRA:          -6.673
REMARK INTER:                  -6.481
REMARK INTRA:                  -0.192
REMARK CONF_INDEPENDENT:        1.193
REMARK UNBOUND:                -0.192
REMARK  4 active torsions:
REMARK  status: ('A' for Active; 'I' for Inactive)
REMARK    1  A    between atoms: C_2  and  N_3 
REMARK       I    between atoms: N_3  and  C_4 
REMARK       I    between atoms: C_4  and  N_6 
REMARK    2  A    between atoms: N_6  and  C_8 
REMARK    3  A    between atoms: C_8  and  C_9 
REMARK    4  A    between atoms: C_12  and  O_13 
ROOT
ATOM      1  C   UNL d   1      22.832 -18.528   0.441  0.00  0.00     0.165 C 
ENDROOT
BRANCH   1   2
ATOM      2  N   UNL d   1      23.221 -17.346  -0.371  0.00  0.00    -0.334 N 
ATOM      3  C   UNL d   1      24.531 -17.294  -0.836  0.00  0.00     0.318 C 
ATOM      4  N   UNL d   1      24.878 -16.193  -1.582  0.00  0.00    -0.343 N 
ATOM      5  O   UNL d   1      25.350 -18.184  -0.593  0.00  0.00    -0.247 OA
ATOM      6  H   UNL d   1      24.208 -15.475  -1.778  0.00  0.00     0.164 HD
ATOM      7  C   UNL d   1      22.196 -16.338  -0.625  0.00  0.00     0.154 C 
BRANCH   4   8
ATOM      8  C   UNL d   1      26.208 -16.000  -2.135  0.00  0.00     0.120 C 
ATOM      9  C   UNL d   1      26.173 -15.320  -3.498  0.00  0.00     0.026 C 
ENDBRANCH   4   8
ENDBRANCH   1   2
BRANCH   1  10
ATOM     10  C   UNL d   1      21.376 -18.950   0.285  0.00  0.00    -0.040 A 
ATOM     11  C   UNL d   1      20.804 -19.076  -0.994  0.00  0.00     0.011 A 
ATOM     12  C   UNL d   1      19.561 -19.698  -1.164  0.00  0.00     0.037 A 
ATOM     13  C   UNL d   1      18.874 -20.168  -0.050  0.00  0.00     0.065 A 
ATOM     14  C   UNL d   1      19.395 -19.996   1.228  0.00  0.00     0.037 A 
ATOM     15  C   UNL d   1      20.640 -19.385   1.398  0.00  0.00     0.011 A 
BRANCH  13  16
ATOM     16  O   UNL d   1      17.684 -20.825  -0.158  0.00  0.00    -0.361 OA
ATOM     17  H   UNL d   1      17.850 -21.754  -0.385  0.00  0.00     0.217 HD
ENDBRANCH  13  16
ENDBRANCH   1  10
TORSDOF 4
ENDMDL
MODEL 9
REMARK VINA RESULT:    -5.162      3.604      6.546
REMARK INTER + INTRA:          -6.618
REMARK INTER:                  -6.355
REMARK INTRA:                  -0.263
REMARK CONF_INDEPENDENT:        1.193
REMARK UNBOUND:                -0.263
REMARK  4 active torsions:
REMARK  status: ('A' for Active; 'I' for Inactive)
REMARK    1  A    between atoms: C_2  and  N_3 
REMARK       I    between atoms: N_3  and  C_4 
REMARK       I    between atoms: C_4  and  N_6 
REMARK    2  A    between atoms: N_6  and  C_8 
REMARK    3  A    between atoms: C_8  and  C_9 
REMARK    4  A    between atoms: C_12  and  O_13 
ROOT
ATOM      1  C   UNL d   1      26.414 -15.108  -0.677  0.00  0.00     0.165 C 
ENDROOT
BRANCH   1   2
ATOM      2  N   UNL d   1      27.535 -15.231   0.290  0.00  0.00    -0.334 N 
ATOM      3  C   UNL d   1      27.469 -14.461   1.446  0.00  0.00     0.318 C 
ATOM      4  N   UNL d   1      28.516 -14.582   2.329  0.00  0.00    -0.343 N 
ATOM      5  O   UNL d   1      26.525 -13.701   1.677  0.00  0.00    -0.247 OA
ATOM      6  H   UNL d   1      29.278 -15.202   2.139  0.00  0.00     0.164 HD
ATOM      7  C   UNL d   1      28.613 -16.156  -0.045  0.00  0.00     0.154 C 
BRANCH   4   8
ATOM      8  C   UNL d   1      28.585 -13.842   3.579  0.00  0.00     0.120 C 
ATOM      9  C   UNL d   1      28.061 -14.652   4.758  0.00  0.00     0.026 C 
ENDBRANCH   4   8
ENDBRANCH   1   2
BRANCH   1  10
ATOM     10  C   UNL d   1      25.506 -16.329  -0.750  0.00  0.00    -0.040 A 
ATOM     11  C   UNL d   1      25.828 -17.500  -0.040  0.00  0.00     0.011 A 
ATOM     12  C   UNL d   1      24.890 -18.530   0.107  0.00  0.00     0.037 A 
ATOM     13  C   UNL d   1      23.638 -18.403  -0.486  0.00  0.00     0.065 A 
ATOM     14  C   UNL d   1      23.324 -17.281  -1.245  0.00  0.00     0.037 A 
ATOM     15  C   UNL d   1      24.255 -16.248  -1.381  0.00  0.00     0.011 A 
BRANCH  13  16
ATOM     16  O   UNL d   1      22.668 -19.350  -0.337  0.00  0.00    -0.361 OA
ATOM     17  H   UNL d   1      22.562 -19.555   0.605  0.00  0.00     0.217 HD
ENDBRANCH  13  16
ENDBRANCH   1  10
TORSDOF 4
ENDMDL
