MODEL 1
REMARK VINA RESULT:    -7.109      0.000      0.000
REMARK INTER + INTRA:          -9.259
REMARK INTER:                  -8.303
REMARK INTRA:                  -0.956
REMARK CONF_INDEPENDENT:        1.193
REMARK UNBOUND:                -0.956
REMARK  4 active torsions:
REMARK  status: ('A' for Active; 'I' for Inactive)
REMARK    1  A    between atoms: C_3  and  C_16 
REMARK    2  A    between atoms: C_3  and  N_4 
REMARK       I    between atoms: N_4  and  C_5 
REMARK    3  A    between atoms: C_5  and  C_7 
REMARK       I    between atoms: C_7  and  N_9 
REMARK    4  A    between atoms: N_9  and  C_10 
ROOT
ATOM      1  N   UNL d   1      25.893 -18.575   0.914  0.00  0.00    -0.195 NA
ATOM      2  C   UNL d   1      26.660 -17.821   0.456  0.00  0.00     0.089 C 
ATOM      3  C   UNL d   1      27.622 -16.875  -0.170  0.00  0.00     0.229 C 
ENDROOT
BRANCH   3   4
ATOM      4  C   UNL d   1      27.050 -16.317  -1.481  0.00  0.00     0.017 C 
ATOM      5  C   UNL d   1      27.887 -15.914  -2.543  0.00  0.00     0.016 C 
ATOM      6  C   UNL d   1      27.355 -15.200  -3.628  0.00  0.00     0.043 C 
ATOM      7  C   UNL d   1      25.995 -14.911  -3.677  0.00  0.00     0.119 C 
ATOM      8  F   UNL d   1      25.470 -14.314  -4.752  0.00  0.00    -0.206 F 
ATOM      9  C   UNL d   1      25.155 -15.313  -2.667  0.00  0.00     0.085 C 
ATOM     10  C   UNL d   1      25.676 -16.080  -1.645  0.00  0.00     0.128 C 
ATOM     11  F   UNL d   1      24.763 -16.661  -0.859  0.00  0.00    -0.205 F 
ENDBRANCH   3   4
BRANCH   3  12
ATOM     12  N   UNL d   1      28.073 -15.855   0.791  0.00  0.00    -0.332 N 
ATOM     13  C   UNL d   1      27.324 -14.725   1.129  0.00  0.00     0.311 C 
ATOM     14  O   UNL d   1      26.306 -14.355   0.558  0.00  0.00    -0.262 OA
ATOM     15  H   UNL d   1      28.895 -16.048   1.358  0.00  0.00     0.164 HD
BRANCH  13  16
ATOM     16  C   UNL d   1      27.785 -14.003   2.422  0.00  0.00     0.314 C 
ATOM     17  O   UNL d   1      27.801 -12.776   2.409  0.00  0.00    -0.262 OA
ATOM     18  N   UNL d   1      28.212 -14.825   3.467  0.00  0.00    -0.319 N 
ATOM     19  H   UNL d   1      28.397 -15.805   3.268  0.00  0.00     0.169 HD
BRANCH  18  20
ATOM     20  C   UNL d   1      28.540 -14.315   4.746  0.00  0.00     0.035 A 
ATOM     21  C   UNL d   1      27.763 -13.321   5.350  0.00  0.00     0.029 A 
ATOM     22  C   UNL d   1      28.126 -12.812   6.608  0.00  0.00     0.002 A 
ATOM     23  C   UNL d   1      29.236 -13.321   7.282  0.00  0.00     0.000 A 
ATOM     24  C   UNL d   1      30.030 -14.283   6.669  0.00  0.00     0.002 A 
ATOM     25  C   UNL d   1      29.683 -14.774   5.408  0.00  0.00     0.029 A 
ENDBRANCH  18  20
ENDBRANCH  13  16
ENDBRANCH   3  12
TORSDOF 4
ENDMDL
MODEL 2
REMARK VINA RESULT:    -7.041      4.596      8.345
REMARK INTER + INTRA:          -9.474
REMARK INTER:                  -8.234
REMARK INTRA:                  -1.240
REMARK CONF_INDEPENDENT:        1.193
REMARK UNBOUND:                -1.240
REMARK  4 active torsions:
REMARK  status: ('A' for Active; 'I' for Inactive)
REMARK    1  A    between atoms: C_3  and  C_16 
REMARK    2  A    between atoms: C_3  and  N_4 
REMARK       I    between atoms: N_4  and  C_5 
REMARK    3  A    between atoms: C_5  and  C_7 
REMARK       I    between atoms: C_7  and  N_9 
REMARK    4  A    between atoms: N_9  and  C_10 
ROOT
ATOM      1  N   UNL d   1      26.286 -13.869   0.238  0.00  0.00    -0.195 NA
ATOM      2  C   UNL d   1      26.283 -14.852  -0.394  0.00  0.00     0.089 C 
ATOM      3  C   UNL d   1      26.253 -16.124  -1.164  0.00  0.00     0.229 C 
ENDROOT
BRANCH   3   4
ATOM      4  C   UNL d   1      24.927 -16.862  -0.931  0.00  0.00     0.017 C 
ATOM      5  C   UNL d   1      23.686 -16.284  -1.272  0.00  0.00     0.016 C 
ATOM      6  C   UNL d   1      22.490 -16.876  -0.841  0.00  0.00     0.043 C 
ATOM      7  C   UNL d   1      22.519 -18.053  -0.099  0.00  0.00     0.119 C 
ATOM      8  F   UNL d   1      21.380 -18.671   0.232  0.00  0.00    -0.206 F 
ATOM      9  C   UNL d   1      23.713 -18.649   0.226  0.00  0.00     0.085 C 
ATOM     10  C   UNL d   1      24.877 -18.100  -0.269  0.00  0.00     0.128 C 
ATOM     11  F   UNL d   1      25.959 -18.877  -0.148  0.00  0.00    -0.205 F 
ENDBRANCH   3   4
BRANCH   3  12
ATOM     12  N   UNL d   1      26.595 -15.901  -2.579  0.00  0.00    -0.332 N 
ATOM     13  C   UNL d   1      25.899 -15.025  -3.416  0.00  0.00     0.311 C 
ATOM     14  O   UNL d   1      24.839 -14.476  -3.139  0.00  0.00    -0.262 OA
ATOM     15  H   UNL d   1      27.470 -16.279  -2.935  0.00  0.00     0.164 HD
BRANCH  13  16
ATOM     16  C   UNL d   1      26.643 -14.644  -4.722  0.00  0.00     0.314 C 
ATOM     17  O   UNL d   1      27.045 -15.561  -5.431  0.00  0.00    -0.262 OA
ATOM     18  N   UNL d   1      26.854 -13.279  -4.934  0.00  0.00    -0.319 N 
ATOM     19  H   UNL d   1      26.707 -12.640  -4.158  0.00  0.00     0.169 HD
BRANCH  18  20
ATOM     20  C   UNL d   1      27.405 -12.777  -6.137  0.00  0.00     0.035 A 
ATOM     21  C   UNL d   1      28.394 -13.483  -6.831  0.00  0.00     0.029 A 
ATOM     22  C   UNL d   1      28.944 -12.949  -8.008  0.00  0.00     0.002 A 
ATOM     23  C   UNL d   1      28.481 -11.736  -8.517  0.00  0.00     0.000 A 
ATOM     24  C   UNL d   1      27.523 -11.016  -7.811  0.00  0.00     0.002 A 
ATOM     25  C   UNL d   1      26.992 -11.535  -6.628  0.00  0.00     0.029 A 
ENDBRANCH  18  20
ENDBRANCH  13  16
ENDBRANCH   3  12
TORSDOF 4
ENDMDL
MODEL 3
REMARK VINA RESULT:    -6.986      4.677      7.986
REMARK INTER + INTRA:          -9.229
REMARK INTER:                  -8.179
REMARK INTRA:                  -1.050
REMARK CONF_INDEPENDENT:        1.193
REMARK UNBOUND:                -1.050
REMARK  4 active torsions:
REMARK  status: ('A' for Active; 'I' for Inactive)
REMARK    1  A    between atoms: C_3  and  C_16 
REMARK    2  A    between atoms: C_3  and  N_4 
REMARK       I    between atoms: N_4  and  C_5 
REMARK    3  A    between atoms: C_5  and  C_7 
REMARK       I    between atoms: C_7  and  N_9 
REMARK    4  A    between atoms: N_9  and  C_10 
ROOT
ATOM      1  N   UNL d   1      26.280 -13.743  -0.084  0.00  0.00    -0.195 NA
ATOM      2  C   UNL d   1      26.331 -14.825  -0.525  0.00  0.00     0.089 C 
ATOM      3  C   UNL d   1      26.364 -16.215  -1.053  0.00  0.00     0.229 C 
ENDROOT
BRANCH   3   4
ATOM      4  C   UNL d   1      25.000 -16.893  -0.866  0.00  0.00     0.017 C 
ATOM      5  C   UNL d   1      23.797 -16.252  -1.232  0.00  0.00     0.016 C 
ATOM      6  C   UNL d   1      22.562 -16.794  -0.842  0.00  0.00     0.043 C 
ATOM      7  C   UNL d   1      22.516 -17.981  -0.118  0.00  0.00     0.119 C 
ATOM      8  F   UNL d   1      21.341 -18.549   0.173  0.00  0.00    -0.206 F 
ATOM      9  C   UNL d   1      23.672 -18.637   0.230  0.00  0.00     0.085 C 
ATOM     10  C   UNL d   1      24.874 -18.136  -0.225  0.00  0.00     0.128 C 
ATOM     11  F   UNL d   1      25.915 -18.965  -0.086  0.00  0.00    -0.205 F 
ENDBRANCH   3   4
BRANCH   3  12
ATOM     12  N   UNL d   1      26.890 -16.253  -2.428  0.00  0.00    -0.332 N 
ATOM     13  C   UNL d   1      26.304 -15.575  -3.500  0.00  0.00     0.311 C 
ATOM     14  O   UNL d   1      25.212 -15.021  -3.474  0.00  0.00    -0.262 OA
ATOM     15  H   UNL d   1      27.807 -16.662  -2.588  0.00  0.00     0.164 HD
BRANCH  13  16
ATOM     16  C   UNL d   1      27.213 -15.424  -4.748  0.00  0.00     0.314 C 
ATOM     17  O   UNL d   1      26.664 -15.200  -5.823  0.00  0.00    -0.262 OA
ATOM     18  N   UNL d   1      28.579 -15.631  -4.543  0.00  0.00    -0.319 N 
ATOM     19  H   UNL d   1      28.878 -16.062  -3.672  0.00  0.00     0.169 HD
BRANCH  18  20
ATOM     20  C   UNL d   1      29.539 -15.404  -5.558  0.00  0.00     0.035 A 
ATOM     21  C   UNL d   1      29.587 -14.190  -6.251  0.00  0.00     0.029 A 
ATOM     22  C   UNL d   1      30.532 -14.000  -7.273  0.00  0.00     0.002 A 
ATOM     23  C   UNL d   1      31.455 -15.001  -7.575  0.00  0.00     0.000 A 
ATOM     24  C   UNL d   1      31.386 -16.222  -6.912  0.00  0.00     0.002 A 
ATOM     25  C   UNL d   1      30.432 -16.420  -5.912  0.00  0.00     0.029 A 
ENDBRANCH  18  20
ENDBRANCH  13  16
ENDBRANCH   3  12
TORSDOF 4
ENDMDL
MODEL 4
REMARK VINA RESULT:    -6.945      4.880      7.787
REMARK INTER + INTRA:          -9.613
REMARK INTER:                  -8.138
REMARK INTRA:                  -1.475
REMARK CONF_INDEPENDENT:        1.193
REMARK UNBOUND:                -1.475
REMARK  4 active torsions:
REMARK  status: ('A' for Active; 'I' for Inactive)
REMARK    1  A    between atoms: C_3  and  C_16 
REMARK    2  A    between atoms: C_3  and  N_4 
REMARK       I    between atoms: N_4  and  C_5 
REMARK    3  A    between atoms: C_5  and  C_7 
REMARK       I    between atoms: C_7  and  N_9 
REMARK    4  A    between atoms: N_9  and  C_10 
ROOT
ATOM      1  N   UNL d   1      25.406 -15.436  -3.841  0.00  0.00    -0.195 NA
ATOM      2  C   UNL d   1      25.582 -15.826  -2.754  0.00  0.00     0.089 C 
ATOM      3  C   UNL d   1      25.849 -16.301  -1.369  0.00  0.00     0.229 C 
ENDROOT
BRANCH   3   4
ATOM      4  C   UNL d   1      26.642 -15.247  -0.584  0.00  0.00     0.017 C 
ATOM      5  C   UNL d   1      26.721 -13.905  -1.014  0.00  0.00     0.016 C 
ATOM      6  C   UNL d   1      27.632 -13.024  -0.411  0.00  0.00     0.043 C 
ATOM      7  C   UNL d   1      28.441 -13.460   0.633  0.00  0.00     0.119 C 
ATOM      8  F   UNL d   1      29.241 -12.599   1.272  0.00  0.00    -0.206 F 
ATOM      9  C   UNL d   1      28.366 -14.754   1.086  0.00  0.00     0.085 C 
ATOM     10  C   UNL d   1      27.414 -15.589   0.538  0.00  0.00     0.128 C 
ATOM     11  F   UNL d   1      27.215 -16.729   1.209  0.00  0.00    -0.205 F 
ENDBRANCH   3   4
BRANCH   3  12
ATOM     12  N   UNL d   1      24.612 -16.758  -0.714  0.00  0.00    -0.332 N 
ATOM     13  C   UNL d   1      23.757 -17.721  -1.257  0.00  0.00     0.311 C 
ATOM     14  O   UNL d   1      23.829 -18.168  -2.395  0.00  0.00    -0.262 OA
ATOM     15  H   UNL d   1      24.440 -16.482   0.250  0.00  0.00     0.164 HD
BRANCH  13  16
ATOM     16  C   UNL d   1      22.748 -18.336  -0.252  0.00  0.00     0.314 C 
ATOM     17  O   UNL d   1      23.013 -18.242   0.943  0.00  0.00    -0.262 OA
ATOM     18  N   UNL d   1      21.659 -19.010  -0.809  0.00  0.00    -0.319 N 
ATOM     19  H   UNL d   1      21.687 -19.242  -1.798  0.00  0.00     0.169 HD
BRANCH  18  20
ATOM     20  C   UNL d   1      20.596 -19.511  -0.020  0.00  0.00     0.035 A 
ATOM     21  C   UNL d   1      19.457 -20.069  -0.611  0.00  0.00     0.029 A 
ATOM     22  C   UNL d   1      18.403 -20.534   0.193  0.00  0.00     0.002 A 
ATOM     23  C   UNL d   1      18.501 -20.482   1.584  0.00  0.00     0.000 A 
ATOM     24  C   UNL d   1      19.616 -19.896   2.172  0.00  0.00     0.002 A 
ATOM     25  C   UNL d   1      20.654 -19.413   1.373  0.00  0.00     0.029 A 
ENDBRANCH  18  20
ENDBRANCH  13  16
ENDBRANCH   3  12
TORSDOF 4
ENDMDL
MODEL 5
REMARK VINA RESULT:    -6.893      4.465      7.602
REMARK INTER + INTRA:          -9.189
REMARK INTER:                  -8.087
REMARK INTRA:                  -1.102
REMARK CONF_INDEPENDENT:        1.193
REMARK UNBOUND:                -1.102
REMARK  4 active torsions:
REMARK  status: ('A' for Active; 'I' for Inactive)
REMARK    1  A    between atoms: C_3  and  C_16 
REMARK    2  A    between atoms: C_3  and  N_4 
REMARK       I    between atoms: N_4  and  C_5 
REMARK    3  A    between atoms: C_5  and  C_7 
REMARK       I    between atoms: C_7  and  N_9 
REMARK    4  A    between atoms: N_9  and  C_10 
ROOT
ATOM      1  N   UNL d   1      27.552 -15.732   0.966  0.00  0.00    -0.195 NA
ATOM      2  C   UNL d   1      26.979 -15.912  -0.037  0.00  0.00     0.089 C 
ATOM      3  C   UNL d   1      26.232 -16.182  -1.295  0.00  0.00     0.229 C 
ENDROOT
BRANCH   3   4
ATOM      4  C   UNL d   1      24.918 -16.916  -0.993  0.00  0.00     0.017 C 
ATOM      5  C   UNL d   1      23.663 -16.333  -1.270  0.00  0.00     0.016 C 
ATOM      6  C   UNL d   1      22.488 -16.922  -0.777  0.00  0.00     0.043 C 
ATOM      7  C   UNL d   1      22.553 -18.100  -0.038  0.00  0.00     0.119 C 
ATOM      8  F   UNL d   1      21.430 -18.714   0.352  0.00  0.00    -0.206 F 
ATOM      9  C   UNL d   1      23.760 -18.699   0.224  0.00  0.00     0.085 C 
ATOM     10  C   UNL d   1      24.899 -18.153  -0.330  0.00  0.00     0.128 C 
ATOM     11  F   UNL d   1      25.984 -18.934  -0.265  0.00  0.00    -0.205 F 
ENDBRANCH   3   4
BRANCH   3  12
ATOM     12  N   UNL d   1      26.086 -14.959  -2.102  0.00  0.00    -0.332 N 
ATOM     13  C   UNL d   1      25.674 -14.956  -3.437  0.00  0.00     0.311 C 
ATOM     14  O   UNL d   1      25.554 -15.952  -4.142  0.00  0.00    -0.262 OA
ATOM     15  H   UNL d   1      26.134 -14.057  -1.634  0.00  0.00     0.164 HD
BRANCH  13  16
ATOM     16  C   UNL d   1      25.211 -13.576  -3.972  0.00  0.00     0.314 C 
ATOM     17  O   UNL d   1      24.026 -13.453  -4.267  0.00  0.00    -0.262 OA
ATOM     18  N   UNL d   1      26.210 -12.615  -4.140  0.00  0.00    -0.319 N 
ATOM     19  H   UNL d   1      27.180 -12.915  -4.109  0.00  0.00     0.169 HD
BRANCH  18  20
ATOM     20  C   UNL d   1      25.920 -11.277  -4.499  0.00  0.00     0.035 A 
ATOM     21  C   UNL d   1      25.829 -10.890  -5.840  0.00  0.00     0.029 A 
ATOM     22  C   UNL d   1      25.568  -9.550  -6.170  0.00  0.00     0.002 A 
ATOM     23  C   UNL d   1      25.355  -8.605  -5.166  0.00  0.00     0.000 A 
ATOM     24  C   UNL d   1      25.480  -8.979  -3.833  0.00  0.00     0.002 A 
ATOM     25  C   UNL d   1      25.763 -10.306  -3.504  0.00  0.00     0.029 A 
ENDBRANCH  18  20
ENDBRANCH  13  16
ENDBRANCH   3  12
TORSDOF 4
ENDMDL
MODEL 6
REMARK VINA RESULT:    -6.742      5.268      8.929
REMARK INTER + INTRA:          -9.437
REMARK INTER:                  -7.935
REMARK INTRA:                  -1.502
REMARK CONF_INDEPENDENT:        1.193
REMARK UNBOUND:                -1.502
REMARK  4 active torsions:
REMARK  status: ('A' for Active; 'I' for Inactive)
REMARK    1  A    between atoms: C_3  and  C_16 
REMARK    2  A    between atoms: C_3  and  N_4 
REMARK       I    between atoms: N_4  and  C_5 
REMARK    3  A    between atoms: C_5  and  C_7 
REMARK       I    between atoms: C_7  and  N_9 
REMARK    4  A    between atoms: N_9  and  C_10 
ROOT
ATOM      1  N   UNL d   1      24.746 -14.075  -4.484  0.00  0.00    -0.195 NA
ATOM      2  C   UNL d   1      25.533 -14.517  -3.742  0.00  0.00     0.089 C 
ATOM      3  C   UNL d   1      26.501 -15.084  -2.765  0.00  0.00     0.229 C 
ENDROOT
BRANCH   3   4
ATOM      4  C   UNL d   1      25.815 -16.130  -1.875  0.00  0.00     0.017 C 
ATOM      5  C   UNL d   1      24.413 -16.298  -1.874  0.00  0.00     0.016 C 
ATOM      6  C   UNL d   1      23.799 -17.092  -0.893  0.00  0.00     0.043 C 
ATOM      7  C   UNL d   1      24.571 -17.743   0.064  0.00  0.00     0.119 C 
ATOM      8  F   UNL d   1      23.998 -18.575   0.941  0.00  0.00    -0.206 F 
ATOM      9  C   UNL d   1      25.938 -17.615   0.070  0.00  0.00     0.085 C 
ATOM     10  C   UNL d   1      26.535 -16.895  -0.944  0.00  0.00     0.128 C 
ATOM     11  F   UNL d   1      27.862 -17.044  -1.031  0.00  0.00    -0.205 F 
ENDBRANCH   3   4
BRANCH   3  12
ATOM     12  N   UNL d   1      27.726 -15.550  -3.435  0.00  0.00    -0.332 N 
ATOM     13  C   UNL d   1      27.890 -15.575  -4.822  0.00  0.00     0.311 C 
ATOM     14  O   UNL d   1      27.000 -15.383  -5.642  0.00  0.00    -0.262 OA
ATOM     15  H   UNL d   1      28.556 -15.720  -2.871  0.00  0.00     0.164 HD
BRANCH  13  16
ATOM     16  C   UNL d   1      29.357 -15.720  -5.301  0.00  0.00     0.314 C 
ATOM     17  O   UNL d   1      30.222 -15.855  -4.441  0.00  0.00    -0.262 OA
ATOM     18  N   UNL d   1      29.569 -15.607  -6.677  0.00  0.00    -0.319 N 
ATOM     19  H   UNL d   1      28.818 -15.239  -7.254  0.00  0.00     0.169 HD
BRANCH  18  20
ATOM     20  C   UNL d   1      30.833 -15.842  -7.270  0.00  0.00     0.035 A 
ATOM     21  C   UNL d   1      31.314 -17.142  -7.458  0.00  0.00     0.029 A 
ATOM     22  C   UNL d   1      32.584 -17.347  -8.023  0.00  0.00     0.002 A 
ATOM     23  C   UNL d   1      33.355 -16.263  -8.440  0.00  0.00     0.000 A 
ATOM     24  C   UNL d   1      32.894 -14.969  -8.222  0.00  0.00     0.002 A 
ATOM     25  C   UNL d   1      31.642 -14.763  -7.638  0.00  0.00     0.029 A 
ENDBRANCH  18  20
ENDBRANCH  13  16
ENDBRANCH   3  12
TORSDOF 4
ENDMDL
MODEL 7
REMARK VINA RESULT:    -6.427      2.037      3.178
REMARK INTER + INTRA:          -9.357
REMARK INTER:                  -7.621
REMARK INTRA:                  -1.737
REMARK CONF_INDEPENDENT:        1.193
REMARK UNBOUND:                -1.737
REMARK  4 active torsions:
REMARK  status: ('A' for Active; 'I' for Inactive)
REMARK    1  A    between atoms: C_3  and  C_16 
REMARK    2  A    between atoms: C_3  and  N_4 
REMARK       I    between atoms: N_4  and  C_5 
REMARK    3  A    between atoms: C_5  and  C_7 
REMARK       I    between atoms: C_7  and  N_9 
REMARK    4  A    between atoms: N_9  and  C_10 
ROOT
ATOM      1  N   UNL d   1      28.587 -16.280  -2.068  0.00  0.00    -0.195 NA
ATOM      2  C   UNL d   1      27.627 -15.834  -1.574  0.00  0.00     0.089 C 
ATOM      3  C   UNL d   1      26.378 -15.294  -0.973  0.00  0.00     0.229 C 
ENDROOT
BRANCH   3   4
ATOM      4  C   UNL d   1      25.287 -16.374  -0.940  0.00  0.00     0.017 C 
ATOM      5  C   UNL d   1      23.946 -16.084  -1.270  0.00  0.00     0.016 C 
ATOM      6  C   UNL d   1      22.937 -17.024  -1.012  0.00  0.00     0.043 C 
ATOM      7  C   UNL d   1      23.257 -18.259  -0.457  0.00  0.00     0.119 C 
ATOM      8  F   UNL d   1      22.313 -19.193  -0.297  0.00  0.00    -0.206 F 
ATOM      9  C   UNL d   1      24.558 -18.575  -0.149  0.00  0.00     0.085 C 
ATOM     10  C   UNL d   1      25.548 -17.674  -0.478  0.00  0.00     0.128 C 
ATOM     11  F   UNL d   1      26.794 -18.158  -0.406  0.00  0.00    -0.205 F 
ENDBRANCH   3   4
BRANCH   3  12
ATOM     12  N   UNL d   1      26.644 -14.645   0.322  0.00  0.00    -0.332 N 
ATOM     13  C   UNL d   1      27.399 -15.230   1.341  0.00  0.00     0.311 C 
ATOM     14  O   UNL d   1      27.778 -16.395   1.359  0.00  0.00    -0.262 OA
ATOM     15  H   UNL d   1      26.403 -13.663   0.434  0.00  0.00     0.164 HD
BRANCH  13  16
ATOM     16  C   UNL d   1      27.883 -14.247   2.438  0.00  0.00     0.314 C 
ATOM     17  O   UNL d   1      27.891 -13.051   2.162  0.00  0.00    -0.262 OA
ATOM     18  N   UNL d   1      28.341 -14.826   3.624  0.00  0.00    -0.319 N 
ATOM     19  H   UNL d   1      28.528 -15.825   3.635  0.00  0.00     0.169 HD
BRANCH  18  20
ATOM     20  C   UNL d   1      28.694 -14.053   4.756  0.00  0.00     0.035 A 
ATOM     21  C   UNL d   1      29.866 -14.313   5.473  0.00  0.00     0.029 A 
ATOM     22  C   UNL d   1      30.180 -13.549   6.610  0.00  0.00     0.002 A 
ATOM     23  C   UNL d   1      29.350 -12.501   7.007  0.00  0.00     0.000 A 
ATOM     24  C   UNL d   1      28.167 -12.263   6.317  0.00  0.00     0.002 A 
ATOM     25  C   UNL d   1      27.842 -13.037   5.201  0.00  0.00     0.029 A 
ENDBRANCH  18  20
ENDBRANCH  13  16
ENDBRANCH   3  12
TORSDOF 4
ENDMDL
MODEL 8
REMARK VINA RESULT:    -6.405      5.460      8.101
REMARK INTER + INTRA:          -9.307
REMARK INTER:                  -7.598
REMARK INTRA:                  -1.709
REMARK CONF_INDEPENDENT:        1.193
REMARK UNBOUND:                -1.709
REMARK  4 active torsions:
REMARK  status: ('A' for Active; 'I' for Inactive)
REMARK    1  A    between atoms: C_3  and  C_16 
REMARK    2  A    between atoms: C_3  and  N_4 
REMARK       I    between atoms: N_4  and  C_5 
REMARK    3  A    between atoms: C_5  and  C_7 
REMARK       I    between atoms: C_7  and  N_9 
REMARK    4  A    between atoms: N_9  and  C_10 
ROOT
ATOM      1  N   UNL d   1      26.656 -11.110  -8.078  0.00  0.00    -0.195 NA
ATOM      2  C   UNL d   1      26.530 -11.105  -6.916  0.00  0.00     0.089 C 
ATOM      3  C   UNL d   1      26.374 -11.050  -5.438  0.00  0.00     0.229 C 
ENDROOT
BRANCH   3   4
ATOM      4  C   UNL d   1      25.654  -9.760  -5.021  0.00  0.00     0.017 C 
ATOM      5  C   UNL d   1      24.780  -9.082  -5.898  0.00  0.00     0.016 C 
ATOM      6  C   UNL d   1      24.320  -7.795  -5.578  0.00  0.00     0.043 C 
ATOM      7  C   UNL d   1      24.700  -7.192  -4.383  0.00  0.00     0.119 C 
ATOM      8  F   UNL d   1      24.188  -6.007  -4.033  0.00  0.00    -0.206 F 
ATOM      9  C   UNL d   1      25.530  -7.841  -3.502  0.00  0.00     0.085 C 
ATOM     10  C   UNL d   1      25.913  -9.134  -3.791  0.00  0.00     0.128 C 
ATOM     11  F   UNL d   1      26.482  -9.790  -2.773  0.00  0.00    -0.205 F 
ENDBRANCH   3   4
BRANCH   3  12
ATOM     12  N   UNL d   1      25.771 -12.289  -4.918  0.00  0.00    -0.332 N 
ATOM     13  C   UNL d   1      26.438 -13.181  -4.074  0.00  0.00     0.311 C 
ATOM     14  O   UNL d   1      27.633 -13.141  -3.806  0.00  0.00    -0.262 OA
ATOM     15  H   UNL d   1      24.773 -12.437  -5.046  0.00  0.00     0.164 HD
BRANCH  13  16
ATOM     16  C   UNL d   1      25.520 -14.191  -3.338  0.00  0.00     0.314 C 
ATOM     17  O   UNL d   1      24.345 -14.244  -3.687  0.00  0.00    -0.262 OA
ATOM     18  N   UNL d   1      26.104 -14.900  -2.286  0.00  0.00    -0.319 N 
ATOM     19  H   UNL d   1      27.001 -14.583  -1.928  0.00  0.00     0.169 HD
BRANCH  18  20
ATOM     20  C   UNL d   1      25.427 -15.942  -1.608  0.00  0.00     0.035 A 
ATOM     21  C   UNL d   1      26.129 -16.997  -1.016  0.00  0.00     0.029 A 
ATOM     22  C   UNL d   1      25.432 -18.033  -0.373  0.00  0.00     0.002 A 
ATOM     23  C   UNL d   1      24.041 -17.997  -0.282  0.00  0.00     0.000 A 
ATOM     24  C   UNL d   1      23.339 -16.968  -0.899  0.00  0.00     0.002 A 
ATOM     25  C   UNL d   1      24.030 -15.950  -1.559  0.00  0.00     0.029 A 
ENDBRANCH  18  20
ENDBRANCH  13  16
ENDBRANCH   3  12
TORSDOF 4
ENDMDL
MODEL 9
REMARK VINA RESULT:    -6.400      1.852      2.690
REMARK INTER + INTRA:          -9.481
REMARK INTER:                  -7.593
REMARK INTRA:                  -1.888
REMARK CONF_INDEPENDENT:        1.193
REMARK UNBOUND:                -1.888
REMARK  4 active torsions:
REMARK  status: ('A' for Active; 'I' for Inactive)
REMARK    1  A    between atoms: C_3  and  C_16 
REMARK    2  A    between atoms: C_3  and  N_4 
REMARK       I    between atoms: N_4  and  C_5 
REMARK    3  A    between atoms: C_5  and  C_7 
REMARK       I    between atoms: C_7  and  N_9 
REMARK    4  A    between atoms: N_9  and  C_10 
ROOT
ATOM      1  N   UNL d   1      29.928 -18.003  -1.076  0.00  0.00    -0.195 NA
ATOM      2  C   UNL d   1      29.243 -17.129  -0.711  0.00  0.00     0.089 C 
ATOM      3  C   UNL d   1      28.335 -16.034  -0.275  0.00  0.00     0.229 C 
ENDROOT
BRANCH   3   4
ATOM      4  C   UNL d   1      26.880 -16.522  -0.244  0.00  0.00     0.017 C 
ATOM      5  C   UNL d   1      26.491 -17.643   0.521  0.00  0.00     0.016 C 
ATOM      6  C   UNL d   1      25.214 -18.201   0.353  0.00  0.00     0.043 C 
ATOM      7  C   UNL d   1      24.316 -17.637  -0.547  0.00  0.00     0.119 C 
ATOM      8  F   UNL d   1      23.068 -18.109  -0.641  0.00  0.00    -0.206 F 
ATOM      9  C   UNL d   1      24.662 -16.532  -1.285  0.00  0.00     0.085 C 
ATOM     10  C   UNL d   1      25.890 -15.946  -1.055  0.00  0.00     0.128 C 
ATOM     11  F   UNL d   1      26.043 -14.733  -1.599  0.00  0.00    -0.205 F 
ENDBRANCH   3   4
BRANCH   3  12
ATOM     12  N   UNL d   1      28.807 -15.415   0.975  0.00  0.00    -0.332 N 
ATOM     13  C   UNL d   1      28.026 -14.562   1.760  0.00  0.00     0.311 C 
ATOM     14  O   UNL d   1      26.944 -14.091   1.430  0.00  0.00    -0.262 OA
ATOM     15  H   UNL d   1      29.684 -15.737   1.378  0.00  0.00     0.164 HD
BRANCH  13  16
ATOM     16  C   UNL d   1      28.553 -14.342   3.202  0.00  0.00     0.314 C 
ATOM     17  O   UNL d   1      29.710 -14.676   3.438  0.00  0.00    -0.262 OA
ATOM     18  N   UNL d   1      27.629 -13.847   4.125  0.00  0.00    -0.319 N 
ATOM     19  H   UNL d   1      26.643 -13.856   3.876  0.00  0.00     0.169 HD
BRANCH  18  20
ATOM     20  C   UNL d   1      27.997 -13.479   5.441  0.00  0.00     0.035 A 
ATOM     21  C   UNL d   1      27.780 -12.182   5.918  0.00  0.00     0.029 A 
ATOM     22  C   UNL d   1      28.180 -11.835   7.219  0.00  0.00     0.002 A 
ATOM     23  C   UNL d   1      28.756 -12.788   8.059  0.00  0.00     0.000 A 
ATOM     24  C   UNL d   1      29.005 -14.068   7.575  0.00  0.00     0.002 A 
ATOM     25  C   UNL d   1      28.629 -14.408   6.274  0.00  0.00     0.029 A 
ENDBRANCH  18  20
ENDBRANCH  13  16
ENDBRANCH   3  12
TORSDOF 4
ENDMDL
