MODEL 1
REMARK VINA RESULT:   -10.026      0.000      0.000
REMARK INTER + INTRA:         -12.223
REMARK INTER:                 -11.219
REMARK INTRA:                  -1.003
REMARK CONF_INDEPENDENT:        1.193
REMARK UNBOUND:                -1.003
REMARK  4 active torsions:
REMARK  status: ('A' for Active; 'I' for Inactive)
REMARK    1  A    between atoms: C_2  and  C_3 
REMARK       I    between atoms: C_2  and  N_14 
REMARK    2  A    between atoms: C_4  and  C_5 
REMARK       I    between atoms: N_14  and  C_15 
REMARK    3  A    between atoms: C_15  and  C_17 
REMARK    4  A    between atoms: C_22  and  O_23 
ROOT
ATOM      1  O   UNL d   1      25.404 -18.569   0.325  0.00  0.00    -0.268 OA
ATOM      2  C   UNL d   1      24.375 -18.160  -0.208  0.00  0.00     0.248 C 
ATOM      3  N   UNL d   1      23.138 -18.675   0.159  0.00  0.00    -0.290 N 
ATOM      4  C   UNL d   1      21.873 -18.391  -0.341  0.00  0.00     0.261 C 
ATOM      5  O   UNL d   1      21.612 -17.578  -1.227  0.00  0.00    -0.267 OA
ATOM      6  H   UNL d   1      23.203 -19.373   0.891  0.00  0.00     0.172 HD
ENDROOT
BRANCH   2   7
ATOM      7  C   UNL d   1      24.410 -17.116  -1.265  0.00  0.00     0.075 C 
ATOM      8  C   UNL d   1      25.425 -16.265  -1.487  0.00  0.00     0.019 C 
BRANCH   8   9
ATOM      9  C   UNL d   1      25.377 -15.305  -2.552  0.00  0.00    -0.008 A 
ATOM     10  C   UNL d   1      24.321 -14.454  -2.783  0.00  0.00     0.100 A 
ATOM     11  N   UNL d   1      24.680 -13.604  -3.802  0.00  0.00    -0.364 N 
ATOM     12  C   UNL d   1      25.916 -13.948  -4.302  0.00  0.00     0.043 A 
ATOM     13  H   UNL d   1      24.113 -12.844  -4.151  0.00  0.00     0.165 HD
ATOM     14  C   UNL d   1      26.656 -13.401  -5.362  0.00  0.00     0.030 A 
ATOM     15  C   UNL d   1      26.379 -15.020  -3.535  0.00  0.00     0.002 A 
ATOM     16  C   UNL d   1      27.887 -13.991  -5.670  0.00  0.00     0.002 A 
ATOM     17  C   UNL d   1      28.372 -15.063  -4.927  0.00  0.00     0.001 A 
ATOM     18  C   UNL d   1      27.636 -15.575  -3.853  0.00  0.00     0.014 A 
ENDBRANCH   8   9
ENDBRANCH   2   7
BRANCH   4  19
ATOM     19  C   UNL d   1      20.722 -19.164   0.166  0.00  0.00     0.065 A 
ATOM     20  C   UNL d   1      20.652 -19.325   1.560  0.00  0.00     0.020 A 
ATOM     21  C   UNL d   1      19.649 -20.101   2.136  0.00  0.00     0.001 A 
ATOM     22  C   UNL d   1      18.730 -20.751   1.315  0.00  0.00     0.003 A 
ATOM     23  C   UNL d   1      18.814 -20.626  -0.077  0.00  0.00     0.037 A 
ATOM     24  C   UNL d   1      19.805 -19.822  -0.653  0.00  0.00     0.081 A 
BRANCH  24  25
ATOM     25  O   UNL d   1      19.896 -19.700  -2.010  0.00  0.00    -0.360 OA
ATOM     26  H   UNL d   1      20.495 -18.964  -2.229  0.00  0.00     0.217 HD
ENDBRANCH  24  25
ENDBRANCH   4  19
TORSDOF 4
ENDMDL
MODEL 2
REMARK VINA RESULT:    -9.055      2.246      8.385
REMARK INTER + INTRA:         -11.234
REMARK INTER:                 -10.248
REMARK INTRA:                  -0.986
REMARK CONF_INDEPENDENT:        1.193
REMARK UNBOUND:                -0.986
REMARK  4 active torsions:
REMARK  status: ('A' for Active; 'I' for Inactive)
REMARK    1  A    between atoms: C_2  and  C_3 
REMARK       I    between atoms: C_2  and  N_14 
REMARK    2  A    between atoms: C_4  and  C_5 
REMARK       I    between atoms: N_14  and  C_15 
REMARK    3  A    between atoms: C_15  and  C_17 
REMARK    4  A    between atoms: C_22  and  O_23 
ROOT
ATOM      1  O   UNL d   1      25.939 -18.454   0.970  0.00  0.00    -0.268 OA
ATOM      2  C   UNL d   1      25.284 -17.900   0.091  0.00  0.00     0.248 C 
ATOM      3  N   UNL d   1      25.759 -16.748  -0.523  0.00  0.00    -0.290 N 
ATOM      4  C   UNL d   1      25.167 -15.950  -1.494  0.00  0.00     0.261 C 
ATOM      5  O   UNL d   1      24.072 -16.145  -2.020  0.00  0.00    -0.267 OA
ATOM      6  H   UNL d   1      26.668 -16.464  -0.178  0.00  0.00     0.172 HD
ENDROOT
BRANCH   2   7
ATOM      7  C   UNL d   1      23.962 -18.427  -0.341  0.00  0.00     0.075 C 
ATOM      8  C   UNL d   1      22.849 -18.451   0.410  0.00  0.00     0.019 C 
BRANCH   8   9
ATOM      9  C   UNL d   1      21.610 -18.959  -0.104  0.00  0.00    -0.008 A 
ATOM     10  C   UNL d   1      21.260 -18.949  -1.435  0.00  0.00     0.100 A 
ATOM     11  N   UNL d   1      20.068 -19.620  -1.562  0.00  0.00    -0.364 N 
ATOM     12  C   UNL d   1      19.587 -19.986  -0.323  0.00  0.00     0.043 A 
ATOM     13  H   UNL d   1      19.596 -19.807  -2.436  0.00  0.00     0.165 HD
ATOM     14  C   UNL d   1      18.399 -20.639   0.038  0.00  0.00     0.030 A 
ATOM     15  C   UNL d   1      20.538 -19.578   0.616  0.00  0.00     0.002 A 
ATOM     16  C   UNL d   1      18.159 -20.849   1.400  0.00  0.00     0.002 A 
ATOM     17  C   UNL d   1      19.085 -20.449   2.359  0.00  0.00     0.001 A 
ATOM     18  C   UNL d   1      20.280 -19.828   1.979  0.00  0.00     0.014 A 
ENDBRANCH   8   9
ENDBRANCH   2   7
BRANCH   4  19
ATOM     19  C   UNL d   1      25.855 -14.711  -1.907  0.00  0.00     0.065 A 
ATOM     20  C   UNL d   1      26.688 -14.117  -0.945  0.00  0.00     0.020 A 
ATOM     21  C   UNL d   1      27.323 -12.906  -1.205  0.00  0.00     0.001 A 
ATOM     22  C   UNL d   1      27.098 -12.262  -2.420  0.00  0.00     0.003 A 
ATOM     23  C   UNL d   1      26.240 -12.828  -3.372  0.00  0.00     0.037 A 
ATOM     24  C   UNL d   1      25.625 -14.060  -3.120  0.00  0.00     0.081 A 
BRANCH  24  25
ATOM     25  O   UNL d   1      24.784 -14.616  -4.040  0.00  0.00    -0.360 OA
ATOM     26  H   UNL d   1      24.823 -15.586  -3.970  0.00  0.00     0.217 HD
ENDBRANCH  24  25
ENDBRANCH   4  19
TORSDOF 4
ENDMDL
MODEL 3
REMARK VINA RESULT:    -7.539      3.777      8.612
REMARK INTER + INTRA:          -9.893
REMARK INTER:                  -8.732
REMARK INTRA:                  -1.161
REMARK CONF_INDEPENDENT:        1.193
REMARK UNBOUND:                -1.161
REMARK  4 active torsions:
REMARK  status: ('A' for Active; 'I' for Inactive)
REMARK    1  A    between atoms: C_2  and  C_3 
REMARK       I    between atoms: C_2  and  N_14 
REMARK    2  A    between atoms: C_4  and  C_5 
REMARK       I    between atoms: N_14  and  C_15 
REMARK    3  A    between atoms: C_15  and  C_17 
REMARK    4  A    between atoms: C_22  and  O_23 
ROOT
ATOM      1  O   UNL d   1      27.250 -15.200  -6.122  0.00  0.00    -0.268 OA
ATOM      2  C   UNL d   1      26.793 -14.712  -5.092  0.00  0.00     0.248 C 
ATOM      3  N   UNL d   1      26.506 -13.354  -5.022  0.00  0.00    -0.290 N 
ATOM      4  C   UNL d   1      26.033 -12.600  -3.956  0.00  0.00     0.261 C 
ATOM      5  O   UNL d   1      25.752 -13.027  -2.837  0.00  0.00    -0.267 OA
ATOM      6  H   UNL d   1      26.698 -12.866  -5.889  0.00  0.00     0.172 HD
ENDROOT
BRANCH   2   7
ATOM      7  C   UNL d   1      26.539 -15.541  -3.885  0.00  0.00     0.075 C 
ATOM      8  C   UNL d   1      27.304 -15.566  -2.781  0.00  0.00     0.019 C 
BRANCH   8   9
ATOM      9  C   UNL d   1      26.964 -16.384  -1.653  0.00  0.00    -0.008 A 
ATOM     10  C   UNL d   1      27.859 -16.784  -0.687  0.00  0.00     0.100 A 
ATOM     11  N   UNL d   1      27.155 -17.447   0.290  0.00  0.00    -0.364 N 
ATOM     12  C   UNL d   1      25.830 -17.567  -0.069  0.00  0.00     0.043 A 
ATOM     13  H   UNL d   1      27.551 -17.812   1.145  0.00  0.00     0.165 HD
ATOM     14  C   UNL d   1      24.762 -18.200   0.585  0.00  0.00     0.030 A 
ATOM     15  C   UNL d   1      25.681 -16.909  -1.292  0.00  0.00     0.002 A 
ATOM     16  C   UNL d   1      23.514 -18.190  -0.048  0.00  0.00     0.002 A 
ATOM     17  C   UNL d   1      23.336 -17.548  -1.269  0.00  0.00     0.001 A 
ATOM     18  C   UNL d   1      24.405 -16.894  -1.891  0.00  0.00     0.014 A 
ENDBRANCH   8   9
ENDBRANCH   2   7
BRANCH   4  19
ATOM     19  C   UNL d   1      25.908 -11.139  -4.124  0.00  0.00     0.065 A 
ATOM     20  C   UNL d   1      26.067 -10.368  -2.960  0.00  0.00     0.020 A 
ATOM     21  C   UNL d   1      25.893  -8.987  -2.992  0.00  0.00     0.001 A 
ATOM     22  C   UNL d   1      25.522  -8.372  -4.186  0.00  0.00     0.003 A 
ATOM     23  C   UNL d   1      25.327  -9.135  -5.343  0.00  0.00     0.037 A 
ATOM     24  C   UNL d   1      25.530 -10.520  -5.315  0.00  0.00     0.081 A 
BRANCH  24  25
ATOM     25  O   UNL d   1      25.336 -11.272  -6.438  0.00  0.00    -0.360 OA
ATOM     26  H   UNL d   1      24.417 -11.594  -6.457  0.00  0.00     0.217 HD
ENDBRANCH  24  25
ENDBRANCH   4  19
TORSDOF 4
ENDMDL
