MODEL 1
REMARK VINA RESULT:    -7.057      0.000      0.000
REMARK INTER + INTRA:         -10.515
REMARK INTER:                  -9.145
REMARK INTRA:                  -1.370
REMARK CONF_INDEPENDENT:        2.088
REMARK UNBOUND:                -1.370
REMARK  7 active torsions:
REMARK  status: ('A' for Active; 'I' for Inactive)
REMARK    1  A    between atoms: C_2  and  C_4 
REMARK    2  A    between atoms: C_4  and  C_5 
REMARK    3  A    between atoms: C_5  and  N_6 
REMARK       I    between atoms: N_6  and  C_7 
REMARK       I    between atoms: C_7  and  N_9 
REMARK    4  A    between atoms: N_9  and  N_10 
REMARK       I    between atoms: N_10  and  C_11 
REMARK    5  A    between atoms: C_11  and  C_13 
REMARK    6  A    between atoms: C_14  and  C_15 
REMARK    7  A    between atoms: C_18  and  N_19 
ROOT
ATOM      1  N   UNL d   1      24.912 -16.212  -2.269  0.00  0.00    -0.263 N 
ATOM      2  C   UNL d   1      25.019 -17.054  -1.171  0.00  0.00     0.259 C 
ATOM      3  O   UNL d   1      25.978 -17.022  -0.398  0.00  0.00    -0.267 OA
ATOM      4  H   UNL d   1      24.132 -16.212  -2.925  0.00  0.00     0.190 HD
ENDROOT
BRANCH   1   5
ATOM      5  N   UNL d   1      25.935 -15.232  -2.531  0.00  0.00    -0.249 N 
ATOM      6  C   UNL d   1      25.759 -14.306  -3.547  0.00  0.00     0.334 C 
ATOM      7  N   UNL d   1      26.791 -13.395  -3.696  0.00  0.00    -0.342 N 
ATOM      8  O   UNL d   1      24.752 -14.298  -4.256  0.00  0.00    -0.246 OA
ATOM      9  H   UNL d   1      27.620 -13.470  -3.125  0.00  0.00     0.164 HD
ATOM     10  H   UNL d   1      26.755 -15.269  -1.932  0.00  0.00     0.192 HD
BRANCH   7  11
ATOM     11  C   UNL d   1      26.754 -12.382  -4.754  0.00  0.00     0.125 C 
BRANCH  11  12
ATOM     12  C   UNL d   1      26.168 -11.020  -4.334  0.00  0.00     0.023 C 
BRANCH  12  13
ATOM     13  C   UNL d   1      25.637 -10.186  -5.529  0.00  0.00    -0.021 C 
ATOM     14  C   UNL d   1      26.046  -8.713  -5.394  0.00  0.00     0.009 C 
ATOM     15  C   UNL d   1      26.148 -10.719  -6.869  0.00  0.00     0.009 C 
ENDBRANCH  12  13
ENDBRANCH  11  12
ENDBRANCH   7  11
ENDBRANCH   1   5
BRANCH   2  16
ATOM     16  C   UNL d   1      23.882 -18.028  -0.978  0.00  0.00     0.076 C 
ATOM     17  C   UNL d   1      22.669 -17.639  -0.522  0.00  0.00     0.017 C 
BRANCH  17  18
ATOM     18  C   UNL d   1      21.522 -18.545  -0.247  0.00  0.00    -0.036 A 
ATOM     19  C   UNL d   1      20.635 -18.934  -1.270  0.00  0.00     0.014 A 
ATOM     20  C   UNL d   1      19.486 -19.700  -0.989  0.00  0.00     0.037 A 
ATOM     21  C   UNL d   1      19.251 -20.141   0.319  0.00  0.00     0.102 A 
ATOM     22  C   UNL d   1      20.111 -19.750   1.350  0.00  0.00     0.037 A 
ATOM     23  C   UNL d   1      21.228 -18.950   1.063  0.00  0.00     0.014 A 
BRANCH  21  24
ATOM     24  N   UNL d   1      18.139 -21.061   0.604  0.00  0.00    -0.116 N 
ATOM     25  O   UNL d   1      17.287 -21.230  -0.280  0.00  0.00    -0.532 OA
ATOM     26  O   UNL d   1      18.134 -21.637   1.702  0.00  0.00    -0.532 OA
ENDBRANCH  21  24
ENDBRANCH  17  18
ENDBRANCH   2  16
TORSDOF 7
ENDMDL
MODEL 2
REMARK VINA RESULT:    -7.049      1.940      2.989
REMARK INTER + INTRA:         -10.576
REMARK INTER:                  -9.137
REMARK INTRA:                  -1.439
REMARK CONF_INDEPENDENT:        2.088
REMARK UNBOUND:                -1.439
REMARK  7 active torsions:
REMARK  status: ('A' for Active; 'I' for Inactive)
REMARK    1  A    between atoms: C_2  and  C_4 
REMARK    2  A    between atoms: C_4  and  C_5 
REMARK    3  A    between atoms: C_5  and  N_6 
REMARK       I    between atoms: N_6  and  C_7 
REMARK       I    between atoms: C_7  and  N_9 
REMARK    4  A    between atoms: N_9  and  N_10 
REMARK       I    between atoms: N_10  and  C_11 
REMARK    5  A    between atoms: C_11  and  C_13 
REMARK    6  A    between atoms: C_14  and  C_15 
REMARK    7  A    between atoms: C_18  and  N_19 
ROOT
ATOM      1  N   UNL d   1      25.226 -16.789  -2.076  0.00  0.00    -0.263 N 
ATOM      2  C   UNL d   1      25.261 -17.380  -0.821  0.00  0.00     0.259 C 
ATOM      3  O   UNL d   1      26.212 -17.247  -0.048  0.00  0.00    -0.267 OA
ATOM      4  H   UNL d   1      24.455 -16.879  -2.737  0.00  0.00     0.190 HD
ENDROOT
BRANCH   1   5
ATOM      5  N   UNL d   1      26.318 -15.958  -2.515  0.00  0.00    -0.249 N 
ATOM      6  C   UNL d   1      26.247 -15.316  -3.741  0.00  0.00     0.334 C 
ATOM      7  N   UNL d   1      27.339 -14.524  -4.053  0.00  0.00    -0.342 N 
ATOM      8  O   UNL d   1      25.276 -15.443  -4.489  0.00  0.00    -0.246 OA
ATOM      9  H   UNL d   1      28.134 -14.490  -3.432  0.00  0.00     0.164 HD
ATOM     10  H   UNL d   1      27.105 -15.880  -1.878  0.00  0.00     0.192 HD
BRANCH   7  11
ATOM     11  C   UNL d   1      27.412 -13.815  -5.333  0.00  0.00     0.125 C 
BRANCH  11  12
ATOM     12  C   UNL d   1      28.234 -14.523  -6.427  0.00  0.00     0.023 C 
BRANCH  12  13
ATOM     13  C   UNL d   1      29.731 -14.692  -6.056  0.00  0.00    -0.021 C 
ATOM     14  C   UNL d   1      29.986 -16.065  -5.419  0.00  0.00     0.009 C 
ATOM     15  C   UNL d   1      30.642 -14.538  -7.275  0.00  0.00     0.009 C 
ENDBRANCH  12  13
ENDBRANCH  11  12
ENDBRANCH   7  11
ENDBRANCH   1   5
BRANCH   2  16
ATOM     16  C   UNL d   1      24.057 -18.213  -0.453  0.00  0.00     0.076 C 
ATOM     17  C   UNL d   1      22.794 -17.815  -0.730  0.00  0.00     0.017 C 
BRANCH  17  18
ATOM     18  C   UNL d   1      21.557 -18.546  -0.346  0.00  0.00    -0.036 A 
ATOM     19  C   UNL d   1      21.329 -18.951   0.983  0.00  0.00     0.014 A 
ATOM     20  C   UNL d   1      20.212 -19.739   1.326  0.00  0.00     0.037 A 
ATOM     21  C   UNL d   1      19.273 -20.074   0.342  0.00  0.00     0.102 A 
ATOM     22  C   UNL d   1      19.491 -19.695  -0.986  0.00  0.00     0.037 A 
ATOM     23  C   UNL d   1      20.631 -18.948  -1.321  0.00  0.00     0.014 A 
BRANCH  21  24
ATOM     24  N   UNL d   1      18.030 -20.770   0.709  0.00  0.00    -0.116 N 
ATOM     25  O   UNL d   1      17.745 -20.849   1.913  0.00  0.00    -0.532 OA
ATOM     26  O   UNL d   1      17.324 -21.212  -0.210  0.00  0.00    -0.532 OA
ENDBRANCH  21  24
ENDBRANCH  17  18
ENDBRANCH   2  16
TORSDOF 7
ENDMDL
MODEL 3
REMARK VINA RESULT:    -6.983      2.625     10.679
REMARK INTER + INTRA:         -10.462
REMARK INTER:                  -9.071
REMARK INTRA:                  -1.391
REMARK CONF_INDEPENDENT:        2.088
REMARK UNBOUND:                -1.391
REMARK  7 active torsions:
REMARK  status: ('A' for Active; 'I' for Inactive)
REMARK    1  A    between atoms: C_2  and  C_4 
REMARK    2  A    between atoms: C_4  and  C_5 
REMARK    3  A    between atoms: C_5  and  N_6 
REMARK       I    between atoms: N_6  and  C_7 
REMARK       I    between atoms: C_7  and  N_9 
REMARK    4  A    between atoms: N_9  and  N_10 
REMARK       I    between atoms: N_10  and  C_11 
REMARK    5  A    between atoms: C_11  and  C_13 
REMARK    6  A    between atoms: C_14  and  C_15 
REMARK    7  A    between atoms: C_18  and  N_19 
ROOT
ATOM      1  N   UNL d   1      23.710 -17.114  -1.291  0.00  0.00    -0.263 N 
ATOM      2  C   UNL d   1      25.072 -16.852  -1.248  0.00  0.00     0.259 C 
ATOM      3  O   UNL d   1      25.876 -17.601  -0.689  0.00  0.00    -0.267 OA
ATOM      4  H   UNL d   1      23.020 -16.517  -1.746  0.00  0.00     0.190 HD
ENDROOT
BRANCH   1   5
ATOM      5  N   UNL d   1      23.184 -18.314  -0.692  0.00  0.00    -0.249 N 
ATOM      6  C   UNL d   1      21.823 -18.569  -0.739  0.00  0.00     0.334 C 
ATOM      7  N   UNL d   1      21.429 -19.760  -0.155  0.00  0.00    -0.342 N 
ATOM      8  O   UNL d   1      21.030 -17.789  -1.270  0.00  0.00    -0.246 OA
ATOM      9  H   UNL d   1      22.106 -20.345   0.312  0.00  0.00     0.164 HD
ATOM     10  H   UNL d   1      23.863 -18.932  -0.258  0.00  0.00     0.192 HD
BRANCH   7  11
ATOM     11  C   UNL d   1      20.014 -20.141  -0.102  0.00  0.00     0.125 C 
BRANCH  11  12
ATOM     12  C   UNL d   1      19.155 -19.326   0.884  0.00  0.00     0.023 C 
BRANCH  12  13
ATOM     13  C   UNL d   1      18.497 -20.196   1.988  0.00  0.00    -0.021 C 
ATOM     14  C   UNL d   1      18.037 -21.545   1.421  0.00  0.00     0.009 C 
ATOM     15  C   UNL d   1      19.451 -20.451   3.156  0.00  0.00     0.009 C 
ENDBRANCH  12  13
ENDBRANCH  11  12
ENDBRANCH   7  11
ENDBRANCH   1   5
BRANCH   2  16
ATOM     16  C   UNL d   1      25.519 -15.579  -1.925  0.00  0.00     0.076 C 
ATOM     17  C   UNL d   1      25.600 -15.469  -3.271  0.00  0.00     0.017 C 
BRANCH  17  18
ATOM     18  C   UNL d   1      26.088 -14.274  -4.009  0.00  0.00    -0.036 A 
ATOM     19  C   UNL d   1      25.523 -13.001  -3.797  0.00  0.00     0.014 A 
ATOM     20  C   UNL d   1      25.908 -11.892  -4.576  0.00  0.00     0.037 A 
ATOM     21  C   UNL d   1      26.919 -12.036  -5.534  0.00  0.00     0.102 A 
ATOM     22  C   UNL d   1      27.480 -13.295  -5.770  0.00  0.00     0.037 A 
ATOM     23  C   UNL d   1      27.055 -14.401  -5.018  0.00  0.00     0.014 A 
BRANCH  21  24
ATOM     24  N   UNL d   1      27.435 -10.860  -6.251  0.00  0.00    -0.116 N 
ATOM     25  O   UNL d   1      27.045 -10.673  -7.413  0.00  0.00    -0.532 OA
ATOM     26  O   UNL d   1      28.209 -10.107  -5.641  0.00  0.00    -0.532 OA
ENDBRANCH  21  24
ENDBRANCH  17  18
ENDBRANCH   2  16
TORSDOF 7
ENDMDL
MODEL 4
REMARK VINA RESULT:    -6.822      7.487     10.909
REMARK INTER + INTRA:          -9.625
REMARK INTER:                  -8.911
REMARK INTRA:                  -0.714
REMARK CONF_INDEPENDENT:        2.088
REMARK UNBOUND:                -0.714
REMARK  7 active torsions:
REMARK  status: ('A' for Active; 'I' for Inactive)
REMARK    1  A    between atoms: C_2  and  C_4 
REMARK    2  A    between atoms: C_4  and  C_5 
REMARK    3  A    between atoms: C_5  and  N_6 
REMARK       I    between atoms: N_6  and  C_7 
REMARK       I    between atoms: C_7  and  N_9 
REMARK    4  A    between atoms: N_9  and  N_10 
REMARK       I    between atoms: N_10  and  C_11 
REMARK    5  A    between atoms: C_11  and  C_13 
REMARK    6  A    between atoms: C_14  and  C_15 
REMARK    7  A    between atoms: C_18  and  N_19 
ROOT
ATOM      1  N   UNL d   1      29.424 -14.450   3.463  0.00  0.00    -0.263 N 
ATOM      2  C   UNL d   1      28.353 -13.623   3.155  0.00  0.00     0.259 C 
ATOM      3  O   UNL d   1      27.975 -12.717   3.900  0.00  0.00    -0.267 OA
ATOM      4  H   UNL d   1      29.761 -15.206   2.869  0.00  0.00     0.190 HD
ENDROOT
BRANCH   1   5
ATOM      5  N   UNL d   1      30.162 -14.252   4.685  0.00  0.00    -0.249 N 
ATOM      6  C   UNL d   1      29.501 -14.279   5.902  0.00  0.00     0.334 C 
ATOM      7  N   UNL d   1      30.309 -14.103   7.012  0.00  0.00    -0.342 N 
ATOM      8  O   UNL d   1      28.283 -14.454   5.981  0.00  0.00    -0.246 OA
ATOM      9  H   UNL d   1      31.294 -13.914   6.898  0.00  0.00     0.164 HD
ATOM     10  H   UNL d   1      31.162 -14.106   4.584  0.00  0.00     0.192 HD
BRANCH   7  11
ATOM     11  C   UNL d   1      29.738 -14.075   8.362  0.00  0.00     0.125 C 
BRANCH  11  12
ATOM     12  C   UNL d   1      28.728 -12.940   8.621  0.00  0.00     0.023 C 
BRANCH  12  13
ATOM     13  C   UNL d   1      28.186 -12.921  10.074  0.00  0.00    -0.021 C 
ATOM     14  C   UNL d   1      27.851 -14.340  10.552  0.00  0.00     0.009 C 
ATOM     15  C   UNL d   1      29.186 -12.295  11.048  0.00  0.00     0.009 C 
ENDBRANCH  12  13
ENDBRANCH  11  12
ENDBRANCH   7  11
ENDBRANCH   1   5
BRANCH   2  16
ATOM     16  C   UNL d   1      27.663 -13.904   1.842  0.00  0.00     0.076 C 
ATOM     17  C   UNL d   1      28.340 -14.320   0.747  0.00  0.00     0.017 C 
BRANCH  17  18
ATOM     18  C   UNL d   1      27.744 -14.557  -0.595  0.00  0.00    -0.036 A 
ATOM     19  C   UNL d   1      28.507 -15.095  -1.650  0.00  0.00     0.014 A 
ATOM     20  C   UNL d   1      27.975 -15.216  -2.949  0.00  0.00     0.037 A 
ATOM     21  C   UNL d   1      26.643 -14.857  -3.187  0.00  0.00     0.102 A 
ATOM     22  C   UNL d   1      25.876 -14.305  -2.158  0.00  0.00     0.037 A 
ATOM     23  C   UNL d   1      26.432 -14.149  -0.878  0.00  0.00     0.014 A 
BRANCH  21  24
ATOM     24  N   UNL d   1      26.029 -15.112  -4.500  0.00  0.00    -0.116 N 
ATOM     25  O   UNL d   1      24.833 -14.825  -4.646  0.00  0.00    -0.532 OA
ATOM     26  O   UNL d   1      26.754 -15.575  -5.395  0.00  0.00    -0.532 OA
ENDBRANCH  21  24
ENDBRANCH  17  18
ENDBRANCH   2  16
TORSDOF 7
ENDMDL
MODEL 5
REMARK VINA RESULT:    -6.706      7.488     10.759
REMARK INTER + INTRA:          -9.564
REMARK INTER:                  -8.795
REMARK INTRA:                  -0.770
REMARK CONF_INDEPENDENT:        2.088
REMARK UNBOUND:                -0.770
REMARK  7 active torsions:
REMARK  status: ('A' for Active; 'I' for Inactive)
REMARK    1  A    between atoms: C_2  and  C_4 
REMARK    2  A    between atoms: C_4  and  C_5 
REMARK    3  A    between atoms: C_5  and  N_6 
REMARK       I    between atoms: N_6  and  C_7 
REMARK       I    between atoms: C_7  and  N_9 
REMARK    4  A    between atoms: N_9  and  N_10 
REMARK       I    between atoms: N_10  and  C_11 
REMARK    5  A    between atoms: C_11  and  C_13 
REMARK    6  A    between atoms: C_14  and  C_15 
REMARK    7  A    between atoms: C_18  and  N_19 
ROOT
ATOM      1  N   UNL d   1      28.615 -14.940   4.009  0.00  0.00    -0.263 N 
ATOM      2  C   UNL d   1      27.638 -14.018   3.659  0.00  0.00     0.259 C 
ATOM      3  O   UNL d   1      27.104 -13.270   4.480  0.00  0.00    -0.267 OA
ATOM      4  H   UNL d   1      29.076 -15.571   3.355  0.00  0.00     0.190 HD
ENDROOT
BRANCH   1   5
ATOM      5  N   UNL d   1      29.063 -15.036   5.375  0.00  0.00    -0.249 N 
ATOM      6  C   UNL d   1      29.611 -13.926   6.000  0.00  0.00     0.334 C 
ATOM      7  N   UNL d   1      29.986 -14.122   7.318  0.00  0.00    -0.342 N 
ATOM      8  O   UNL d   1      29.744 -12.848   5.419  0.00  0.00    -0.246 OA
ATOM      9  H   UNL d   1      29.904 -15.035   7.739  0.00  0.00     0.164 HD
ATOM     10  H   UNL d   1      28.944 -15.939   5.823  0.00  0.00     0.192 HD
BRANCH   7  11
ATOM     11  C   UNL d   1      30.610 -13.044   8.090  0.00  0.00     0.125 C 
BRANCH  11  12
ATOM     12  C   UNL d   1      30.013 -12.813   9.492  0.00  0.00     0.023 C 
BRANCH  12  13
ATOM     13  C   UNL d   1      28.560 -13.338   9.634  0.00  0.00    -0.021 C 
ATOM     14  C   UNL d   1      28.549 -14.832   9.981  0.00  0.00     0.009 C 
ATOM     15  C   UNL d   1      27.780 -12.576  10.707  0.00  0.00     0.009 C 
ENDBRANCH  12  13
ENDBRANCH  11  12
ENDBRANCH   7  11
ENDBRANCH   1   5
BRANCH   2  16
ATOM     16  C   UNL d   1      27.257 -13.987   2.199  0.00  0.00     0.076 C 
ATOM     17  C   UNL d   1      27.405 -15.063   1.393  0.00  0.00     0.017 C 
BRANCH  17  18
ATOM     18  C   UNL d   1      27.113 -15.094  -0.065  0.00  0.00    -0.036 A 
ATOM     19  C   UNL d   1      27.412 -13.996  -0.895  0.00  0.00     0.014 A 
ATOM     20  C   UNL d   1      27.034 -13.981  -2.252  0.00  0.00     0.037 A 
ATOM     21  C   UNL d   1      26.408 -15.103  -2.808  0.00  0.00     0.102 A 
ATOM     22  C   UNL d   1      26.087 -16.195  -1.997  0.00  0.00     0.037 A 
ATOM     23  C   UNL d   1      26.430 -16.178  -0.636  0.00  0.00     0.014 A 
BRANCH  21  24
ATOM     24  N   UNL d   1      26.139 -15.162  -4.254  0.00  0.00    -0.116 N 
ATOM     25  O   UNL d   1      27.044 -15.572  -4.995  0.00  0.00    -0.532 OA
ATOM     26  O   UNL d   1      25.011 -14.825  -4.644  0.00  0.00    -0.532 OA
ENDBRANCH  21  24
ENDBRANCH  17  18
ENDBRANCH   2  16
TORSDOF 7
ENDMDL
MODEL 6
REMARK VINA RESULT:    -6.678      7.581     10.900
REMARK INTER + INTRA:          -9.496
REMARK INTER:                  -8.766
REMARK INTRA:                  -0.730
REMARK CONF_INDEPENDENT:        2.088
REMARK UNBOUND:                -0.730
REMARK  7 active torsions:
REMARK  status: ('A' for Active; 'I' for Inactive)
REMARK    1  A    between atoms: C_2  and  C_4 
REMARK    2  A    between atoms: C_4  and  C_5 
REMARK    3  A    between atoms: C_5  and  N_6 
REMARK       I    between atoms: N_6  and  C_7 
REMARK       I    between atoms: C_7  and  N_9 
REMARK    4  A    between atoms: N_9  and  N_10 
REMARK       I    between atoms: N_10  and  C_11 
REMARK    5  A    between atoms: C_11  and  C_13 
REMARK    6  A    between atoms: C_14  and  C_15 
REMARK    7  A    between atoms: C_18  and  N_19 
ROOT
ATOM      1  N   UNL d   1      29.347 -14.447   3.672  0.00  0.00    -0.263 N 
ATOM      2  C   UNL d   1      28.363 -13.522   3.351  0.00  0.00     0.259 C 
ATOM      3  O   UNL d   1      28.109 -12.548   4.061  0.00  0.00    -0.267 OA
ATOM      4  H   UNL d   1      29.582 -15.262   3.106  0.00  0.00     0.190 HD
ENDROOT
BRANCH   1   5
ATOM      5  N   UNL d   1      30.140 -14.277   4.863  0.00  0.00    -0.249 N 
ATOM      6  C   UNL d   1      29.523 -14.257   6.104  0.00  0.00     0.334 C 
ATOM      7  N   UNL d   1      30.380 -14.113   7.182  0.00  0.00    -0.342 N 
ATOM      8  O   UNL d   1      28.302 -14.366   6.229  0.00  0.00    -0.246 OA
ATOM      9  H   UNL d   1      31.368 -13.978   7.029  0.00  0.00     0.164 HD
ATOM     10  H   UNL d   1      31.141 -14.184   4.725  0.00  0.00     0.192 HD
BRANCH   7  11
ATOM     11  C   UNL d   1      29.862 -14.041   8.551  0.00  0.00     0.125 C 
BRANCH  11  12
ATOM     12  C   UNL d   1      28.761 -12.987   8.779  0.00  0.00     0.023 C 
BRANCH  12  13
ATOM     13  C   UNL d   1      28.213 -12.977  10.230  0.00  0.00    -0.021 C 
ATOM     14  C   UNL d   1      27.914 -14.402  10.713  0.00  0.00     0.009 C 
ATOM     15  C   UNL d   1      29.191 -12.320  11.205  0.00  0.00     0.009 C 
ENDBRANCH  12  13
ENDBRANCH  11  12
ENDBRANCH   7  11
ENDBRANCH   1   5
BRANCH   2  16
ATOM     16  C   UNL d   1      27.607 -13.784   2.071  0.00  0.00     0.076 C 
ATOM     17  C   UNL d   1      28.232 -14.144   0.926  0.00  0.00     0.017 C 
BRANCH  17  18
ATOM     18  C   UNL d   1      27.567 -14.358  -0.387  0.00  0.00    -0.036 A 
ATOM     19  C   UNL d   1      27.585 -13.367  -1.387  0.00  0.00     0.014 A 
ATOM     20  C   UNL d   1      26.862 -13.525  -2.586  0.00  0.00     0.037 A 
ATOM     21  C   UNL d   1      26.164 -14.716  -2.821  0.00  0.00     0.102 A 
ATOM     22  C   UNL d   1      26.120 -15.704  -1.833  0.00  0.00     0.037 A 
ATOM     23  C   UNL d   1      26.809 -15.514  -0.625  0.00  0.00     0.014 A 
BRANCH  21  24
ATOM     24  N   UNL d   1      25.526 -14.957  -4.125  0.00  0.00    -0.116 N 
ATOM     25  O   UNL d   1      26.126 -15.675  -4.939  0.00  0.00    -0.532 OA
ATOM     26  O   UNL d   1      24.412 -14.450  -4.324  0.00  0.00    -0.532 OA
ENDBRANCH  21  24
ENDBRANCH  17  18
ENDBRANCH   2  16
TORSDOF 7
ENDMDL
MODEL 7
REMARK VINA RESULT:    -6.618      5.154      6.704
REMARK INTER + INTRA:         -10.190
REMARK INTER:                  -8.706
REMARK INTRA:                  -1.483
REMARK CONF_INDEPENDENT:        2.088
REMARK UNBOUND:                -1.483
REMARK  7 active torsions:
REMARK  status: ('A' for Active; 'I' for Inactive)
REMARK    1  A    between atoms: C_2  and  C_4 
REMARK    2  A    between atoms: C_4  and  C_5 
REMARK    3  A    between atoms: C_5  and  N_6 
REMARK       I    between atoms: N_6  and  C_7 
REMARK       I    between atoms: C_7  and  N_9 
REMARK    4  A    between atoms: N_9  and  N_10 
REMARK       I    between atoms: N_10  and  C_11 
REMARK    5  A    between atoms: C_11  and  C_13 
REMARK    6  A    between atoms: C_14  and  C_15 
REMARK    7  A    between atoms: C_18  and  N_19 
ROOT
ATOM      1  N   UNL d   1      27.934 -15.681   0.980  0.00  0.00    -0.263 N 
ATOM      2  C   UNL d   1      28.024 -16.717   0.061  0.00  0.00     0.259 C 
ATOM      3  O   UNL d   1      29.102 -17.145  -0.356  0.00  0.00    -0.267 OA
ATOM      4  H   UNL d   1      27.059 -15.306   1.345  0.00  0.00     0.190 HD
ENDROOT
BRANCH   1   5
ATOM      5  N   UNL d   1      29.129 -15.077   1.509  0.00  0.00    -0.249 N 
ATOM      6  C   UNL d   1      29.034 -14.100   2.488  0.00  0.00     0.334 C 
ATOM      7  N   UNL d   1      30.244 -13.605   2.943  0.00  0.00    -0.342 N 
ATOM      8  O   UNL d   1      27.947 -13.711   2.919  0.00  0.00    -0.246 OA
ATOM      9  H   UNL d   1      31.108 -13.917   2.526  0.00  0.00     0.164 HD
ATOM     10  H   UNL d   1      30.008 -15.416   1.129  0.00  0.00     0.192 HD
BRANCH   7  11
ATOM     11  C   UNL d   1      30.291 -12.543   3.952  0.00  0.00     0.125 C 
BRANCH  11  12
ATOM     12  C   UNL d   1      30.367 -13.031   5.411  0.00  0.00     0.023 C 
BRANCH  12  13
ATOM     13  C   UNL d   1      28.982 -13.389   6.011  0.00  0.00    -0.021 C 
ATOM     14  C   UNL d   1      27.898 -12.435   5.494  0.00  0.00     0.009 C 
ATOM     15  C   UNL d   1      28.572 -14.826   5.683  0.00  0.00     0.009 C 
ENDBRANCH  12  13
ENDBRANCH  11  12
ENDBRANCH   7  11
ENDBRANCH   1   5
BRANCH   2  16
ATOM     16  C   UNL d   1      26.711 -17.292  -0.413  0.00  0.00     0.076 C 
ATOM     17  C   UNL d   1      25.521 -16.844   0.048  0.00  0.00     0.017 C 
BRANCH  17  18
ATOM     18  C   UNL d   1      24.191 -17.398  -0.321  0.00  0.00    -0.036 A 
ATOM     19  C   UNL d   1      23.113 -16.555  -0.654  0.00  0.00     0.014 A 
ATOM     20  C   UNL d   1      21.826 -17.074  -0.895  0.00  0.00     0.037 A 
ATOM     21  C   UNL d   1      21.622 -18.459  -0.868  0.00  0.00     0.102 A 
ATOM     22  C   UNL d   1      22.675 -19.311  -0.521  0.00  0.00     0.037 A 
ATOM     23  C   UNL d   1      23.943 -18.777  -0.241  0.00  0.00     0.014 A 
BRANCH  21  24
ATOM     24  N   UNL d   1      20.322 -19.026  -1.259  0.00  0.00    -0.116 N 
ATOM     25  O   UNL d   1      19.297 -18.459  -0.853  0.00  0.00    -0.532 OA
ATOM     26  O   UNL d   1      20.327 -20.023  -1.997  0.00  0.00    -0.532 OA
ENDBRANCH  21  24
ENDBRANCH  17  18
ENDBRANCH   2  16
TORSDOF 7
ENDMDL
MODEL 8
REMARK VINA RESULT:    -6.106      4.130     11.492
REMARK INTER + INTRA:          -9.408
REMARK INTER:                  -8.194
REMARK INTRA:                  -1.214
REMARK CONF_INDEPENDENT:        2.088
REMARK UNBOUND:                -1.214
REMARK  7 active torsions:
REMARK  status: ('A' for Active; 'I' for Inactive)
REMARK    1  A    between atoms: C_2  and  C_4 
REMARK    2  A    between atoms: C_4  and  C_5 
REMARK    3  A    between atoms: C_5  and  N_6 
REMARK       I    between atoms: N_6  and  C_7 
REMARK       I    between atoms: C_7  and  N_9 
REMARK    4  A    between atoms: N_9  and  N_10 
REMARK       I    between atoms: N_10  and  C_11 
REMARK    5  A    between atoms: C_11  and  C_13 
REMARK    6  A    between atoms: C_14  and  C_15 
REMARK    7  A    between atoms: C_18  and  N_19 
ROOT
ATOM      1  N   UNL d   1      25.649 -16.028  -2.712  0.00  0.00    -0.263 N 
ATOM      2  C   UNL d   1      25.803 -15.180  -3.800  0.00  0.00     0.259 C 
ATOM      3  O   UNL d   1      24.882 -14.491  -4.242  0.00  0.00    -0.267 OA
ATOM      4  H   UNL d   1      26.391 -16.609  -2.322  0.00  0.00     0.190 HD
ENDROOT
BRANCH   1   5
ATOM      5  N   UNL d   1      24.382 -16.111  -2.033  0.00  0.00    -0.249 N 
ATOM      6  C   UNL d   1      24.097 -17.209  -1.236  0.00  0.00     0.334 C 
ATOM      7  N   UNL d   1      22.863 -17.175  -0.610  0.00  0.00    -0.342 N 
ATOM      8  O   UNL d   1      24.894 -18.138  -1.095  0.00  0.00    -0.246 OA
ATOM      9  H   UNL d   1      22.222 -16.417  -0.793  0.00  0.00     0.164 HD
ATOM     10  H   UNL d   1      23.746 -15.332  -2.174  0.00  0.00     0.192 HD
BRANCH   7  11
ATOM     11  C   UNL d   1      22.416 -18.286   0.235  0.00  0.00     0.125 C 
BRANCH  11  12
ATOM     12  C   UNL d   1      21.410 -19.247  -0.427  0.00  0.00     0.023 C 
BRANCH  12  13
ATOM     13  C   UNL d   1      20.054 -19.325   0.322  0.00  0.00    -0.021 C 
ATOM     14  C   UNL d   1      19.006 -20.067  -0.519  0.00  0.00     0.009 C 
ATOM     15  C   UNL d   1      20.188 -20.027   1.675  0.00  0.00     0.009 C 
ENDBRANCH  12  13
ENDBRANCH  11  12
ENDBRANCH   7  11
ENDBRANCH   1   5
BRANCH   2  16
ATOM     16  C   UNL d   1      27.177 -15.154  -4.424  0.00  0.00     0.076 C 
ATOM     17  C   UNL d   1      27.405 -14.609  -5.641  0.00  0.00     0.017 C 
BRANCH  17  18
ATOM     18  C   UNL d   1      28.713 -14.600  -6.349  0.00  0.00    -0.036 A 
ATOM     19  C   UNL d   1      29.596 -15.695  -6.270  0.00  0.00     0.014 A 
ATOM     20  C   UNL d   1      30.880 -15.642  -6.848  0.00  0.00     0.037 A 
ATOM     21  C   UNL d   1      31.267 -14.508  -7.571  0.00  0.00     0.102 A 
ATOM     22  C   UNL d   1      30.412 -13.404  -7.646  0.00  0.00     0.037 A 
ATOM     23  C   UNL d   1      29.152 -13.454  -7.028  0.00  0.00     0.014 A 
BRANCH  21  24
ATOM     24  N   UNL d   1      32.544 -14.494  -8.302  0.00  0.00    -0.116 N 
ATOM     25  O   UNL d   1      33.197 -13.441  -8.307  0.00  0.00    -0.532 OA
ATOM     26  O   UNL d   1      32.906 -15.547  -8.848  0.00  0.00    -0.532 OA
ENDBRANCH  21  24
ENDBRANCH  17  18
ENDBRANCH   2  16
TORSDOF 7
ENDMDL
MODEL 9
REMARK VINA RESULT:    -6.086      5.397     10.520
REMARK INTER + INTRA:          -9.530
REMARK INTER:                  -8.174
REMARK INTRA:                  -1.356
REMARK CONF_INDEPENDENT:        2.088
REMARK UNBOUND:                -1.356
REMARK  7 active torsions:
REMARK  status: ('A' for Active; 'I' for Inactive)
REMARK    1  A    between atoms: C_2  and  C_4 
REMARK    2  A    between atoms: C_4  and  C_5 
REMARK    3  A    between atoms: C_5  and  N_6 
REMARK       I    between atoms: N_6  and  C_7 
REMARK       I    between atoms: C_7  and  N_9 
REMARK    4  A    between atoms: N_9  and  N_10 
REMARK       I    between atoms: N_10  and  C_11 
REMARK    5  A    between atoms: C_11  and  C_13 
REMARK    6  A    between atoms: C_14  and  C_15 
REMARK    7  A    between atoms: C_18  and  N_19 
ROOT
ATOM      1  N   UNL d   1      25.598 -15.785  -0.147  0.00  0.00    -0.263 N 
ATOM      2  C   UNL d   1      26.962 -15.567  -0.006  0.00  0.00     0.259 C 
ATOM      3  O   UNL d   1      27.805 -16.416  -0.302  0.00  0.00    -0.267 OA
ATOM      4  H   UNL d   1      24.876 -15.104   0.086  0.00  0.00     0.190 HD
ENDROOT
BRANCH   1   5
ATOM      5  N   UNL d   1      25.116 -17.033  -0.682  0.00  0.00    -0.249 N 
ATOM      6  C   UNL d   1      23.763 -17.328  -0.630  0.00  0.00     0.334 C 
ATOM      7  N   UNL d   1      23.405 -18.541  -1.193  0.00  0.00    -0.342 N 
ATOM      8  O   UNL d   1      22.945 -16.558  -0.123  0.00  0.00    -0.246 OA
ATOM      9  H   UNL d   1      24.115 -19.162  -1.553  0.00  0.00     0.164 HD
ATOM     10  H   UNL d   1      25.816 -17.646  -1.087  0.00  0.00     0.192 HD
BRANCH   7  11
ATOM     11  C   UNL d   1      22.013 -18.997  -1.177  0.00  0.00     0.125 C 
BRANCH  11  12
ATOM     12  C   UNL d   1      21.443 -19.310   0.220  0.00  0.00     0.023 C 
BRANCH  12  13
ATOM     13  C   UNL d   1      20.069 -20.029   0.175  0.00  0.00    -0.021 C 
ATOM     14  C   UNL d   1      19.368 -19.955   1.538  0.00  0.00     0.009 C 
ATOM     15  C   UNL d   1      19.146 -19.429  -0.888  0.00  0.00     0.009 C 
ENDBRANCH  12  13
ENDBRANCH  11  12
ENDBRANCH   7  11
ENDBRANCH   1   5
BRANCH   2  16
ATOM     16  C   UNL d   1      27.359 -14.219   0.543  0.00  0.00     0.076 C 
ATOM     17  C   UNL d   1      26.670 -13.615   1.539  0.00  0.00     0.017 C 
BRANCH  17  18
ATOM     18  C   UNL d   1      26.959 -12.265   2.090  0.00  0.00    -0.036 A 
ATOM     19  C   UNL d   1      27.480 -12.100   3.388  0.00  0.00     0.014 A 
ATOM     20  C   UNL d   1      27.649 -10.820   3.951  0.00  0.00     0.037 A 
ATOM     21  C   UNL d   1      27.356  -9.684   3.187  0.00  0.00     0.102 A 
ATOM     22  C   UNL d   1      26.821  -9.827   1.903  0.00  0.00     0.037 A 
ATOM     23  C   UNL d   1      26.617 -11.110   1.371  0.00  0.00     0.014 A 
BRANCH  21  24
ATOM     24  N   UNL d   1      27.664  -8.341   3.705  0.00  0.00    -0.116 N 
ATOM     25  O   UNL d   1      26.898  -7.414   3.403  0.00  0.00    -0.532 OA
ATOM     26  O   UNL d   1      28.657  -8.220   4.438  0.00  0.00    -0.532 OA
ENDBRANCH  21  24
ENDBRANCH  17  18
ENDBRANCH   2  16
TORSDOF 7
ENDMDL
