MODEL 1
REMARK VINA RESULT:    -7.652      0.000      0.000
REMARK INTER + INTRA:         -10.734
REMARK INTER:                  -9.143
REMARK INTRA:                  -1.591
REMARK CONF_INDEPENDENT:        1.492
REMARK UNBOUND:                -1.591
REMARK  5 active torsions:
REMARK  status: ('A' for Active; 'I' for Inactive)
REMARK    1  A    between atoms: S_2  and  C_3 
REMARK    2  A    between atoms: C_8  and  N_9 
REMARK       I    between atoms: N_9  and  C_10 
REMARK    3  A    between atoms: C_10  and  C_12 
REMARK    4  A    between atoms: C_12  and  N_14 
REMARK       I    between atoms: N_14  and  C_15 
REMARK    5  A    between atoms: C_15  and  C_17 
ROOT
ATOM      1  C   UNL d   1      26.608 -13.364  -3.581  0.00  0.00     0.173 C 
ATOM      2  C   UNL d   1      26.918 -12.497  -2.376  0.00  0.00     0.042 C 
ENDROOT
BRANCH   1   3
ATOM      3  C   UNL d   1      25.699 -14.498  -3.080  0.00  0.00     0.244 C 
ATOM      4  N   UNL d   1      26.027 -15.141  -1.892  0.00  0.00    -0.324 N 
ATOM      5  H   UNL d   1      26.974 -15.014  -1.544  0.00  0.00     0.169 HD
ATOM      6  O   UNL d   1      24.780 -14.823  -3.837  0.00  0.00    -0.271 OA
BRANCH   4   7
ATOM      7  C   UNL d   1      25.260 -16.187  -1.266  0.00  0.00     0.051 C 
ATOM      8  C   UNL d   1      23.859 -16.186  -1.494  0.00  0.00     0.031 C 
ATOM      9  C   UNL d   1      23.016 -17.143  -0.897  0.00  0.00     0.002 C 
ATOM     10  C   UNL d   1      23.538 -18.075  -0.014  0.00  0.00     0.002 C 
ATOM     11  C   UNL d   1      24.897 -18.065   0.255  0.00  0.00     0.021 C 
ATOM     12  C   UNL d   1      25.777 -17.219  -0.440  0.00  0.00     0.026 C 
BRANCH  12  13
ATOM     13  S   UNL d   1      27.465 -17.812  -0.232  0.00  0.00    -0.132 SA
ATOM     14  C   UNL d   1      28.311 -16.283   0.233  0.00  0.00     0.095 C 
ENDBRANCH  12  13
ENDBRANCH   4   7
ENDBRANCH   1   3
BRANCH   1  15
ATOM     15  N   UNL d   1      27.831 -14.025  -4.081  0.00  0.00    -0.344 N 
ATOM     16  C   UNL d   1      27.874 -14.919  -5.117  0.00  0.00     0.254 C 
ATOM     17  O   UNL d   1      26.880 -15.256  -5.758  0.00  0.00    -0.268 OA
ATOM     18  H   UNL d   1      28.694 -13.745  -3.612  0.00  0.00     0.163 HD
BRANCH  16  19
ATOM     19  C   UNL d   1      29.197 -15.492  -5.486  0.00  0.00     0.053 A 
ATOM     20  C   UNL d   1      29.656 -15.287  -6.802  0.00  0.00     0.019 A 
ATOM     21  C   UNL d   1      30.795 -15.951  -7.271  0.00  0.00     0.001 A 
ATOM     22  C   UNL d   1      31.514 -16.782  -6.416  0.00  0.00     0.002 A 
ATOM     23  C   UNL d   1      31.080 -16.971  -5.104  0.00  0.00     0.025 A 
ATOM     24  C   UNL d   1      29.923 -16.335  -4.635  0.00  0.00     0.049 A 
ATOM     25 CL   UNL d   1      29.438 -16.701  -3.017  0.00  0.00    -0.083 Cl
ENDBRANCH  16  19
ENDBRANCH   1  15
TORSDOF 5
ENDMDL
MODEL 2
REMARK VINA RESULT:    -7.646      4.505      7.393
REMARK INTER + INTRA:         -10.276
REMARK INTER:                  -9.137
REMARK INTRA:                  -1.139
REMARK CONF_INDEPENDENT:        1.492
REMARK UNBOUND:                -1.139
REMARK  5 active torsions:
REMARK  status: ('A' for Active; 'I' for Inactive)
REMARK    1  A    between atoms: S_2  and  C_3 
REMARK    2  A    between atoms: C_8  and  N_9 
REMARK       I    between atoms: N_9  and  C_10 
REMARK    3  A    between atoms: C_10  and  C_12 
REMARK    4  A    between atoms: C_12  and  N_14 
REMARK       I    between atoms: N_14  and  C_15 
REMARK    5  A    between atoms: C_15  and  C_17 
ROOT
ATOM      1  C   UNL d   1      27.496 -14.472   0.379  0.00  0.00     0.173 C 
ATOM      2  C   UNL d   1      28.859 -15.127   0.267  0.00  0.00     0.042 C 
ENDROOT
BRANCH   1   3
ATOM      3  C   UNL d   1      27.397 -13.914   1.809  0.00  0.00     0.244 C 
ATOM      4  N   UNL d   1      28.307 -14.355   2.762  0.00  0.00    -0.324 N 
ATOM      5  H   UNL d   1      28.826 -15.202   2.548  0.00  0.00     0.169 HD
ATOM      6  O   UNL d   1      26.434 -13.174   2.029  0.00  0.00    -0.271 OA
BRANCH   4   7
ATOM      7  C   UNL d   1      28.378 -13.899   4.126  0.00  0.00     0.051 C 
ATOM      8  C   UNL d   1      28.846 -14.826   5.094  0.00  0.00     0.031 C 
ATOM      9  C   UNL d   1      28.916 -14.490   6.460  0.00  0.00     0.002 C 
ATOM     10  C   UNL d   1      28.464 -13.256   6.897  0.00  0.00     0.002 C 
ATOM     11  C   UNL d   1      27.965 -12.352   5.973  0.00  0.00     0.021 C 
ATOM     12  C   UNL d   1      28.022 -12.607   4.592  0.00  0.00     0.026 C 
BRANCH  12  13
ATOM     13  S   UNL d   1      27.783 -11.066   3.691  0.00  0.00    -0.132 SA
ATOM     14  C   UNL d   1      28.443  -9.869   4.875  0.00  0.00     0.095 C 
ENDBRANCH  12  13
ENDBRANCH   4   7
ENDBRANCH   1   3
BRANCH   1  15
ATOM     15  N   UNL d   1      26.420 -15.478   0.269  0.00  0.00    -0.344 N 
ATOM     16  C   UNL d   1      25.651 -15.687  -0.843  0.00  0.00     0.254 C 
ATOM     17  O   UNL d   1      25.792 -15.056  -1.889  0.00  0.00    -0.268 OA
ATOM     18  H   UNL d   1      26.291 -16.064   1.096  0.00  0.00     0.163 HD
BRANCH  16  19
ATOM     19  C   UNL d   1      24.606 -16.745  -0.777  0.00  0.00     0.053 A 
ATOM     20  C   UNL d   1      23.285 -16.384  -1.112  0.00  0.00     0.019 A 
ATOM     21  C   UNL d   1      22.226 -17.272  -0.894  0.00  0.00     0.001 A 
ATOM     22  C   UNL d   1      22.482 -18.545  -0.390  0.00  0.00     0.002 A 
ATOM     23  C   UNL d   1      23.789 -18.918  -0.079  0.00  0.00     0.025 A 
ATOM     24  C   UNL d   1      24.852 -18.024  -0.265  0.00  0.00     0.049 A 
ATOM     25 CL   UNL d   1      26.417 -18.569   0.225  0.00  0.00    -0.083 Cl
ENDBRANCH  16  19
ENDBRANCH   1  15
TORSDOF 5
ENDMDL
MODEL 3
REMARK VINA RESULT:    -7.500      2.044      2.902
REMARK INTER + INTRA:         -10.954
REMARK INTER:                  -8.992
REMARK INTRA:                  -1.962
REMARK CONF_INDEPENDENT:        1.492
REMARK UNBOUND:                -1.962
REMARK  5 active torsions:
REMARK  status: ('A' for Active; 'I' for Inactive)
REMARK    1  A    between atoms: S_2  and  C_3 
REMARK    2  A    between atoms: C_8  and  N_9 
REMARK       I    between atoms: N_9  and  C_10 
REMARK    3  A    between atoms: C_10  and  C_12 
REMARK    4  A    between atoms: C_12  and  N_14 
REMARK       I    between atoms: N_14  and  C_15 
REMARK    5  A    between atoms: C_15  and  C_17 
ROOT
ATOM      1  C   UNL d   1      25.723 -13.263  -3.913  0.00  0.00     0.173 C 
ATOM      2  C   UNL d   1      25.679 -11.806  -3.492  0.00  0.00     0.042 C 
ENDROOT
BRANCH   1   3
ATOM      3  C   UNL d   1      25.827 -14.087  -2.620  0.00  0.00     0.244 C 
ATOM      4  N   UNL d   1      25.718 -15.471  -2.700  0.00  0.00    -0.324 N 
ATOM      5  H   UNL d   1      25.324 -15.854  -3.554  0.00  0.00     0.169 HD
ATOM      6  O   UNL d   1      25.904 -13.436  -1.574  0.00  0.00    -0.271 OA
BRANCH   4   7
ATOM      7  C   UNL d   1      25.837 -16.385  -1.594  0.00  0.00     0.051 C 
ATOM      8  C   UNL d   1      27.148 -16.684  -1.140  0.00  0.00     0.031 C 
ATOM      9  C   UNL d   1      27.374 -17.595  -0.090  0.00  0.00     0.002 C 
ATOM     10  C   UNL d   1      26.310 -18.273   0.483  0.00  0.00     0.002 C 
ATOM     11  C   UNL d   1      25.026 -18.026   0.025  0.00  0.00     0.021 C 
ATOM     12  C   UNL d   1      24.762 -17.016  -0.916  0.00  0.00     0.026 C 
BRANCH  12  13
ATOM     13  S   UNL d   1      23.004 -16.624  -0.894  0.00  0.00    -0.132 SA
ATOM     14  C   UNL d   1      22.283 -18.283  -0.890  0.00  0.00     0.095 C 
ENDBRANCH  12  13
ENDBRANCH   4   7
ENDBRANCH   1   3
BRANCH   1  15
ATOM     15  N   UNL d   1      26.958 -13.552  -4.670  0.00  0.00    -0.344 N 
ATOM     16  C   UNL d   1      27.203 -14.707  -5.362  0.00  0.00     0.254 C 
ATOM     17  O   UNL d   1      26.396 -15.633  -5.437  0.00  0.00    -0.268 OA
ATOM     18  H   UNL d   1      27.645 -12.796  -4.680  0.00  0.00     0.163 HD
BRANCH  16  19
ATOM     19  C   UNL d   1      28.508 -14.832  -6.068  0.00  0.00     0.053 A 
ATOM     20  C   UNL d   1      29.311 -15.950  -5.768  0.00  0.00     0.019 A 
ATOM     21  C   UNL d   1      30.622 -16.036  -6.250  0.00  0.00     0.001 A 
ATOM     22  C   UNL d   1      31.124 -15.033  -7.075  0.00  0.00     0.002 A 
ATOM     23  C   UNL d   1      30.327 -13.935  -7.396  0.00  0.00     0.025 A 
ATOM     24  C   UNL d   1      29.023 -13.826  -6.893  0.00  0.00     0.049 A 
ATOM     25 CL   UNL d   1      28.155 -12.386  -7.296  0.00  0.00    -0.083 Cl
ENDBRANCH  16  19
ENDBRANCH   1  15
TORSDOF 5
ENDMDL
MODEL 4
REMARK VINA RESULT:    -7.174      2.417      7.190
REMARK INTER + INTRA:         -10.261
REMARK INTER:                  -8.665
REMARK INTRA:                  -1.596
REMARK CONF_INDEPENDENT:        1.492
REMARK UNBOUND:                -1.596
REMARK  5 active torsions:
REMARK  status: ('A' for Active; 'I' for Inactive)
REMARK    1  A    between atoms: S_2  and  C_3 
REMARK    2  A    between atoms: C_8  and  N_9 
REMARK       I    between atoms: N_9  and  C_10 
REMARK    3  A    between atoms: C_10  and  C_12 
REMARK    4  A    between atoms: C_12  and  N_14 
REMARK       I    between atoms: N_14  and  C_15 
REMARK    5  A    between atoms: C_15  and  C_17 
ROOT
ATOM      1  C   UNL d   1      26.729 -14.279  -3.588  0.00  0.00     0.173 C 
ATOM      2  C   UNL d   1      25.853 -13.248  -4.274  0.00  0.00     0.042 C 
ENDROOT
BRANCH   1   3
ATOM      3  C   UNL d   1      27.510 -14.996  -4.701  0.00  0.00     0.244 C 
ATOM      4  N   UNL d   1      28.893 -14.858  -4.742  0.00  0.00    -0.324 N 
ATOM      5  H   UNL d   1      29.297 -14.097  -4.204  0.00  0.00     0.169 HD
ATOM      6  O   UNL d   1      26.825 -15.575  -5.548  0.00  0.00    -0.271 OA
BRANCH   4   7
ATOM      7  C   UNL d   1      29.771 -15.497  -5.687  0.00  0.00     0.051 C 
ATOM      8  C   UNL d   1      29.916 -16.906  -5.585  0.00  0.00     0.031 C 
ATOM      9  C   UNL d   1      30.780 -17.620  -6.437  0.00  0.00     0.002 C 
ATOM     10  C   UNL d   1      31.560 -16.944  -7.361  0.00  0.00     0.002 C 
ATOM     11  C   UNL d   1      31.464 -15.565  -7.448  0.00  0.00     0.021 C 
ATOM     12  C   UNL d   1      30.504 -14.848  -6.714  0.00  0.00     0.026 C 
BRANCH  12  13
ATOM     13  S   UNL d   1      30.307 -13.208  -7.431  0.00  0.00    -0.132 SA
ATOM     14  C   UNL d   1      28.510 -13.016  -7.362  0.00  0.00     0.095 C 
ENDBRANCH  12  13
ENDBRANCH   4   7
ENDBRANCH   1   3
BRANCH   1  15
ATOM     15  N   UNL d   1      25.905 -15.322  -2.944  0.00  0.00    -0.344 N 
ATOM     16  C   UNL d   1      25.610 -15.377  -1.608  0.00  0.00     0.254 C 
ATOM     17  O   UNL d   1      25.997 -14.538  -0.797  0.00  0.00    -0.268 OA
ATOM     18  H   UNL d   1      25.519 -16.021  -3.581  0.00  0.00     0.163 HD
BRANCH  16  19
ATOM     19  C   UNL d   1      24.765 -16.505  -1.129  0.00  0.00     0.053 A 
ATOM     20  C   UNL d   1      23.369 -16.384  -1.270  0.00  0.00     0.019 A 
ATOM     21  C   UNL d   1      22.509 -17.315  -0.677  0.00  0.00     0.001 A 
ATOM     22  C   UNL d   1      23.036 -18.402   0.016  0.00  0.00     0.002 A 
ATOM     23  C   UNL d   1      24.418 -18.542   0.139  0.00  0.00     0.025 A 
ATOM     24  C   UNL d   1      25.286 -17.597  -0.425  0.00  0.00     0.049 A 
ATOM     25 CL   UNL d   1      26.976 -17.832  -0.145  0.00  0.00    -0.083 Cl
ENDBRANCH  16  19
ENDBRANCH   1  15
TORSDOF 5
ENDMDL
MODEL 5
REMARK VINA RESULT:    -7.130      1.803      6.972
REMARK INTER + INTRA:         -10.250
REMARK INTER:                  -8.621
REMARK INTRA:                  -1.629
REMARK CONF_INDEPENDENT:        1.492
REMARK UNBOUND:                -1.629
REMARK  5 active torsions:
REMARK  status: ('A' for Active; 'I' for Inactive)
REMARK    1  A    between atoms: S_2  and  C_3 
REMARK    2  A    between atoms: C_8  and  N_9 
REMARK       I    between atoms: N_9  and  C_10 
REMARK    3  A    between atoms: C_10  and  C_12 
REMARK    4  A    between atoms: C_12  and  N_14 
REMARK       I    between atoms: N_14  and  C_15 
REMARK    5  A    between atoms: C_15  and  C_17 
ROOT
ATOM      1  C   UNL d   1      26.591 -14.126  -3.577  0.00  0.00     0.173 C 
ATOM      2  C   UNL d   1      25.660 -13.183  -4.315  0.00  0.00     0.042 C 
ENDROOT
BRANCH   1   3
ATOM      3  C   UNL d   1      27.466 -14.800  -4.647  0.00  0.00     0.244 C 
ATOM      4  N   UNL d   1      28.799 -14.420  -4.756  0.00  0.00    -0.324 N 
ATOM      5  H   UNL d   1      29.069 -13.548  -4.309  0.00  0.00     0.169 HD
ATOM      6  O   UNL d   1      26.880 -15.575  -5.408  0.00  0.00    -0.271 OA
BRANCH   4   7
ATOM      7  C   UNL d   1      29.758 -14.983  -5.670  0.00  0.00     0.051 C 
ATOM      8  C   UNL d   1      30.332 -14.106  -6.627  0.00  0.00     0.031 C 
ATOM      9  C   UNL d   1      31.251 -14.567  -7.590  0.00  0.00     0.002 C 
ATOM     10  C   UNL d   1      31.567 -15.914  -7.660  0.00  0.00     0.002 C 
ATOM     11  C   UNL d   1      30.985 -16.794  -6.762  0.00  0.00     0.021 C 
ATOM     12  C   UNL d   1      30.183 -16.337  -5.702  0.00  0.00     0.026 C 
BRANCH  12  13
ATOM     13  S   UNL d   1      30.029 -17.638  -4.466  0.00  0.00    -0.132 SA
ATOM     14  C   UNL d   1      30.587 -19.076  -5.410  0.00  0.00     0.095 C 
ENDBRANCH  12  13
ENDBRANCH   4   7
ENDBRANCH   1   3
BRANCH   1  15
ATOM     15  N   UNL d   1      25.832 -15.219  -2.938  0.00  0.00    -0.344 N 
ATOM     16  C   UNL d   1      25.554 -15.306  -1.600  0.00  0.00     0.254 C 
ATOM     17  O   UNL d   1      25.905 -14.457  -0.783  0.00  0.00    -0.268 OA
ATOM     18  H   UNL d   1      25.476 -15.930  -3.579  0.00  0.00     0.163 HD
BRANCH  16  19
ATOM     19  C   UNL d   1      24.776 -16.483  -1.126  0.00  0.00     0.053 A 
ATOM     20  C   UNL d   1      23.375 -16.443  -1.269  0.00  0.00     0.019 A 
ATOM     21  C   UNL d   1      22.571 -17.426  -0.681  0.00  0.00     0.001 A 
ATOM     22  C   UNL d   1      23.160 -18.482   0.009  0.00  0.00     0.002 A 
ATOM     23  C   UNL d   1      24.547 -18.541   0.134  0.00  0.00     0.025 A 
ATOM     24  C   UNL d   1      25.359 -17.545  -0.425  0.00  0.00     0.049 A 
ATOM     25 CL   UNL d   1      27.059 -17.682  -0.143  0.00  0.00    -0.083 Cl
ENDBRANCH  16  19
ENDBRANCH   1  15
TORSDOF 5
ENDMDL
MODEL 6
REMARK VINA RESULT:    -7.038      1.641      1.952
REMARK INTER + INTRA:         -10.696
REMARK INTER:                  -8.530
REMARK INTRA:                  -2.166
REMARK CONF_INDEPENDENT:        1.492
REMARK UNBOUND:                -2.166
REMARK  5 active torsions:
REMARK  status: ('A' for Active; 'I' for Inactive)
REMARK    1  A    between atoms: S_2  and  C_3 
REMARK    2  A    between atoms: C_8  and  N_9 
REMARK       I    between atoms: N_9  and  C_10 
REMARK    3  A    between atoms: C_10  and  C_12 
REMARK    4  A    between atoms: C_12  and  N_14 
REMARK       I    between atoms: N_14  and  C_15 
REMARK    5  A    between atoms: C_15  and  C_17 
ROOT
ATOM      1  C   UNL d   1      25.939 -13.187  -3.999  0.00  0.00     0.173 C 
ATOM      2  C   UNL d   1      26.075 -11.760  -3.502  0.00  0.00     0.042 C 
ENDROOT
BRANCH   1   3
ATOM      3  C   UNL d   1      25.773 -14.069  -2.751  0.00  0.00     0.244 C 
ATOM      4  N   UNL d   1      25.467 -15.414  -2.920  0.00  0.00    -0.324 N 
ATOM      5  H   UNL d   1      25.117 -15.698  -3.831  0.00  0.00     0.169 HD
ATOM      6  O   UNL d   1      25.831 -13.481  -1.667  0.00  0.00    -0.271 OA
BRANCH   4   7
ATOM      7  C   UNL d   1      25.323 -16.380  -1.861  0.00  0.00     0.051 C 
ATOM      8  C   UNL d   1      24.026 -16.915  -1.645  0.00  0.00     0.031 C 
ATOM      9  C   UNL d   1      23.774 -17.837  -0.611  0.00  0.00     0.002 C 
ATOM     10  C   UNL d   1      24.787 -18.194   0.265  0.00  0.00     0.002 C 
ATOM     11  C   UNL d   1      26.050 -17.651   0.096  0.00  0.00     0.021 C 
ATOM     12  C   UNL d   1      26.361 -16.847  -1.014  0.00  0.00     0.026 C 
BRANCH  12  13
ATOM     13  S   UNL d   1      28.151 -16.749  -1.196  0.00  0.00    -0.132 SA
ATOM     14  C   UNL d   1      28.582 -15.698   0.211  0.00  0.00     0.095 C 
ENDBRANCH  12  13
ENDBRANCH   4   7
ENDBRANCH   1   3
BRANCH   1  15
ATOM     15  N   UNL d   1      27.189 -13.640  -4.643  0.00  0.00    -0.344 N 
ATOM     16  C   UNL d   1      27.326 -14.793  -5.368  0.00  0.00     0.254 C 
ATOM     17  O   UNL d   1      26.400 -15.576  -5.571  0.00  0.00    -0.268 OA
ATOM     18  H   UNL d   1      27.980 -13.002  -4.544  0.00  0.00     0.163 HD
BRANCH  16  19
ATOM     19  C   UNL d   1      28.664 -15.095  -5.945  0.00  0.00     0.053 A 
ATOM     20  C   UNL d   1      29.382 -16.180  -5.403  0.00  0.00     0.019 A 
ATOM     21  C   UNL d   1      30.714 -16.406  -5.767  0.00  0.00     0.001 A 
ATOM     22  C   UNL d   1      31.324 -15.584  -6.711  0.00  0.00     0.002 A 
ATOM     23  C   UNL d   1      30.613 -14.523  -7.270  0.00  0.00     0.025 A 
ATOM     24  C   UNL d   1      29.288 -14.270  -6.889  0.00  0.00     0.049 A 
ATOM     25 CL   UNL d   1      28.530 -12.884  -7.591  0.00  0.00    -0.083 Cl
ENDBRANCH  16  19
ENDBRANCH   1  15
TORSDOF 5
ENDMDL
MODEL 7
REMARK VINA RESULT:    -6.870      4.015      7.005
REMARK INTER + INTRA:         -10.313
REMARK INTER:                  -8.362
REMARK INTRA:                  -1.951
REMARK CONF_INDEPENDENT:        1.492
REMARK UNBOUND:                -1.951
REMARK  5 active torsions:
REMARK  status: ('A' for Active; 'I' for Inactive)
REMARK    1  A    between atoms: S_2  and  C_3 
REMARK    2  A    between atoms: C_8  and  N_9 
REMARK       I    between atoms: N_9  and  C_10 
REMARK    3  A    between atoms: C_10  and  C_12 
REMARK    4  A    between atoms: C_12  and  N_14 
REMARK       I    between atoms: N_14  and  C_15 
REMARK    5  A    between atoms: C_15  and  C_17 
ROOT
ATOM      1  C   UNL d   1      29.539 -15.466  -0.018  0.00  0.00     0.173 C 
ATOM      2  C   UNL d   1      29.406 -14.307  -0.988  0.00  0.00     0.042 C 
ENDROOT
BRANCH   1   3
ATOM      3  C   UNL d   1      28.377 -16.425  -0.323  0.00  0.00     0.244 C 
ATOM      4  N   UNL d   1      27.074 -15.963  -0.176  0.00  0.00    -0.324 N 
ATOM      5  H   UNL d   1      26.944 -15.111   0.364  0.00  0.00     0.169 HD
ATOM      6  O   UNL d   1      28.697 -17.587  -0.587  0.00  0.00    -0.271 OA
BRANCH   4   7
ATOM      7  C   UNL d   1      25.881 -16.716  -0.463  0.00  0.00     0.051 C 
ATOM      8  C   UNL d   1      25.540 -17.756   0.442  0.00  0.00     0.031 C 
ATOM      9  C   UNL d   1      24.414 -18.575   0.230  0.00  0.00     0.002 C 
ATOM     10  C   UNL d   1      23.646 -18.420  -0.913  0.00  0.00     0.002 C 
ATOM     11  C   UNL d   1      23.987 -17.437  -1.828  0.00  0.00     0.021 C 
ATOM     12  C   UNL d   1      25.013 -16.514  -1.567  0.00  0.00     0.026 C 
BRANCH  12  13
ATOM     13  S   UNL d   1      24.849 -15.108  -2.680  0.00  0.00    -0.132 SA
ATOM     14  C   UNL d   1      26.412 -15.200  -3.584  0.00  0.00     0.095 C 
ENDBRANCH  12  13
ENDBRANCH   4   7
ENDBRANCH   1   3
BRANCH   1  15
ATOM     15  N   UNL d   1      29.328 -15.013   1.372  0.00  0.00    -0.344 N 
ATOM     16  C   UNL d   1      28.368 -14.122   1.770  0.00  0.00     0.254 C 
ATOM     17  O   UNL d   1      27.561 -13.609   0.997  0.00  0.00    -0.268 OA
ATOM     18  H   UNL d   1      29.943 -15.444   2.064  0.00  0.00     0.163 HD
BRANCH  16  19
ATOM     19  C   UNL d   1      28.300 -13.774   3.216  0.00  0.00     0.053 A 
ATOM     20  C   UNL d   1      28.412 -14.825   4.148  0.00  0.00     0.019 A 
ATOM     21  C   UNL d   1      28.171 -14.599   5.509  0.00  0.00     0.001 A 
ATOM     22  C   UNL d   1      27.869 -13.316   5.956  0.00  0.00     0.002 A 
ATOM     23  C   UNL d   1      27.781 -12.266   5.042  0.00  0.00     0.025 A 
ATOM     24  C   UNL d   1      27.989 -12.488   3.674  0.00  0.00     0.049 A 
ATOM     25 CL   UNL d   1      27.780 -11.129   2.627  0.00  0.00    -0.083 Cl
ENDBRANCH  16  19
ENDBRANCH   1  15
TORSDOF 5
ENDMDL
MODEL 8
REMARK VINA RESULT:    -6.818      2.605      3.798
REMARK INTER + INTRA:         -10.317
REMARK INTER:                  -8.309
REMARK INTRA:                  -2.008
REMARK CONF_INDEPENDENT:        1.492
REMARK UNBOUND:                -2.008
REMARK  5 active torsions:
REMARK  status: ('A' for Active; 'I' for Inactive)
REMARK    1  A    between atoms: S_2  and  C_3 
REMARK    2  A    between atoms: C_8  and  N_9 
REMARK       I    between atoms: N_9  and  C_10 
REMARK    3  A    between atoms: C_10  and  C_12 
REMARK    4  A    between atoms: C_12  and  N_14 
REMARK       I    between atoms: N_14  and  C_15 
REMARK    5  A    between atoms: C_15  and  C_17 
ROOT
ATOM      1  C   UNL d   1      28.895 -14.370  -6.090  0.00  0.00     0.173 C 
ATOM      2  C   UNL d   1      29.841 -13.621  -5.170  0.00  0.00     0.042 C 
ENDROOT
BRANCH   1   3
ATOM      3  C   UNL d   1      27.759 -14.906  -5.203  0.00  0.00     0.244 C 
ATOM      4  N   UNL d   1      28.011 -15.120  -3.853  0.00  0.00    -0.324 N 
ATOM      5  H   UNL d   1      28.985 -15.160  -3.565  0.00  0.00     0.169 HD
ATOM      6  O   UNL d   1      26.716 -15.203  -5.791  0.00  0.00    -0.271 OA
BRANCH   4   7
ATOM      7  C   UNL d   1      27.048 -15.574  -2.883  0.00  0.00     0.051 C 
ATOM      8  C   UNL d   1      27.537 -16.357  -1.804  0.00  0.00     0.031 C 
ATOM      9  C   UNL d   1      26.671 -16.881  -0.825  0.00  0.00     0.002 C 
ATOM     10  C   UNL d   1      25.303 -16.692  -0.933  0.00  0.00     0.002 C 
ATOM     11  C   UNL d   1      24.803 -15.965  -2.001  0.00  0.00     0.021 C 
ATOM     12  C   UNL d   1      25.654 -15.310  -2.907  0.00  0.00     0.026 C 
BRANCH  12  13
ATOM     13  S   UNL d   1      24.716 -14.075  -3.822  0.00  0.00    -0.132 SA
ATOM     14  C   UNL d   1      25.770 -12.620  -3.614  0.00  0.00     0.095 C 
ENDBRANCH  12  13
ENDBRANCH   4   7
ENDBRANCH   1   3
BRANCH   1  15
ATOM     15  N   UNL d   1      29.552 -15.563  -6.660  0.00  0.00    -0.344 N 
ATOM     16  C   UNL d   1      30.131 -16.566  -5.930  0.00  0.00     0.254 C 
ATOM     17  O   UNL d   1      30.149 -16.581  -4.701  0.00  0.00    -0.268 OA
ATOM     18  H   UNL d   1      29.525 -15.625  -7.680  0.00  0.00     0.163 HD
BRANCH  16  19
ATOM     19  C   UNL d   1      30.753 -17.696  -6.673  0.00  0.00     0.053 A 
ATOM     20  C   UNL d   1      30.405 -19.005  -6.285  0.00  0.00     0.019 A 
ATOM     21  C   UNL d   1      31.087 -20.109  -6.810  0.00  0.00     0.001 A 
ATOM     22  C   UNL d   1      32.084 -19.919  -7.763  0.00  0.00     0.002 A 
ATOM     23  C   UNL d   1      32.417 -18.627  -8.170  0.00  0.00     0.025 A 
ATOM     24  C   UNL d   1      31.761 -17.514  -7.627  0.00  0.00     0.049 A 
ATOM     25 CL   UNL d   1      32.308 -15.960  -8.150  0.00  0.00    -0.083 Cl
ENDBRANCH  16  19
ENDBRANCH   1  15
TORSDOF 5
ENDMDL
MODEL 9
REMARK VINA RESULT:    -6.499      3.202      7.192
REMARK INTER + INTRA:          -9.919
REMARK INTER:                  -7.991
REMARK INTRA:                  -1.928
REMARK CONF_INDEPENDENT:        1.492
REMARK UNBOUND:                -1.928
REMARK  5 active torsions:
REMARK  status: ('A' for Active; 'I' for Inactive)
REMARK    1  A    between atoms: S_2  and  C_3 
REMARK    2  A    between atoms: C_8  and  N_9 
REMARK       I    between atoms: N_9  and  C_10 
REMARK    3  A    between atoms: C_10  and  C_12 
REMARK    4  A    between atoms: C_12  and  N_14 
REMARK       I    between atoms: N_14  and  C_15 
REMARK    5  A    between atoms: C_15  and  C_17 
ROOT
ATOM      1  C   UNL d   1      30.782 -17.507  -1.042  0.00  0.00     0.173 C 
ATOM      2  C   UNL d   1      31.231 -16.073  -1.254  0.00  0.00     0.042 C 
ENDROOT
BRANCH   1   3
ATOM      3  C   UNL d   1      30.931 -18.215  -2.398  0.00  0.00     0.244 C 
ATOM      4  N   UNL d   1      30.373 -17.624  -3.525  0.00  0.00    -0.324 N 
ATOM      5  H   UNL d   1      29.681 -16.895  -3.370  0.00  0.00     0.169 HD
ATOM      6  O   UNL d   1      31.464 -19.328  -2.365  0.00  0.00    -0.271 OA
BRANCH   4   7
ATOM      7  C   UNL d   1      30.461 -18.133  -4.869  0.00  0.00     0.051 C 
ATOM      8  C   UNL d   1      30.466 -19.544  -5.027  0.00  0.00     0.031 C 
ATOM      9  C   UNL d   1      30.588 -20.141  -6.297  0.00  0.00     0.002 C 
ATOM     10  C   UNL d   1      30.771 -19.353  -7.421  0.00  0.00     0.002 C 
ATOM     11  C   UNL d   1      30.811 -17.976  -7.283  0.00  0.00     0.021 C 
ATOM     12  C   UNL d   1      30.545 -17.353  -6.052  0.00  0.00     0.026 C 
BRANCH  12  13
ATOM     13  S   UNL d   1      30.173 -15.613  -6.331  0.00  0.00    -0.132 SA
ATOM     14  C   UNL d   1      28.689 -15.412  -5.317  0.00  0.00     0.095 C 
ENDBRANCH  12  13
ENDBRANCH   4   7
ENDBRANCH   1   3
BRANCH   1  15
ATOM     15  N   UNL d   1      29.342 -17.563  -0.719  0.00  0.00    -0.344 N 
ATOM     16  C   UNL d   1      28.365 -16.847  -1.357  0.00  0.00     0.254 C 
ATOM     17  O   UNL d   1      28.592 -16.080  -2.291  0.00  0.00    -0.268 OA
ATOM     18  H   UNL d   1      29.091 -18.221   0.020  0.00  0.00     0.163 HD
BRANCH  16  19
ATOM     19  C   UNL d   1      26.961 -17.025  -0.897  0.00  0.00     0.053 A 
ATOM     20  C   UNL d   1      26.738 -17.840   0.230  0.00  0.00     0.019 A 
ATOM     21  C   UNL d   1      25.439 -18.200   0.604  0.00  0.00     0.001 A 
ATOM     22  C   UNL d   1      24.350 -17.710  -0.112  0.00  0.00     0.002 A 
ATOM     23  C   UNL d   1      24.561 -16.883  -1.215  0.00  0.00     0.025 A 
ATOM     24  C   UNL d   1      25.860 -16.542  -1.615  0.00  0.00     0.049 A 
ATOM     25 CL   UNL d   1      26.003 -15.573  -3.040  0.00  0.00    -0.083 Cl
ENDBRANCH  16  19
ENDBRANCH   1  15
TORSDOF 5
ENDMDL
