MODEL 1
REMARK VINA RESULT:    -8.494      0.000      0.000
REMARK INTER + INTRA:         -10.001
REMARK INTER:                  -9.389
REMARK INTRA:                  -0.612
REMARK CONF_INDEPENDENT:        0.895
REMARK UNBOUND:                -0.612
REMARK  3 active torsions:
REMARK  status: ('A' for Active; 'I' for Inactive)
REMARK       I    between atoms: C_2  and  N_3 
REMARK    1  A    between atoms: C_2  and  C_16 
REMARK    2  A    between atoms: N_3  and  N_4 
REMARK    3  A    between atoms: N_4  and  C_5 
ROOT
ATOM      1  O   UNL d   1      25.263 -15.112  -4.548  0.00  0.00    -0.264 OA
ATOM      2  C   UNL d   1      26.384 -14.777  -4.156  0.00  0.00     0.288 C 
ATOM      3  N   UNL d   1      26.733 -14.771  -2.804  0.00  0.00    -0.264 N 
ATOM      4  H   UNL d   1      27.626 -14.429  -2.466  0.00  0.00     0.190 HD
ENDROOT
BRANCH   3   5
ATOM      5  N   UNL d   1      25.741 -15.059  -1.853  0.00  0.00    -0.297 N 
ATOM      6  H   UNL d   1      24.953 -14.413  -1.790  0.00  0.00     0.187 HD
BRANCH   5   7
ATOM      7  C   UNL d   1      25.739 -16.288  -1.162  0.00  0.00     0.062 A 
ATOM      8  C   UNL d   1      26.959 -16.831  -0.742  0.00  0.00     0.051 A 
ATOM      9  C   UNL d   1      26.960 -18.013  -0.017  0.00  0.00     0.119 A 
ATOM     10  N   UNL d   1      25.846 -18.696   0.312  0.00  0.00    -0.260 NA
ATOM     11  C   UNL d   1      24.667 -18.202  -0.091  0.00  0.00     0.070 A 
ATOM     12  C   UNL d   1      23.513 -18.909   0.230  0.00  0.00     0.056 A 
ATOM     13  C   UNL d   1      24.556 -16.996  -0.832  0.00  0.00     0.021 A 
ATOM     14  C   UNL d   1      22.256 -18.448  -0.156  0.00  0.00     0.036 A 
ATOM     15 CL   UNL d   1      20.840 -19.324   0.270  0.00  0.00    -0.084 Cl
ATOM     16  C   UNL d   1      22.132 -17.285  -0.896  0.00  0.00     0.025 A 
ATOM     17  C   UNL d   1      23.276 -16.584  -1.254  0.00  0.00     0.018 A 
ENDBRANCH   5   7
ENDBRANCH   3   5
BRANCH   2  18
ATOM     18  C   UNL d   1      27.465 -14.372  -5.133  0.00  0.00     0.126 A 
ATOM     19  C   UNL d   1      27.502 -13.082  -5.644  0.00  0.00     0.038 A 
ATOM     20  C   UNL d   1      28.548 -12.737  -6.499  0.00  0.00     0.016 A 
ATOM     21  C   UNL d   1      29.528 -13.682  -6.833  0.00  0.00    -0.007 A 
ATOM     22  C   UNL d   1      30.593 -13.368  -7.702  0.00  0.00     0.014 A 
ATOM     23  C   UNL d   1      29.418 -14.971  -6.266  0.00  0.00     0.068 A 
ATOM     24  C   UNL d   1      31.554 -14.326  -8.022  0.00  0.00     0.001 A 
ATOM     25  C   UNL d   1      31.460 -15.594  -7.465  0.00  0.00     0.002 A 
ATOM     26  C   UNL d   1      30.402 -15.900  -6.598  0.00  0.00     0.032 A 
ATOM     27  N   UNL d   1      28.407 -15.308  -5.433  0.00  0.00    -0.243 NA
ENDBRANCH   2  18
TORSDOF 3
ENDMDL
MODEL 2
REMARK VINA RESULT:    -8.453      4.340      9.412
REMARK INTER + INTRA:          -9.870
REMARK INTER:                  -9.348
REMARK INTRA:                  -0.522
REMARK CONF_INDEPENDENT:        0.895
REMARK UNBOUND:                -0.522
REMARK  3 active torsions:
REMARK  status: ('A' for Active; 'I' for Inactive)
REMARK       I    between atoms: C_2  and  N_3 
REMARK    1  A    between atoms: C_2  and  C_16 
REMARK    2  A    between atoms: N_3  and  N_4 
REMARK    3  A    between atoms: N_4  and  C_5 
ROOT
ATOM      1  O   UNL d   1      23.576 -16.305  -0.145  0.00  0.00    -0.264 OA
ATOM      2  C   UNL d   1      23.542 -17.532  -0.278  0.00  0.00     0.288 C 
ATOM      3  N   UNL d   1      24.695 -18.296  -0.471  0.00  0.00    -0.264 N 
ATOM      4  H   UNL d   1      24.672 -19.294  -0.653  0.00  0.00     0.190 HD
ENDROOT
BRANCH   3   5
ATOM      5  N   UNL d   1      25.923 -17.632  -0.622  0.00  0.00    -0.297 N 
ATOM      6  H   UNL d   1      26.766 -18.142  -0.353  0.00  0.00     0.187 HD
BRANCH   5   7
ATOM      7  C   UNL d   1      25.997 -16.399  -1.301  0.00  0.00     0.062 A 
ATOM      8  C   UNL d   1      25.542 -16.324  -2.623  0.00  0.00     0.051 A 
ATOM      9  C   UNL d   1      25.564 -15.103  -3.279  0.00  0.00     0.119 A 
ATOM     10  N   UNL d   1      26.011 -13.958  -2.725  0.00  0.00    -0.260 NA
ATOM     11  C   UNL d   1      26.463 -14.008  -1.465  0.00  0.00     0.070 A 
ATOM     12  C   UNL d   1      26.941 -12.835  -0.891  0.00  0.00     0.056 A 
ATOM     13  C   UNL d   1      26.478 -15.207  -0.704  0.00  0.00     0.021 A 
ATOM     14  C   UNL d   1      27.423 -12.817   0.416  0.00  0.00     0.036 A 
ATOM     15 CL   UNL d   1      27.987 -11.352   1.116  0.00  0.00    -0.084 Cl
ATOM     16  C   UNL d   1      27.462 -13.982   1.165  0.00  0.00     0.025 A 
ATOM     17  C   UNL d   1      27.020 -15.169   0.597  0.00  0.00     0.018 A 
ENDBRANCH   5   7
ENDBRANCH   3   5
BRANCH   2  18
ATOM     18  C   UNL d   1      22.235 -18.290  -0.212  0.00  0.00     0.126 A 
ATOM     19  C   UNL d   1      21.576 -18.656  -1.378  0.00  0.00     0.038 A 
ATOM     20  C   UNL d   1      20.402 -19.400  -1.270  0.00  0.00     0.016 A 
ATOM     21  C   UNL d   1      19.906 -19.757  -0.009  0.00  0.00    -0.007 A 
ATOM     22  C   UNL d   1      18.716 -20.501   0.134  0.00  0.00     0.014 A 
ATOM     23  C   UNL d   1      20.638 -19.347   1.126  0.00  0.00     0.068 A 
ATOM     24  C   UNL d   1      18.240 -20.842   1.399  0.00  0.00     0.001 A 
ATOM     25  C   UNL d   1      18.956 -20.450   2.522  0.00  0.00     0.002 A 
ATOM     26  C   UNL d   1      20.140 -19.714   2.374  0.00  0.00     0.032 A 
ATOM     27  N   UNL d   1      21.780 -18.628   1.026  0.00  0.00    -0.243 NA
ENDBRANCH   2  18
TORSDOF 3
ENDMDL
MODEL 3
REMARK VINA RESULT:    -8.413      4.702      7.845
REMARK INTER + INTRA:         -10.174
REMARK INTER:                  -9.308
REMARK INTRA:                  -0.866
REMARK CONF_INDEPENDENT:        0.895
REMARK UNBOUND:                -0.866
REMARK  3 active torsions:
REMARK  status: ('A' for Active; 'I' for Inactive)
REMARK       I    between atoms: C_2  and  N_3 
REMARK    1  A    between atoms: C_2  and  C_16 
REMARK    2  A    between atoms: N_3  and  N_4 
REMARK    3  A    between atoms: N_4  and  C_5 
ROOT
ATOM      1  O   UNL d   1      27.333 -13.878  -0.049  0.00  0.00    -0.264 OA
ATOM      2  C   UNL d   1      27.888 -14.427   0.906  0.00  0.00     0.288 C 
ATOM      3  N   UNL d   1      28.541 -15.656   0.787  0.00  0.00    -0.264 N 
ATOM      4  H   UNL d   1      28.937 -16.150   1.580  0.00  0.00     0.190 HD
ENDROOT
BRANCH   3   5
ATOM      5  N   UNL d   1      28.473 -16.336  -0.439  0.00  0.00    -0.297 N 
ATOM      6  H   UNL d   1      29.205 -17.020  -0.635  0.00  0.00     0.187 HD
BRANCH   5   7
ATOM      7  C   UNL d   1      27.338 -16.219  -1.267  0.00  0.00     0.062 A 
ATOM      8  C   UNL d   1      27.434 -15.474  -2.449  0.00  0.00     0.051 A 
ATOM      9  C   UNL d   1      26.336 -15.398  -3.292  0.00  0.00     0.119 A 
ATOM     10  N   UNL d   1      25.154 -15.996  -3.046  0.00  0.00    -0.260 NA
ATOM     11  C   UNL d   1      25.034 -16.705  -1.915  0.00  0.00     0.070 A 
ATOM     12  C   UNL d   1      23.813 -17.312  -1.644  0.00  0.00     0.056 A 
ATOM     13  C   UNL d   1      26.099 -16.850  -0.986  0.00  0.00     0.021 A 
ATOM     14  C   UNL d   1      23.623 -18.064  -0.487  0.00  0.00     0.036 A 
ATOM     15 CL   UNL d   1      22.113 -18.827  -0.183  0.00  0.00    -0.084 Cl
ATOM     16  C   UNL d   1      24.646 -18.199   0.437  0.00  0.00     0.025 A 
ATOM     17  C   UNL d   1      25.862 -17.572   0.200  0.00  0.00     0.018 A 
ENDBRANCH   5   7
ENDBRANCH   3   5
BRANCH   2  18
ATOM     18  C   UNL d   1      27.914 -13.780   2.273  0.00  0.00     0.126 A 
ATOM     19  C   UNL d   1      27.412 -12.497   2.452  0.00  0.00     0.038 A 
ATOM     20  C   UNL d   1      27.408 -11.961   3.739  0.00  0.00     0.016 A 
ATOM     21  C   UNL d   1      27.907 -12.706   4.816  0.00  0.00    -0.007 A 
ATOM     22  C   UNL d   1      27.925 -12.189   6.128  0.00  0.00     0.014 A 
ATOM     23  C   UNL d   1      28.395 -14.003   4.548  0.00  0.00     0.068 A 
ATOM     24  C   UNL d   1      28.430 -12.947   7.183  0.00  0.00     0.001 A 
ATOM     25  C   UNL d   1      28.906 -14.227   6.932  0.00  0.00     0.002 A 
ATOM     26  C   UNL d   1      28.882 -14.738   5.627  0.00  0.00     0.032 A 
ATOM     27  N   UNL d   1      28.398 -14.529   3.302  0.00  0.00    -0.243 NA
ENDBRANCH   2  18
TORSDOF 3
ENDMDL
MODEL 4
REMARK VINA RESULT:    -8.228      1.527      2.408
REMARK INTER + INTRA:          -9.762
REMARK INTER:                  -9.123
REMARK INTRA:                  -0.640
REMARK CONF_INDEPENDENT:        0.895
REMARK UNBOUND:                -0.640
REMARK  3 active torsions:
REMARK  status: ('A' for Active; 'I' for Inactive)
REMARK       I    between atoms: C_2  and  N_3 
REMARK    1  A    between atoms: C_2  and  C_16 
REMARK    2  A    between atoms: N_3  and  N_4 
REMARK    3  A    between atoms: N_4  and  C_5 
ROOT
ATOM      1  O   UNL d   1      24.893 -14.892  -3.480  0.00  0.00    -0.264 OA
ATOM      2  C   UNL d   1      26.043 -14.452  -3.388  0.00  0.00     0.288 C 
ATOM      3  N   UNL d   1      26.736 -14.420  -2.176  0.00  0.00    -0.264 N 
ATOM      4  H   UNL d   1      27.652 -13.996  -2.075  0.00  0.00     0.190 HD
ENDROOT
BRANCH   3   5
ATOM      5  N   UNL d   1      26.062 -14.806  -1.006  0.00  0.00    -0.297 N 
ATOM      6  H   UNL d   1      25.524 -14.089  -0.518  0.00  0.00     0.187 HD
BRANCH   5   7
ATOM      7  C   UNL d   1      25.974 -16.165  -0.640  0.00  0.00     0.062 A 
ATOM      8  C   UNL d   1      27.142 -16.847  -0.276  0.00  0.00     0.051 A 
ATOM      9  C   UNL d   1      27.055 -18.168   0.134  0.00  0.00     0.119 A 
ATOM     10  N   UNL d   1      25.902 -18.862   0.201  0.00  0.00    -0.260 NA
ATOM     11  C   UNL d   1      24.772 -18.234  -0.154  0.00  0.00     0.070 A 
ATOM     12  C   UNL d   1      23.580 -18.947  -0.103  0.00  0.00     0.056 A 
ATOM     13  C   UNL d   1      24.751 -16.880  -0.583  0.00  0.00     0.021 A 
ATOM     14  C   UNL d   1      22.370 -18.353  -0.456  0.00  0.00     0.036 A 
ATOM     15 CL   UNL d   1      20.903 -19.244  -0.364  0.00  0.00    -0.084 Cl
ATOM     16  C   UNL d   1      22.335 -17.040  -0.895  0.00  0.00     0.025 A 
ATOM     17  C   UNL d   1      23.521 -16.323  -0.984  0.00  0.00     0.018 A 
ENDBRANCH   5   7
ENDBRANCH   3   5
BRANCH   2  18
ATOM     18  C   UNL d   1      26.785 -13.941  -4.602  0.00  0.00     0.126 A 
ATOM     19  C   UNL d   1      27.700 -14.753  -5.258  0.00  0.00     0.038 A 
ATOM     20  C   UNL d   1      28.321 -14.260  -6.405  0.00  0.00     0.016 A 
ATOM     21  C   UNL d   1      28.024 -12.971  -6.870  0.00  0.00    -0.007 A 
ATOM     22  C   UNL d   1      28.642 -12.439  -8.021  0.00  0.00     0.014 A 
ATOM     23  C   UNL d   1      27.079 -12.213  -6.145  0.00  0.00     0.068 A 
ATOM     24  C   UNL d   1      28.333 -11.154  -8.462  0.00  0.00     0.001 A 
ATOM     25  C   UNL d   1      27.400 -10.401  -7.762  0.00  0.00     0.002 A 
ATOM     26  C   UNL d   1      26.786 -10.936  -6.620  0.00  0.00     0.032 A 
ATOM     27  N   UNL d   1      26.471 -12.689  -5.035  0.00  0.00    -0.243 NA
ENDBRANCH   2  18
TORSDOF 3
ENDMDL
MODEL 5
REMARK VINA RESULT:    -7.753      3.560      9.096
REMARK INTER + INTRA:          -9.234
REMARK INTER:                  -8.648
REMARK INTRA:                  -0.585
REMARK CONF_INDEPENDENT:        0.895
REMARK UNBOUND:                -0.585
REMARK  3 active torsions:
REMARK  status: ('A' for Active; 'I' for Inactive)
REMARK       I    between atoms: C_2  and  N_3 
REMARK    1  A    between atoms: C_2  and  C_16 
REMARK    2  A    between atoms: N_3  and  N_4 
REMARK    3  A    between atoms: N_4  and  C_5 
ROOT
ATOM      1  O   UNL d   1      25.250 -18.406  -0.244  0.00  0.00    -0.264 OA
ATOM      2  C   UNL d   1      24.233 -17.709  -0.273  0.00  0.00     0.288 C 
ATOM      3  N   UNL d   1      24.282 -16.313  -0.275  0.00  0.00    -0.264 N 
ATOM      4  H   UNL d   1      23.453 -15.731  -0.226  0.00  0.00     0.190 HD
ENDROOT
BRANCH   3   5
ATOM      5  N   UNL d   1      25.530 -15.685  -0.134  0.00  0.00    -0.297 N 
ATOM      6  H   UNL d   1      25.787 -15.359   0.799  0.00  0.00     0.187 HD
BRANCH   5   7
ATOM      7  C   UNL d   1      26.462 -15.687  -1.192  0.00  0.00     0.062 A 
ATOM      8  C   UNL d   1      27.468 -16.662  -1.207  0.00  0.00     0.051 A 
ATOM      9  C   UNL d   1      28.356 -16.702  -2.271  0.00  0.00     0.119 A 
ATOM     10  N   UNL d   1      28.325 -15.845  -3.311  0.00  0.00    -0.260 NA
ATOM     11  C   UNL d   1      27.379 -14.896  -3.312  0.00  0.00     0.070 A 
ATOM     12  C   UNL d   1      27.349 -13.997  -4.373  0.00  0.00     0.056 A 
ATOM     13  C   UNL d   1      26.418 -14.772  -2.274  0.00  0.00     0.021 A 
ATOM     14  C   UNL d   1      26.390 -12.989  -4.436  0.00  0.00     0.036 A 
ATOM     15 CL   UNL d   1      26.355 -11.902  -5.767  0.00  0.00    -0.084 Cl
ATOM     16  C   UNL d   1      25.458 -12.843  -3.422  0.00  0.00     0.025 A 
ATOM     17  C   UNL d   1      25.494 -13.710  -2.338  0.00  0.00     0.018 A 
ENDBRANCH   5   7
ENDBRANCH   3   5
BRANCH   2  18
ATOM     18  C   UNL d   1      22.857 -18.334  -0.336  0.00  0.00     0.126 A 
ATOM     19  C   UNL d   1      22.303 -18.687  -1.560  0.00  0.00     0.038 A 
ATOM     20  C   UNL d   1      21.056 -19.311  -1.566  0.00  0.00     0.016 A 
ATOM     21  C   UNL d   1      20.385 -19.562  -0.361  0.00  0.00    -0.007 A 
ATOM     22  C   UNL d   1      19.118 -20.181  -0.334  0.00  0.00     0.014 A 
ATOM     23  C   UNL d   1      21.022 -19.174   0.838  0.00  0.00     0.068 A 
ATOM     24  C   UNL d   1      18.470 -20.418   0.877  0.00  0.00     0.001 A 
ATOM     25  C   UNL d   1      19.089 -20.047   2.062  0.00  0.00     0.002 A 
ATOM     26  C   UNL d   1      20.350 -19.435   2.031  0.00  0.00     0.032 A 
ATOM     27  N   UNL d   1      22.233 -18.573   0.850  0.00  0.00    -0.243 NA
ENDBRANCH   2  18
TORSDOF 3
ENDMDL
MODEL 6
REMARK VINA RESULT:    -7.579      5.534      8.585
REMARK INTER + INTRA:          -9.389
REMARK INTER:                  -8.474
REMARK INTRA:                  -0.915
REMARK CONF_INDEPENDENT:        0.895
REMARK UNBOUND:                -0.915
REMARK  3 active torsions:
REMARK  status: ('A' for Active; 'I' for Inactive)
REMARK       I    between atoms: C_2  and  N_3 
REMARK    1  A    between atoms: C_2  and  C_16 
REMARK    2  A    between atoms: N_3  and  N_4 
REMARK    3  A    between atoms: N_4  and  C_5 
ROOT
ATOM      1  O   UNL d   1      28.491 -15.102  -0.500  0.00  0.00    -0.264 OA
ATOM      2  C   UNL d   1      27.417 -15.118   0.107  0.00  0.00     0.288 C 
ATOM      3  N   UNL d   1      27.040 -14.102   0.988  0.00  0.00    -0.264 N 
ATOM      4  H   UNL d   1      26.194 -14.141   1.546  0.00  0.00     0.190 HD
ENDROOT
BRANCH   3   5
ATOM      5  N   UNL d   1      27.962 -13.081   1.270  0.00  0.00    -0.297 N 
ATOM      6  H   UNL d   1      28.644 -12.855   0.546  0.00  0.00     0.187 HD
BRANCH   5   7
ATOM      7  C   UNL d   1      27.819 -12.278   2.420  0.00  0.00     0.062 A 
ATOM      8  C   UNL d   1      27.309 -10.981   2.281  0.00  0.00     0.051 A 
ATOM      9  C   UNL d   1      27.117 -10.204   3.414  0.00  0.00     0.119 A 
ATOM     10  N   UNL d   1      27.402 -10.614   4.665  0.00  0.00    -0.260 NA
ATOM     11  C   UNL d   1      27.903 -11.847   4.822  0.00  0.00     0.070 A 
ATOM     12  C   UNL d   1      28.215 -12.272   6.108  0.00  0.00     0.056 A 
ATOM     13  C   UNL d   1      28.132 -12.724   3.729  0.00  0.00     0.021 A 
ATOM     14  C   UNL d   1      28.737 -13.543   6.340  0.00  0.00     0.036 A 
ATOM     15 CL   UNL d   1      29.095 -14.059   7.940  0.00  0.00    -0.084 Cl
ATOM     16  C   UNL d   1      28.984 -14.403   5.283  0.00  0.00     0.025 A 
ATOM     17  C   UNL d   1      28.710 -13.983   3.988  0.00  0.00     0.018 A 
ENDBRANCH   5   7
ENDBRANCH   3   5
BRANCH   2  18
ATOM     18  C   UNL d   1      26.422 -16.240  -0.093  0.00  0.00     0.126 A 
ATOM     19  C   UNL d   1      26.825 -17.563   0.031  0.00  0.00     0.038 A 
ATOM     20  C   UNL d   1      25.863 -18.564  -0.107  0.00  0.00     0.016 A 
ATOM     21  C   UNL d   1      24.528 -18.228  -0.372  0.00  0.00    -0.007 A 
ATOM     22  C   UNL d   1      23.534 -19.216  -0.527  0.00  0.00     0.014 A 
ATOM     23  C   UNL d   1      24.203 -16.858  -0.480  0.00  0.00     0.068 A 
ATOM     24  C   UNL d   1      22.213 -18.858  -0.793  0.00  0.00     0.001 A 
ATOM     25  C   UNL d   1      21.881 -17.514  -0.895  0.00  0.00     0.002 A 
ATOM     26  C   UNL d   1      22.872 -16.536  -0.736  0.00  0.00     0.032 A 
ATOM     27  N   UNL d   1      25.132 -15.884  -0.342  0.00  0.00    -0.243 NA
ENDBRANCH   2  18
TORSDOF 3
ENDMDL
MODEL 7
REMARK VINA RESULT:    -7.458      3.144      4.792
REMARK INTER + INTRA:          -9.224
REMARK INTER:                  -8.353
REMARK INTRA:                  -0.871
REMARK CONF_INDEPENDENT:        0.895
REMARK UNBOUND:                -0.871
REMARK  3 active torsions:
REMARK  status: ('A' for Active; 'I' for Inactive)
REMARK       I    between atoms: C_2  and  N_3 
REMARK    1  A    between atoms: C_2  and  C_16 
REMARK    2  A    between atoms: N_3  and  N_4 
REMARK    3  A    between atoms: N_4  and  C_5 
ROOT
ATOM      1  O   UNL d   1      28.734 -15.487  -5.765  0.00  0.00    -0.264 OA
ATOM      2  C   UNL d   1      29.295 -16.312  -5.039  0.00  0.00     0.288 C 
ATOM      3  N   UNL d   1      29.270 -16.222  -3.645  0.00  0.00    -0.264 N 
ATOM      4  H   UNL d   1      29.788 -16.852  -3.042  0.00  0.00     0.190 HD
ENDROOT
BRANCH   3   5
ATOM      5  N   UNL d   1      28.672 -15.096  -3.056  0.00  0.00    -0.297 N 
ATOM      6  H   UNL d   1      29.291 -14.343  -2.754  0.00  0.00     0.187 HD
BRANCH   5   7
ATOM      7  C   UNL d   1      27.272 -14.936  -3.066  0.00  0.00     0.062 A 
ATOM      8  C   UNL d   1      26.705 -13.973  -3.911  0.00  0.00     0.051 A 
ATOM      9  C   UNL d   1      25.326 -13.846  -3.964  0.00  0.00     0.119 A 
ATOM     10  N   UNL d   1      24.472 -14.593  -3.237  0.00  0.00    -0.260 NA
ATOM     11  C   UNL d   1      24.991 -15.512  -2.411  0.00  0.00     0.070 A 
ATOM     12  C   UNL d   1      24.118 -16.276  -1.645  0.00  0.00     0.056 A 
ATOM     13  C   UNL d   1      26.389 -15.726  -2.287  0.00  0.00     0.021 A 
ATOM     14  C   UNL d   1      24.593 -17.250  -0.769  0.00  0.00     0.036 A 
ATOM     15 CL   UNL d   1      23.496 -18.201   0.152  0.00  0.00    -0.084 Cl
ATOM     16  C   UNL d   1      25.954 -17.458  -0.622  0.00  0.00     0.025 A 
ATOM     17  C   UNL d   1      26.842 -16.681  -1.354  0.00  0.00     0.018 A 
ENDBRANCH   5   7
ENDBRANCH   3   5
BRANCH   2  18
ATOM     18  C   UNL d   1      30.030 -17.497  -5.624  0.00  0.00     0.126 A 
ATOM     19  C   UNL d   1      30.653 -17.395  -6.861  0.00  0.00     0.038 A 
ATOM     20  C   UNL d   1      31.365 -18.495  -7.337  0.00  0.00     0.016 A 
ATOM     21  C   UNL d   1      31.435 -19.673  -6.579  0.00  0.00    -0.007 A 
ATOM     22  C   UNL d   1      32.138 -20.806  -7.037  0.00  0.00     0.014 A 
ATOM     23  C   UNL d   1      30.776 -19.691  -5.331  0.00  0.00     0.068 A 
ATOM     24  C   UNL d   1      32.192 -21.967  -6.267  0.00  0.00     0.001 A 
ATOM     25  C   UNL d   1      31.553 -21.994  -5.035  0.00  0.00     0.002 A 
ATOM     26  C   UNL d   1      30.859 -20.863  -4.582  0.00  0.00     0.032 A 
ATOM     27  N   UNL d   1      30.088 -18.625  -4.863  0.00  0.00    -0.243 NA
ENDBRANCH   2  18
TORSDOF 3
ENDMDL
MODEL 8
REMARK VINA RESULT:    -7.147      3.275      5.044
REMARK INTER + INTRA:          -8.989
REMARK INTER:                  -8.042
REMARK INTRA:                  -0.947
REMARK CONF_INDEPENDENT:        0.895
REMARK UNBOUND:                -0.947
REMARK  3 active torsions:
REMARK  status: ('A' for Active; 'I' for Inactive)
REMARK       I    between atoms: C_2  and  N_3 
REMARK    1  A    between atoms: C_2  and  C_16 
REMARK    2  A    between atoms: N_3  and  N_4 
REMARK    3  A    between atoms: N_4  and  C_5 
ROOT
ATOM      1  O   UNL d   1      30.334 -17.539  -2.638  0.00  0.00    -0.264 OA
ATOM      2  C   UNL d   1      30.093 -17.411  -3.841  0.00  0.00     0.288 C 
ATOM      3  N   UNL d   1      29.413 -16.305  -4.354  0.00  0.00    -0.264 N 
ATOM      4  H   UNL d   1      29.146 -16.224  -5.329  0.00  0.00     0.190 HD
ENDROOT
BRANCH   3   5
ATOM      5  N   UNL d   1      28.897 -15.357  -3.455  0.00  0.00    -0.297 N 
ATOM      6  H   UNL d   1      29.569 -14.798  -2.930  0.00  0.00     0.187 HD
BRANCH   5   7
ATOM      7  C   UNL d   1      27.519 -15.060  -3.433  0.00  0.00     0.062 A 
ATOM      8  C   UNL d   1      27.023 -14.075  -4.295  0.00  0.00     0.051 A 
ATOM      9  C   UNL d   1      25.661 -13.815  -4.315  0.00  0.00     0.119 A 
ATOM     10  N   UNL d   1      24.762 -14.450  -3.539  0.00  0.00    -0.260 NA
ATOM     11  C   UNL d   1      25.214 -15.389  -2.696  0.00  0.00     0.070 A 
ATOM     12  C   UNL d   1      24.295 -16.039  -1.880  0.00  0.00     0.056 A 
ATOM     13  C   UNL d   1      26.588 -15.735  -2.602  0.00  0.00     0.021 A 
ATOM     14  C   UNL d   1      24.699 -17.026  -0.984  0.00  0.00     0.036 A 
ATOM     15 CL   UNL d   1      23.545 -17.834   0.000  0.00  0.00    -0.084 Cl
ATOM     16  C   UNL d   1      26.038 -17.361  -0.867  0.00  0.00     0.025 A 
ATOM     17  C   UNL d   1      26.974 -16.699  -1.649  0.00  0.00     0.018 A 
ENDBRANCH   5   7
ENDBRANCH   3   5
BRANCH   2  18
ATOM     18  C   UNL d   1      30.549 -18.447  -4.844  0.00  0.00     0.126 A 
ATOM     19  C   UNL d   1      30.780 -19.757  -4.445  0.00  0.00     0.038 A 
ATOM     20  C   UNL d   1      31.146 -20.690  -5.414  0.00  0.00     0.016 A 
ATOM     21  C   UNL d   1      31.282 -20.300  -6.754  0.00  0.00    -0.007 A 
ATOM     22  C   UNL d   1      31.661 -21.218  -7.756  0.00  0.00     0.014 A 
ATOM     23  C   UNL d   1      31.025 -18.950  -7.075  0.00  0.00     0.068 A 
ATOM     24  C   UNL d   1      31.792 -20.806  -9.081  0.00  0.00     0.001 A 
ATOM     25  C   UNL d   1      31.535 -19.482  -9.410  0.00  0.00     0.002 A 
ATOM     26  C   UNL d   1      31.155 -18.575  -8.411  0.00  0.00     0.032 A 
ATOM     27  N   UNL d   1      30.665 -18.042  -6.139  0.00  0.00    -0.243 NA
ENDBRANCH   2  18
TORSDOF 3
ENDMDL
MODEL 9
REMARK VINA RESULT:    -7.118      4.113      8.321
REMARK INTER + INTRA:          -8.805
REMARK INTER:                  -8.013
REMARK INTRA:                  -0.792
REMARK CONF_INDEPENDENT:        0.895
REMARK UNBOUND:                -0.792
REMARK  3 active torsions:
REMARK  status: ('A' for Active; 'I' for Inactive)
REMARK       I    between atoms: C_2  and  N_3 
REMARK    1  A    between atoms: C_2  and  C_16 
REMARK    2  A    between atoms: N_3  and  N_4 
REMARK    3  A    between atoms: N_4  and  C_5 
ROOT
ATOM      1  O   UNL d   1      26.756 -15.204  -5.551  0.00  0.00    -0.264 OA
ATOM      2  C   UNL d   1      26.577 -14.706  -4.436  0.00  0.00     0.288 C 
ATOM      3  N   UNL d   1      26.483 -13.326  -4.239  0.00  0.00    -0.264 N 
ATOM      4  H   UNL d   1      26.408 -12.903  -3.320  0.00  0.00     0.190 HD
ENDROOT
BRANCH   3   5
ATOM      5  N   UNL d   1      26.703 -12.475  -5.334  0.00  0.00    -0.297 N 
ATOM      6  H   UNL d   1      27.090 -12.893  -6.181  0.00  0.00     0.187 HD
BRANCH   5   7
ATOM      7  C   UNL d   1      26.224 -11.149  -5.325  0.00  0.00     0.062 A 
ATOM      8  C   UNL d   1      25.674 -10.618  -6.498  0.00  0.00     0.051 A 
ATOM      9  C   UNL d   1      25.154  -9.333  -6.481  0.00  0.00     0.119 A 
ATOM     10  N   UNL d   1      25.148  -8.537  -5.393  0.00  0.00    -0.260 NA
ATOM     11  C   UNL d   1      25.680  -9.019  -4.262  0.00  0.00     0.070 A 
ATOM     12  C   UNL d   1      25.693  -8.199  -3.139  0.00  0.00     0.056 A 
ATOM     13  C   UNL d   1      26.233 -10.324  -4.172  0.00  0.00     0.021 A 
ATOM     14  C   UNL d   1      26.229  -8.640  -1.931  0.00  0.00     0.036 A 
ATOM     15 CL   UNL d   1      26.214  -7.619  -0.548  0.00  0.00    -0.084 Cl
ATOM     16  C   UNL d   1      26.790  -9.902  -1.832  0.00  0.00     0.025 A 
ATOM     17  C   UNL d   1      26.816 -10.722  -2.952  0.00  0.00     0.018 A 
ENDBRANCH   5   7
ENDBRANCH   3   5
BRANCH   2  18
ATOM     18  C   UNL d   1      26.421 -15.574  -3.208  0.00  0.00     0.126 A 
ATOM     19  C   UNL d   1      27.535 -15.952  -2.470  0.00  0.00     0.038 A 
ATOM     20  C   UNL d   1      27.339 -16.707  -1.315  0.00  0.00     0.016 A 
ATOM     21  C   UNL d   1      26.044 -17.075  -0.922  0.00  0.00    -0.007 A 
ATOM     22  C   UNL d   1      25.814 -17.847   0.236  0.00  0.00     0.014 A 
ATOM     23  C   UNL d   1      24.967 -16.646  -1.727  0.00  0.00     0.068 A 
ATOM     24  C   UNL d   1      24.517 -18.203   0.604  0.00  0.00     0.001 A 
ATOM     25  C   UNL d   1      23.449 -17.780  -0.176  0.00  0.00     0.002 A 
ATOM     26  C   UNL d   1      23.684 -17.010  -1.324  0.00  0.00     0.032 A 
ATOM     27  N   UNL d   1      25.152 -15.910  -2.846  0.00  0.00    -0.243 NA
ENDBRANCH   2  18
TORSDOF 3
ENDMDL
