MODEL 1
REMARK VINA RESULT:   -18.181      0.000      0.000
REMARK INTER + INTRA:         -22.516
REMARK INTER:                 -21.462
REMARK INTRA:                  -1.053
REMARK CONF_INDEPENDENT:        3.281
REMARK UNBOUND:                -1.053
REMARK  11 active torsions:
REMARK  status: ('A' for Active; 'I' for Inactive)
REMARK    1  A    between atoms: O_2  and  C_3 
REMARK    2  A    between atoms: C_6  and  C_7 
REMARK    3  A    between atoms: C_7  and  C_8 
REMARK    4  A    between atoms: C_8  and  N_9 
REMARK       I    between atoms: N_9  and  C_10 
REMARK    5  A    between atoms: C_10  and  C_12 
REMARK    6  A    between atoms: C_12  and  C_13 
REMARK    7  A    between atoms: C_13  and  C_14 
REMARK       I    between atoms: C_14  and  N_16 
REMARK    8  A    between atoms: N_16  and  N_17 
REMARK       I    between atoms: N_17  and  C_18 
REMARK    9  A    between atoms: C_18  and  C_20 
REMARK   10  A    between atoms: C_20  and  C_21 
REMARK   11  A    between atoms: C_34  and  O_35 
ROOT
ATOM      1  C   UNL d   1      26.837 -15.226  -0.466  0.00  0.00     0.236 C 
ATOM      2  O   UNL d   1      25.909 -14.422  -0.663  0.00  0.00    -0.272 OA
ATOM      3  N   UNL d   1      26.609 -16.635  -0.395  0.00  0.00    -0.268 N 
ATOM      4  H   UNL d   1      27.367 -17.296  -0.230  0.00  0.00     0.190 HD
ENDROOT
BRANCH   1   5
ATOM      5  C   UNL d   1      28.314 -14.685  -0.291  0.00  0.00     0.114 C 
BRANCH   5   6
ATOM      6  C   UNL d   1      28.991 -14.987   1.096  0.00  0.00     0.112 C 
BRANCH   6   7
ATOM      7  C   UNL d   1      28.249 -14.370   2.292  0.00  0.00     0.217 C 
ATOM      8  N   UNL d   1      28.781 -14.633   3.552  0.00  0.00    -0.361 N 
ATOM      9  H   UNL d   1      29.606 -15.207   3.662  0.00  0.00     0.162 HD
ATOM     10  O   UNL d   1      27.240 -13.679   2.148  0.00  0.00    -0.274 OA
BRANCH   8  11
ATOM     11  C   UNL d   1      28.137 -14.077   4.735  0.00  0.00     0.127 C 
BRANCH  11  12
ATOM     12  C   UNL d   1      28.865 -14.288   6.080  0.00  0.00     0.058 C 
BRANCH  12  13
ATOM     13  C   UNL d   1      29.517 -13.028   6.631  0.00  0.00    -0.054 A 
ATOM     14  C   UNL d   1      28.870 -12.210   7.556  0.00  0.00     0.010 A 
ATOM     15  C   UNL d   1      29.451 -10.985   7.954  0.00  0.00     0.040 A 
ATOM     16  C   UNL d   1      30.734 -10.573   7.516  0.00  0.00     0.101 A 
ATOM     17  C   UNL d   1      31.399 -11.420   6.613  0.00  0.00     0.102 A 
ATOM     18  C   UNL d   1      30.777 -12.610   6.197  0.00  0.00     0.046 A 
BRANCH  16  19
ATOM     19  O   UNL d   1      31.247  -9.530   8.258  0.00  0.00    -0.353 OA
ATOM     20  C   UNL d   1      31.793  -8.353   7.670  0.00  0.00     0.210 C 
ENDBRANCH  16  19
BRANCH  17  21
ATOM     21  O   UNL d   1      32.640 -11.382   6.026  0.00  0.00    -0.353 OA
ATOM     22  C   UNL d   1      32.637 -11.473   4.638  0.00  0.00     0.210 C 
ENDBRANCH  17  21
ENDBRANCH  12  13
ENDBRANCH  11  12
ENDBRANCH   8  11
ENDBRANCH   6   7
ENDBRANCH   5   6
ENDBRANCH   1   5
BRANCH   3  23
ATOM     23  N   UNL d   1      25.179 -17.297  -0.687  0.00  0.00    -0.267 N 
ATOM     24  C   UNL d   1      24.181 -16.753  -1.655  0.00  0.00     0.237 C 
ATOM     25  O   UNL d   1      24.570 -15.805  -2.402  0.00  0.00    -0.272 OA
ATOM     26  H   UNL d   1      25.086 -18.172  -0.165  0.00  0.00     0.190 HD
BRANCH  24  27
ATOM     27  C   UNL d   1      22.566 -17.489  -1.777  0.00  0.00     0.122 C 
BRANCH  27  28
ATOM     28  C   UNL d   1      21.301 -17.995  -0.486  0.00  0.00     0.034 C 
ATOM     29  C   UNL d   1      21.299 -19.310  -0.897  0.00  0.00     0.046 C 
ATOM     30  C   UNL d   1      22.503 -20.076  -0.378  0.00  0.00     0.036 C 
ATOM     31  N   UNL d   1      19.901 -19.325  -0.897  0.00  0.00    -0.280 NA
ATOM     32  C   UNL d   1      19.575 -19.580   0.402  0.00  0.00     0.022 C 
ATOM     33  H   UNL d   1      19.339 -18.556  -1.251  0.00  0.00     0.128 HD
ATOM     34  C   UNL d   1      18.553 -20.457   0.838  0.00  0.00    -0.040 C 
ATOM     35  C   UNL d   1      20.595 -18.835   1.014  0.00  0.00    -0.024 C 
ATOM     36  C   UNL d   1      17.609 -20.995  -0.187  0.00  0.00     0.050 C 
ATOM     37  C   UNL d   1      18.461 -20.892   2.148  0.00  0.00     0.015 C 
ATOM     38  C   UNL d   1      19.535 -20.631   2.981  0.00  0.00    -0.061 C 
ATOM     39  C   UNL d   1      19.385 -21.499   4.307  0.00  0.00     0.048 C 
ATOM     40  C   UNL d   1      20.655 -19.642   2.432  0.00  0.00     0.016 C 
ENDBRANCH  27  28
ENDBRANCH  24  27
ENDBRANCH   3  23
TORSDOF 11
ENDMDL
MODEL 2
REMARK VINA RESULT:   -17.808      1.783      2.437
REMARK INTER + INTRA:         -21.982
REMARK INTER:                 -21.089
REMARK INTRA:                  -0.892
REMARK CONF_INDEPENDENT:        3.281
REMARK UNBOUND:                -0.892
REMARK  11 active torsions:
REMARK  status: ('A' for Active; 'I' for Inactive)
REMARK    1  A    between atoms: O_2  and  C_3 
REMARK    2  A    between atoms: C_6  and  C_7 
REMARK    3  A    between atoms: C_7  and  C_8 
REMARK    4  A    between atoms: C_8  and  N_9 
REMARK       I    between atoms: N_9  and  C_10 
REMARK    5  A    between atoms: C_10  and  C_12 
REMARK    6  A    between atoms: C_12  and  C_13 
REMARK    7  A    between atoms: C_13  and  C_14 
REMARK       I    between atoms: C_14  and  N_16 
REMARK    8  A    between atoms: N_16  and  N_17 
REMARK       I    between atoms: N_17  and  C_18 
REMARK    9  A    between atoms: C_18  and  C_20 
REMARK   10  A    between atoms: C_20  and  C_21 
REMARK   11  A    between atoms: C_34  and  O_35 
ROOT
ATOM      1  C   UNL d   1      27.035 -15.349  -1.153  0.00  0.00     0.236 C 
ATOM      2  O   UNL d   1      26.373 -14.770  -2.032  0.00  0.00    -0.272 OA
ATOM      3  N   UNL d   1      26.451 -16.333  -0.297  0.00  0.00    -0.268 N 
ATOM      4  H   UNL d   1      26.990 -16.807   0.427  0.00  0.00     0.190 HD
ENDROOT
BRANCH   1   5
ATOM      5  C   UNL d   1      28.567 -14.996  -0.970  0.00  0.00     0.114 C 
BRANCH   5   6
ATOM      6  C   UNL d   1      28.935 -14.217   0.345  0.00  0.00     0.112 C 
BRANCH   6   7
ATOM      7  C   UNL d   1      27.772 -13.393   0.921  0.00  0.00     0.217 C 
ATOM      8  N   UNL d   1      28.076 -12.563   1.996  0.00  0.00    -0.361 N 
ATOM      9  H   UNL d   1      29.013 -12.519   2.376  0.00  0.00     0.162 HD
ATOM     10  O   UNL d   1      26.633 -13.459   0.458  0.00  0.00    -0.274 OA
BRANCH   8  11
ATOM     11  C   UNL d   1      27.027 -11.745   2.592  0.00  0.00     0.127 C 
BRANCH  11  12
ATOM     12  C   UNL d   1      27.461 -10.781   3.718  0.00  0.00     0.058 C 
BRANCH  12  13
ATOM     13  C   UNL d   1      27.980 -11.484   4.964  0.00  0.00    -0.054 A 
ATOM     14  C   UNL d   1      28.416 -10.774   6.081  0.00  0.00     0.010 A 
ATOM     15  C   UNL d   1      29.005 -11.452   7.172  0.00  0.00     0.040 A 
ATOM     16  C   UNL d   1      29.099 -12.865   7.229  0.00  0.00     0.101 A 
ATOM     17  C   UNL d   1      28.624 -13.578   6.116  0.00  0.00     0.102 A 
ATOM     18  C   UNL d   1      28.086 -12.876   5.024  0.00  0.00     0.046 A 
BRANCH  16  19
ATOM     19  O   UNL d   1      29.400 -13.333   8.490  0.00  0.00    -0.353 OA
ATOM     20  C   UNL d   1      30.620 -14.001   8.801  0.00  0.00     0.210 C 
ENDBRANCH  16  19
BRANCH  17  21
ATOM     21  O   UNL d   1      28.505 -14.918   5.837  0.00  0.00    -0.353 OA
ATOM     22  C   UNL d   1      27.797 -15.216   4.678  0.00  0.00     0.210 C 
ENDBRANCH  17  21
ENDBRANCH  12  13
ENDBRANCH  11  12
ENDBRANCH   8  11
ENDBRANCH   6   7
ENDBRANCH   5   6
ENDBRANCH   1   5
BRANCH   3  23
ATOM     23  N   UNL d   1      24.949 -16.859  -0.481  0.00  0.00    -0.267 N 
ATOM     24  C   UNL d   1      24.303 -17.121  -1.801  0.00  0.00     0.237 C 
ATOM     25  O   UNL d   1      25.055 -17.077  -2.821  0.00  0.00    -0.272 OA
ATOM     26  H   UNL d   1      24.530 -17.047   0.434  0.00  0.00     0.190 HD
BRANCH  24  27
ATOM     27  C   UNL d   1      22.579 -17.553  -1.879  0.00  0.00     0.122 C 
BRANCH  27  28
ATOM     28  C   UNL d   1      21.319 -17.989  -0.559  0.00  0.00     0.034 C 
ATOM     29  C   UNL d   1      21.302 -19.321  -0.909  0.00  0.00     0.046 C 
ATOM     30  C   UNL d   1      22.503 -20.073  -0.363  0.00  0.00     0.036 C 
ATOM     31  N   UNL d   1      19.904 -19.324  -0.900  0.00  0.00    -0.280 NA
ATOM     32  C   UNL d   1      19.585 -19.517   0.411  0.00  0.00     0.022 C 
ATOM     33  H   UNL d   1      19.347 -18.568  -1.286  0.00  0.00     0.128 HD
ATOM     34  C   UNL d   1      18.558 -20.364   0.893  0.00  0.00    -0.040 C 
ATOM     35  C   UNL d   1      20.615 -18.753   0.982  0.00  0.00    -0.024 C 
ATOM     36  C   UNL d   1      17.604 -20.940  -0.101  0.00  0.00     0.050 C 
ATOM     37  C   UNL d   1      18.472 -20.739   2.222  0.00  0.00     0.015 C 
ATOM     38  C   UNL d   1      19.553 -20.448   3.036  0.00  0.00    -0.061 C 
ATOM     39  C   UNL d   1      19.405 -21.254   4.401  0.00  0.00     0.048 C 
ATOM     40  C   UNL d   1      20.678 -19.495   2.435  0.00  0.00     0.016 C 
ENDBRANCH  27  28
ENDBRANCH  24  27
ENDBRANCH   3  23
TORSDOF 11
ENDMDL
MODEL 3
REMARK VINA RESULT:   -17.465      2.053      2.297
REMARK INTER + INTRA:         -22.766
REMARK INTER:                 -20.747
REMARK INTRA:                  -2.019
REMARK CONF_INDEPENDENT:        3.281
REMARK UNBOUND:                -2.019
REMARK  11 active torsions:
REMARK  status: ('A' for Active; 'I' for Inactive)
REMARK    1  A    between atoms: O_2  and  C_3 
REMARK    2  A    between atoms: C_6  and  C_7 
REMARK    3  A    between atoms: C_7  and  C_8 
REMARK    4  A    between atoms: C_8  and  N_9 
REMARK       I    between atoms: N_9  and  C_10 
REMARK    5  A    between atoms: C_10  and  C_12 
REMARK    6  A    between atoms: C_12  and  C_13 
REMARK    7  A    between atoms: C_13  and  C_14 
REMARK       I    between atoms: C_14  and  N_16 
REMARK    8  A    between atoms: N_16  and  N_17 
REMARK       I    between atoms: N_17  and  C_18 
REMARK    9  A    between atoms: C_18  and  C_20 
REMARK   10  A    between atoms: C_20  and  C_21 
REMARK   11  A    between atoms: C_34  and  O_35 
ROOT
ATOM      1  C   UNL d   1      27.571 -17.067   0.061  0.00  0.00     0.236 C 
ATOM      2  O   UNL d   1      27.557 -18.291  -0.162  0.00  0.00    -0.272 OA
ATOM      3  N   UNL d   1      26.388 -16.272  -0.030  0.00  0.00    -0.268 N 
ATOM      4  H   UNL d   1      26.398 -15.268   0.149  0.00  0.00     0.190 HD
ENDROOT
BRANCH   1   5
ATOM      5  C   UNL d   1      28.931 -16.364   0.460  0.00  0.00     0.114 C 
BRANCH   5   6
ATOM      6  C   UNL d   1      28.830 -14.835   0.816  0.00  0.00     0.112 C 
BRANCH   6   7
ATOM      7  C   UNL d   1      27.958 -14.545   2.048  0.00  0.00     0.217 C 
ATOM      8  N   UNL d   1      28.540 -14.791   3.289  0.00  0.00    -0.361 N 
ATOM      9  H   UNL d   1      29.483 -15.150   3.363  0.00  0.00     0.162 HD
ATOM     10  O   UNL d   1      26.808 -14.116   1.947  0.00  0.00    -0.274 OA
BRANCH   8  11
ATOM     11  C   UNL d   1      27.779 -14.534   4.504  0.00  0.00     0.127 C 
BRANCH  11  12
ATOM     12  C   UNL d   1      27.666 -13.060   4.948  0.00  0.00     0.058 C 
BRANCH  12  13
ATOM     13  C   UNL d   1      28.707 -12.147   4.317  0.00  0.00    -0.054 A 
ATOM     14  C   UNL d   1      28.391 -10.858   3.889  0.00  0.00     0.010 A 
ATOM     15  C   UNL d   1      29.348 -10.082   3.197  0.00  0.00     0.040 A 
ATOM     16  C   UNL d   1      30.678 -10.524   2.985  0.00  0.00     0.101 A 
ATOM     17  C   UNL d   1      31.002 -11.809   3.452  0.00  0.00     0.102 A 
ATOM     18  C   UNL d   1      30.017 -12.578   4.096  0.00  0.00     0.046 A 
BRANCH  16  19
ATOM     19  O   UNL d   1      31.525  -9.511   2.589  0.00  0.00    -0.353 OA
ATOM     20  C   UNL d   1      31.065  -8.304   1.987  0.00  0.00     0.210 C 
ENDBRANCH  16  19
BRANCH  17  21
ATOM     21  O   UNL d   1      32.166 -12.537   3.475  0.00  0.00    -0.353 OA
ATOM     22  C   UNL d   1      33.321 -11.806   3.218  0.00  0.00     0.210 C 
ENDBRANCH  17  21
ENDBRANCH  12  13
ENDBRANCH  11  12
ENDBRANCH   8  11
ENDBRANCH   6   7
ENDBRANCH   5   6
ENDBRANCH   1   5
BRANCH   3  23
ATOM     23  N   UNL d   1      24.939 -16.902  -0.297  0.00  0.00    -0.267 N 
ATOM     24  C   UNL d   1      24.239 -16.876  -1.615  0.00  0.00     0.237 C 
ATOM     25  O   UNL d   1      24.914 -16.476  -2.611  0.00  0.00    -0.272 OA
ATOM     26  H   UNL d   1      24.603 -17.374   0.547  0.00  0.00     0.190 HD
BRANCH  24  27
ATOM     27  C   UNL d   1      22.567 -17.471  -1.748  0.00  0.00     0.122 C 
BRANCH  27  28
ATOM     28  C   UNL d   1      21.302 -17.995  -0.466  0.00  0.00     0.034 C 
ATOM     29  C   UNL d   1      21.303 -19.305  -0.892  0.00  0.00     0.046 C 
ATOM     30  C   UNL d   1      22.508 -20.075  -0.381  0.00  0.00     0.036 C 
ATOM     31  N   UNL d   1      19.905 -19.323  -0.896  0.00  0.00    -0.280 NA
ATOM     32  C   UNL d   1      19.578 -19.596   0.400  0.00  0.00     0.022 C 
ATOM     33  H   UNL d   1      19.342 -18.552  -1.241  0.00  0.00     0.128 HD
ATOM     34  C   UNL d   1      18.557 -20.480   0.823  0.00  0.00    -0.040 C 
ATOM     35  C   UNL d   1      20.595 -18.855   1.022  0.00  0.00    -0.024 C 
ATOM     36  C   UNL d   1      17.616 -21.007  -0.211  0.00  0.00     0.050 C 
ATOM     37  C   UNL d   1      18.464 -20.932   2.128  0.00  0.00     0.015 C 
ATOM     38  C   UNL d   1      19.536 -20.678   2.966  0.00  0.00    -0.061 C 
ATOM     39  C   UNL d   1      19.386 -21.563   4.280  0.00  0.00     0.048 C 
ATOM     40  C   UNL d   1      20.654 -19.680   2.431  0.00  0.00     0.016 C 
ENDBRANCH  27  28
ENDBRANCH  24  27
ENDBRANCH   3  23
TORSDOF 11
ENDMDL
MODEL 4
REMARK VINA RESULT:   -17.076      1.675      2.002
REMARK INTER + INTRA:         -22.217
REMARK INTER:                 -20.358
REMARK INTRA:                  -1.859
REMARK CONF_INDEPENDENT:        3.281
REMARK UNBOUND:                -1.859
REMARK  11 active torsions:
REMARK  status: ('A' for Active; 'I' for Inactive)
REMARK    1  A    between atoms: O_2  and  C_3 
REMARK    2  A    between atoms: C_6  and  C_7 
REMARK    3  A    between atoms: C_7  and  C_8 
REMARK    4  A    between atoms: C_8  and  N_9 
REMARK       I    between atoms: N_9  and  C_10 
REMARK    5  A    between atoms: C_10  and  C_12 
REMARK    6  A    between atoms: C_12  and  C_13 
REMARK    7  A    between atoms: C_13  and  C_14 
REMARK       I    between atoms: C_14  and  N_16 
REMARK    8  A    between atoms: N_16  and  N_17 
REMARK       I    between atoms: N_17  and  C_18 
REMARK    9  A    between atoms: C_18  and  C_20 
REMARK   10  A    between atoms: C_20  and  C_21 
REMARK   11  A    between atoms: C_34  and  O_35 
ROOT
ATOM      1  C   UNL d   1      27.468 -17.082   0.118  0.00  0.00     0.236 C 
ATOM      2  O   UNL d   1      27.243 -18.305   0.089  0.00  0.00    -0.272 OA
ATOM      3  N   UNL d   1      26.433 -16.122  -0.104  0.00  0.00    -0.268 N 
ATOM      4  H   UNL d   1      26.614 -15.119  -0.085  0.00  0.00     0.190 HD
ENDROOT
BRANCH   1   5
ATOM      5  C   UNL d   1      28.934 -16.565   0.411  0.00  0.00     0.114 C 
BRANCH   5   6
ATOM      6  C   UNL d   1      29.088 -15.009   0.578  0.00  0.00     0.112 C 
BRANCH   6   7
ATOM      7  C   UNL d   1      28.320 -14.439   1.782  0.00  0.00     0.217 C 
ATOM      8  N   UNL d   1      28.987 -14.455   3.004  0.00  0.00    -0.361 N 
ATOM      9  H   UNL d   1      29.922 -14.832   3.085  0.00  0.00     0.162 HD
ATOM     10  O   UNL d   1      27.178 -13.990   1.674  0.00  0.00    -0.274 OA
BRANCH   8  11
ATOM     11  C   UNL d   1      28.326 -13.925   4.190  0.00  0.00     0.127 C 
BRANCH  11  12
ATOM     12  C   UNL d   1      29.246 -13.435   5.330  0.00  0.00     0.058 C 
BRANCH  12  13
ATOM     13  C   UNL d   1      29.406 -11.923   5.384  0.00  0.00    -0.054 A 
ATOM     14  C   UNL d   1      29.015 -11.105   4.325  0.00  0.00     0.010 A 
ATOM     15  C   UNL d   1      29.289  -9.719   4.356  0.00  0.00     0.040 A 
ATOM     16  C   UNL d   1      29.880  -9.084   5.477  0.00  0.00     0.101 A 
ATOM     17  C   UNL d   1      30.237  -9.908   6.558  0.00  0.00     0.102 A 
ATOM     18  C   UNL d   1      29.996 -11.291   6.481  0.00  0.00     0.046 A 
BRANCH  16  19
ATOM     19  O   UNL d   1      29.765  -7.711   5.441  0.00  0.00    -0.353 OA
ATOM     20  C   UNL d   1      28.607  -7.016   5.896  0.00  0.00     0.210 C 
ENDBRANCH  16  19
BRANCH  17  21
ATOM     21  O   UNL d   1      30.769  -9.656   7.798  0.00  0.00    -0.353 OA
ATOM     22  C   UNL d   1      29.939  -8.946   8.660  0.00  0.00     0.210 C 
ENDBRANCH  17  21
ENDBRANCH  12  13
ENDBRANCH  11  12
ENDBRANCH   8  11
ENDBRANCH   6   7
ENDBRANCH   5   6
ENDBRANCH   1   5
BRANCH   3  23
ATOM     23  N   UNL d   1      24.894 -16.532  -0.279  0.00  0.00    -0.267 N 
ATOM     24  C   UNL d   1      24.324 -17.164  -1.506  0.00  0.00     0.237 C 
ATOM     25  O   UNL d   1      25.152 -17.542  -2.388  0.00  0.00    -0.272 OA
ATOM     26  H   UNL d   1      24.384 -16.357   0.591  0.00  0.00     0.190 HD
BRANCH  24  27
ATOM     27  C   UNL d   1      22.570 -17.429  -1.639  0.00  0.00     0.122 C 
BRANCH  27  28
ATOM     28  C   UNL d   1      21.274 -17.990  -0.403  0.00  0.00     0.034 C 
ATOM     29  C   UNL d   1      21.302 -19.291  -0.851  0.00  0.00     0.046 C 
ATOM     30  C   UNL d   1      22.501 -20.057  -0.318  0.00  0.00     0.036 C 
ATOM     31  N   UNL d   1      19.905 -19.325  -0.895  0.00  0.00    -0.280 NA
ATOM     32  C   UNL d   1      19.544 -19.623   0.386  0.00  0.00     0.022 C 
ATOM     33  H   UNL d   1      19.344 -18.554  -1.244  0.00  0.00     0.128 HD
ATOM     34  C   UNL d   1      18.521 -20.525   0.764  0.00  0.00    -0.040 C 
ATOM     35  C   UNL d   1      20.535 -18.882   1.049  0.00  0.00    -0.024 C 
ATOM     36  C   UNL d   1      17.617 -21.045  -0.305  0.00  0.00     0.050 C 
ATOM     37  C   UNL d   1      18.396 -21.000   2.058  0.00  0.00     0.015 C 
ATOM     38  C   UNL d   1      19.440 -20.749   2.931  0.00  0.00    -0.061 C 
ATOM     39  C   UNL d   1      19.263 -21.658   4.225  0.00  0.00     0.048 C 
ATOM     40  C   UNL d   1      20.563 -19.730   2.445  0.00  0.00     0.016 C 
ENDBRANCH  27  28
ENDBRANCH  24  27
ENDBRANCH   3  23
TORSDOF 11
ENDMDL
MODEL 5
REMARK VINA RESULT:   -17.064      5.562      7.627
REMARK INTER + INTRA:         -22.141
REMARK INTER:                 -20.345
REMARK INTRA:                  -1.795
REMARK CONF_INDEPENDENT:        3.281
REMARK UNBOUND:                -1.795
REMARK  11 active torsions:
REMARK  status: ('A' for Active; 'I' for Inactive)
REMARK    1  A    between atoms: O_2  and  C_3 
REMARK    2  A    between atoms: C_6  and  C_7 
REMARK    3  A    between atoms: C_7  and  C_8 
REMARK    4  A    between atoms: C_8  and  N_9 
REMARK       I    between atoms: N_9  and  C_10 
REMARK    5  A    between atoms: C_10  and  C_12 
REMARK    6  A    between atoms: C_12  and  C_13 
REMARK    7  A    between atoms: C_13  and  C_14 
REMARK       I    between atoms: C_14  and  N_16 
REMARK    8  A    between atoms: N_16  and  N_17 
REMARK       I    between atoms: N_17  and  C_18 
REMARK    9  A    between atoms: C_18  and  C_20 
REMARK   10  A    between atoms: C_20  and  C_21 
REMARK   11  A    between atoms: C_34  and  O_35 
ROOT
ATOM      1  C   UNL d   1      27.511 -16.082  -1.410  0.00  0.00     0.236 C 
ATOM      2  O   UNL d   1      27.236 -16.241  -2.612  0.00  0.00    -0.272 OA
ATOM      3  N   UNL d   1      26.596 -16.447  -0.375  0.00  0.00    -0.268 N 
ATOM      4  H   UNL d   1      26.816 -16.315   0.612  0.00  0.00     0.190 HD
ENDROOT
BRANCH   1   5
ATOM      5  C   UNL d   1      28.909 -15.461  -1.004  0.00  0.00     0.114 C 
BRANCH   5   6
ATOM      6  C   UNL d   1      30.164 -16.083  -1.719  0.00  0.00     0.112 C 
BRANCH   6   7
ATOM      7  C   UNL d   1      30.413 -15.521  -3.128  0.00  0.00     0.217 C 
ATOM      8  N   UNL d   1      29.282 -15.239  -3.890  0.00  0.00    -0.361 N 
ATOM      9  H   UNL d   1      28.352 -15.407  -3.529  0.00  0.00     0.162 HD
ATOM     10  O   UNL d   1      31.549 -15.326  -3.562  0.00  0.00    -0.274 OA
BRANCH   8  11
ATOM     11  C   UNL d   1      29.437 -14.697  -5.234  0.00  0.00     0.127 C 
BRANCH  11  12
ATOM     12  C   UNL d   1      29.738 -13.186  -5.337  0.00  0.00     0.058 C 
BRANCH  12  13
ATOM     13  C   UNL d   1      28.492 -12.315  -5.413  0.00  0.00    -0.054 A 
ATOM     14  C   UNL d   1      27.815 -12.104  -6.613  0.00  0.00     0.010 A 
ATOM     15  C   UNL d   1      26.735 -11.194  -6.673  0.00  0.00     0.040 A 
ATOM     16  C   UNL d   1      26.235 -10.530  -5.525  0.00  0.00     0.101 A 
ATOM     17  C   UNL d   1      26.898 -10.775  -4.310  0.00  0.00     0.102 A 
ATOM     18  C   UNL d   1      27.999 -11.649  -4.288  0.00  0.00     0.046 A 
BRANCH  16  19
ATOM     19  O   UNL d   1      25.002  -9.952  -5.732  0.00  0.00    -0.353 OA
ATOM     20  C   UNL d   1      24.733  -8.577  -5.466  0.00  0.00     0.210 C 
ENDBRANCH  16  19
BRANCH  17  21
ATOM     21  O   UNL d   1      26.678 -10.366  -3.018  0.00  0.00    -0.353 OA
ATOM     22  C   UNL d   1      26.674  -8.988  -2.830  0.00  0.00     0.210 C 
ENDBRANCH  17  21
ENDBRANCH  12  13
ENDBRANCH  11  12
ENDBRANCH   8  11
ENDBRANCH   6   7
ENDBRANCH   5   6
ENDBRANCH   1   5
BRANCH   3  23
ATOM     23  N   UNL d   1      25.213 -17.201  -0.668  0.00  0.00    -0.267 N 
ATOM     24  C   UNL d   1      24.191 -16.735  -1.652  0.00  0.00     0.237 C 
ATOM     25  O   UNL d   1      24.527 -15.777  -2.411  0.00  0.00    -0.272 OA
ATOM     26  H   UNL d   1      25.169 -18.072  -0.132  0.00  0.00     0.190 HD
BRANCH  24  27
ATOM     27  C   UNL d   1      22.625 -17.572  -1.775  0.00  0.00     0.122 C 
BRANCH  27  28
ATOM     28  C   UNL d   1      21.308 -17.990  -0.506  0.00  0.00     0.034 C 
ATOM     29  C   UNL d   1      21.302 -19.325  -0.843  0.00  0.00     0.046 C 
ATOM     30  C   UNL d   1      22.476 -20.075  -0.237  0.00  0.00     0.036 C 
ATOM     31  N   UNL d   1      19.905 -19.324  -0.895  0.00  0.00    -0.280 NA
ATOM     32  C   UNL d   1      19.529 -19.503   0.403  0.00  0.00     0.022 C 
ATOM     33  H   UNL d   1      19.367 -18.570  -1.312  0.00  0.00     0.128 HD
ATOM     34  C   UNL d   1      18.479 -20.341   0.848  0.00  0.00    -0.040 C 
ATOM     35  C   UNL d   1      20.535 -18.736   1.010  0.00  0.00    -0.024 C 
ATOM     36  C   UNL d   1      17.566 -20.925  -0.180  0.00  0.00     0.050 C 
ATOM     37  C   UNL d   1      18.333 -20.702   2.176  0.00  0.00     0.015 C 
ATOM     38  C   UNL d   1      19.379 -20.406   3.033  0.00  0.00    -0.061 C 
ATOM     39  C   UNL d   1      19.168 -21.198   4.399  0.00  0.00     0.048 C 
ATOM     40  C   UNL d   1      20.532 -19.463   2.472  0.00  0.00     0.016 C 
ENDBRANCH  27  28
ENDBRANCH  24  27
ENDBRANCH   3  23
TORSDOF 11
ENDMDL
MODEL 6
REMARK VINA RESULT:   -16.730      4.893      7.677
REMARK INTER + INTRA:         -21.998
REMARK INTER:                 -20.012
REMARK INTRA:                  -1.987
REMARK CONF_INDEPENDENT:        3.281
REMARK UNBOUND:                -1.987
REMARK  11 active torsions:
REMARK  status: ('A' for Active; 'I' for Inactive)
REMARK    1  A    between atoms: O_2  and  C_3 
REMARK    2  A    between atoms: C_6  and  C_7 
REMARK    3  A    between atoms: C_7  and  C_8 
REMARK    4  A    between atoms: C_8  and  N_9 
REMARK       I    between atoms: N_9  and  C_10 
REMARK    5  A    between atoms: C_10  and  C_12 
REMARK    6  A    between atoms: C_12  and  C_13 
REMARK    7  A    between atoms: C_13  and  C_14 
REMARK       I    between atoms: C_14  and  N_16 
REMARK    8  A    between atoms: N_16  and  N_17 
REMARK       I    between atoms: N_17  and  C_18 
REMARK    9  A    between atoms: C_18  and  C_20 
REMARK   10  A    between atoms: C_20  and  C_21 
REMARK   11  A    between atoms: C_34  and  O_35 
ROOT
ATOM      1  C   UNL d   1      27.157 -15.446  -0.253  0.00  0.00     0.236 C 
ATOM      2  O   UNL d   1      26.752 -15.935   0.816  0.00  0.00    -0.272 OA
ATOM      3  N   UNL d   1      26.610 -15.836  -1.514  0.00  0.00    -0.268 N 
ATOM      4  H   UNL d   1      26.942 -15.439  -2.392  0.00  0.00     0.190 HD
ENDROOT
BRANCH   1   5
ATOM      5  C   UNL d   1      28.307 -14.359  -0.227  0.00  0.00     0.114 C 
BRANCH   5   6
ATOM      6  C   UNL d   1      27.858 -12.884  -0.537  0.00  0.00     0.112 C 
BRANCH   6   7
ATOM      7  C   UNL d   1      27.018 -12.750  -1.817  0.00  0.00     0.217 C 
ATOM      8  N   UNL d   1      27.584 -12.015  -2.854  0.00  0.00    -0.361 N 
ATOM      9  H   UNL d   1      28.496 -11.589  -2.757  0.00  0.00     0.162 HD
ATOM     10  O   UNL d   1      25.904 -13.266  -1.923  0.00  0.00    -0.274 OA
BRANCH   8  11
ATOM     11  C   UNL d   1      26.851 -11.849  -4.103  0.00  0.00     0.127 C 
BRANCH  11  12
ATOM     12  C   UNL d   1      26.673 -13.114  -4.971  0.00  0.00     0.058 C 
BRANCH  12  13
ATOM     13  C   UNL d   1      27.968 -13.872  -5.225  0.00  0.00    -0.054 A 
ATOM     14  C   UNL d   1      27.989 -15.255  -5.391  0.00  0.00     0.010 A 
ATOM     15  C   UNL d   1      29.220 -15.942  -5.503  0.00  0.00     0.040 A 
ATOM     16  C   UNL d   1      30.466 -15.268  -5.546  0.00  0.00     0.101 A 
ATOM     17  C   UNL d   1      30.436 -13.869  -5.417  0.00  0.00     0.102 A 
ATOM     18  C   UNL d   1      29.201 -13.216  -5.259  0.00  0.00     0.046 A 
BRANCH  16  19
ATOM     19  O   UNL d   1      31.498 -16.072  -5.979  0.00  0.00    -0.353 OA
ATOM     20  C   UNL d   1      31.289 -17.344  -6.587  0.00  0.00     0.210 C 
ENDBRANCH  16  19
BRANCH  17  21
ATOM     21  O   UNL d   1      31.407 -12.898  -5.461  0.00  0.00    -0.353 OA
ATOM     22  C   UNL d   1      31.487 -12.202  -6.662  0.00  0.00     0.210 C 
ENDBRANCH  17  21
ENDBRANCH  12  13
ENDBRANCH  11  12
ENDBRANCH   8  11
ENDBRANCH   6   7
ENDBRANCH   5   6
ENDBRANCH   1   5
BRANCH   3  23
ATOM     23  N   UNL d   1      25.358 -16.827  -1.645  0.00  0.00    -0.267 N 
ATOM     24  C   UNL d   1      23.942 -16.381  -1.809  0.00  0.00     0.237 C 
ATOM     25  O   UNL d   1      23.757 -15.144  -2.020  0.00  0.00    -0.272 OA
ATOM     26  H   UNL d   1      25.682 -17.798  -1.666  0.00  0.00     0.190 HD
BRANCH  24  27
ATOM     27  C   UNL d   1      22.623 -17.574  -1.787  0.00  0.00     0.122 C 
BRANCH  27  28
ATOM     28  C   UNL d   1      21.312 -17.992  -0.512  0.00  0.00     0.034 C 
ATOM     29  C   UNL d   1      21.303 -19.327  -0.851  0.00  0.00     0.046 C 
ATOM     30  C   UNL d   1      22.478 -20.079  -0.252  0.00  0.00     0.036 C 
ATOM     31  N   UNL d   1      19.905 -19.324  -0.895  0.00  0.00    -0.280 NA
ATOM     32  C   UNL d   1      19.535 -19.504   0.405  0.00  0.00     0.022 C 
ATOM     33  H   UNL d   1      19.366 -18.569  -1.309  0.00  0.00     0.128 HD
ATOM     34  C   UNL d   1      18.487 -20.341   0.854  0.00  0.00    -0.040 C 
ATOM     35  C   UNL d   1      20.546 -18.738   1.007  0.00  0.00    -0.024 C 
ATOM     36  C   UNL d   1      17.568 -20.923  -0.170  0.00  0.00     0.050 C 
ATOM     37  C   UNL d   1      18.347 -20.703   2.183  0.00  0.00     0.015 C 
ATOM     38  C   UNL d   1      19.398 -20.410   3.035  0.00  0.00    -0.061 C 
ATOM     39  C   UNL d   1      19.193 -21.202   4.400  0.00  0.00     0.048 C 
ATOM     40  C   UNL d   1      20.549 -19.467   2.469  0.00  0.00     0.016 C 
ENDBRANCH  27  28
ENDBRANCH  24  27
ENDBRANCH   3  23
TORSDOF 11
ENDMDL
MODEL 7
REMARK VINA RESULT:   -16.651      5.624      8.430
REMARK INTER + INTRA:         -22.023
REMARK INTER:                 -19.933
REMARK INTRA:                  -2.090
REMARK CONF_INDEPENDENT:        3.281
REMARK UNBOUND:                -2.090
REMARK  11 active torsions:
REMARK  status: ('A' for Active; 'I' for Inactive)
REMARK    1  A    between atoms: O_2  and  C_3 
REMARK    2  A    between atoms: C_6  and  C_7 
REMARK    3  A    between atoms: C_7  and  C_8 
REMARK    4  A    between atoms: C_8  and  N_9 
REMARK       I    between atoms: N_9  and  C_10 
REMARK    5  A    between atoms: C_10  and  C_12 
REMARK    6  A    between atoms: C_12  and  C_13 
REMARK    7  A    between atoms: C_13  and  C_14 
REMARK       I    between atoms: C_14  and  N_16 
REMARK    8  A    between atoms: N_16  and  N_17 
REMARK       I    between atoms: N_17  and  C_18 
REMARK    9  A    between atoms: C_18  and  C_20 
REMARK   10  A    between atoms: C_20  and  C_21 
REMARK   11  A    between atoms: C_34  and  O_35 
ROOT
ATOM      1  C   UNL d   1      27.511 -16.080  -1.407  0.00  0.00     0.236 C 
ATOM      2  O   UNL d   1      27.235 -16.233  -2.610  0.00  0.00    -0.272 OA
ATOM      3  N   UNL d   1      26.598 -16.452  -0.373  0.00  0.00    -0.268 N 
ATOM      4  H   UNL d   1      26.820 -16.325   0.614  0.00  0.00     0.190 HD
ENDROOT
BRANCH   1   5
ATOM      5  C   UNL d   1      28.910 -15.463  -1.000  0.00  0.00     0.114 C 
BRANCH   5   6
ATOM      6  C   UNL d   1      30.175 -16.218  -1.551  0.00  0.00     0.112 C 
BRANCH   6   7
ATOM      7  C   UNL d   1      30.533 -15.848  -2.999  0.00  0.00     0.217 C 
ATOM      8  N   UNL d   1      29.464 -15.613  -3.859  0.00  0.00    -0.361 N 
ATOM      9  H   UNL d   1      28.508 -15.692  -3.540  0.00  0.00     0.162 HD
ATOM     10  O   UNL d   1      31.701 -15.761  -3.380  0.00  0.00    -0.274 OA
BRANCH   8  11
ATOM     11  C   UNL d   1      29.724 -15.250  -5.247  0.00  0.00     0.127 C 
BRANCH  11  12
ATOM     12  C   UNL d   1      30.008 -16.414  -6.222  0.00  0.00     0.058 C 
BRANCH  12  13
ATOM     13  C   UNL d   1      31.248 -17.222  -5.869  0.00  0.00    -0.054 A 
ATOM     14  C   UNL d   1      32.526 -16.806  -6.237  0.00  0.00     0.010 A 
ATOM     15  C   UNL d   1      33.643 -17.639  -6.001  0.00  0.00     0.040 A 
ATOM     16  C   UNL d   1      33.541 -18.873  -5.312  0.00  0.00     0.101 A 
ATOM     17  C   UNL d   1      32.254 -19.270  -4.909  0.00  0.00     0.102 A 
ATOM     18  C   UNL d   1      31.154 -18.444  -5.198  0.00  0.00     0.046 A 
BRANCH  16  19
ATOM     19  O   UNL d   1      34.762 -19.365  -4.906  0.00  0.00    -0.353 OA
ATOM     20  C   UNL d   1      35.867 -18.528  -4.573  0.00  0.00     0.210 C 
ENDBRANCH  16  19
BRANCH  17  21
ATOM     21  O   UNL d   1      31.781 -20.344  -4.195  0.00  0.00    -0.353 OA
ATOM     22  C   UNL d   1      31.519 -20.088  -2.854  0.00  0.00     0.210 C 
ENDBRANCH  17  21
ENDBRANCH  12  13
ENDBRANCH  11  12
ENDBRANCH   8  11
ENDBRANCH   6   7
ENDBRANCH   5   6
ENDBRANCH   1   5
BRANCH   3  23
ATOM     23  N   UNL d   1      25.214 -17.203  -0.667  0.00  0.00    -0.267 N 
ATOM     24  C   UNL d   1      24.189 -16.731  -1.645  0.00  0.00     0.237 C 
ATOM     25  O   UNL d   1      24.524 -15.767  -2.398  0.00  0.00    -0.272 OA
ATOM     26  H   UNL d   1      25.172 -18.078  -0.138  0.00  0.00     0.190 HD
BRANCH  24  27
ATOM     27  C   UNL d   1      22.624 -17.567  -1.770  0.00  0.00     0.122 C 
BRANCH  27  28
ATOM     28  C   UNL d   1      21.308 -17.992  -0.501  0.00  0.00     0.034 C 
ATOM     29  C   UNL d   1      21.302 -19.325  -0.845  0.00  0.00     0.046 C 
ATOM     30  C   UNL d   1      22.476 -20.079  -0.246  0.00  0.00     0.036 C 
ATOM     31  N   UNL d   1      19.905 -19.324  -0.895  0.00  0.00    -0.280 NA
ATOM     32  C   UNL d   1      19.531 -19.510   0.403  0.00  0.00     0.022 C 
ATOM     33  H   UNL d   1      19.367 -18.567  -1.307  0.00  0.00     0.128 HD
ATOM     34  C   UNL d   1      18.481 -20.351   0.845  0.00  0.00    -0.040 C 
ATOM     35  C   UNL d   1      20.539 -18.746   1.012  0.00  0.00    -0.024 C 
ATOM     36  C   UNL d   1      17.567 -20.928  -0.185  0.00  0.00     0.050 C 
ATOM     37  C   UNL d   1      18.338 -20.719   2.171  0.00  0.00     0.015 C 
ATOM     38  C   UNL d   1      19.385 -20.428   3.028  0.00  0.00    -0.061 C 
ATOM     39  C   UNL d   1      19.177 -21.227   4.389  0.00  0.00     0.048 C 
ATOM     40  C   UNL d   1      20.537 -19.482   2.470  0.00  0.00     0.016 C 
ENDBRANCH  27  28
ENDBRANCH  24  27
ENDBRANCH   3  23
TORSDOF 11
ENDMDL
MODEL 8
REMARK VINA RESULT:   -16.470      4.914      6.605
REMARK INTER + INTRA:         -22.024
REMARK INTER:                 -19.751
REMARK INTRA:                  -2.273
REMARK CONF_INDEPENDENT:        3.281
REMARK UNBOUND:                -2.273
REMARK  11 active torsions:
REMARK  status: ('A' for Active; 'I' for Inactive)
REMARK    1  A    between atoms: O_2  and  C_3 
REMARK    2  A    between atoms: C_6  and  C_7 
REMARK    3  A    between atoms: C_7  and  C_8 
REMARK    4  A    between atoms: C_8  and  N_9 
REMARK       I    between atoms: N_9  and  C_10 
REMARK    5  A    between atoms: C_10  and  C_12 
REMARK    6  A    between atoms: C_12  and  C_13 
REMARK    7  A    between atoms: C_13  and  C_14 
REMARK       I    between atoms: C_14  and  N_16 
REMARK    8  A    between atoms: N_16  and  N_17 
REMARK       I    between atoms: N_17  and  C_18 
REMARK    9  A    between atoms: C_18  and  C_20 
REMARK   10  A    between atoms: C_20  and  C_21 
REMARK   11  A    between atoms: C_34  and  O_35 
ROOT
ATOM      1  C   UNL d   1      26.883 -15.498  -0.105  0.00  0.00     0.236 C 
ATOM      2  O   UNL d   1      25.925 -14.788   0.249  0.00  0.00    -0.272 OA
ATOM      3  N   UNL d   1      26.692 -16.824  -0.603  0.00  0.00    -0.268 N 
ATOM      4  H   UNL d   1      27.475 -17.409  -0.891  0.00  0.00     0.190 HD
ENDROOT
BRANCH   1   5
ATOM      5  C   UNL d   1      28.355 -14.926  -0.009  0.00  0.00     0.114 C 
BRANCH   5   6
ATOM      6  C   UNL d   1      29.482 -15.839  -0.616  0.00  0.00     0.112 C 
BRANCH   6   7
ATOM      7  C   UNL d   1      29.247 -16.213  -2.089  0.00  0.00     0.217 C 
ATOM      8  N   UNL d   1      30.385 -16.446  -2.856  0.00  0.00    -0.361 N 
ATOM      9  H   UNL d   1      31.311 -16.363  -2.458  0.00  0.00     0.162 HD
ATOM     10  O   UNL d   1      28.115 -16.304  -2.566  0.00  0.00    -0.274 OA
BRANCH   8  11
ATOM     11  C   UNL d   1      30.243 -16.812  -4.260  0.00  0.00     0.127 C 
BRANCH  11  12
ATOM     12  C   UNL d   1      29.873 -15.673  -5.235  0.00  0.00     0.058 C 
BRANCH  12  13
ATOM     13  C   UNL d   1      29.513 -14.365  -4.544  0.00  0.00    -0.054 A 
ATOM     14  C   UNL d   1      30.489 -13.458  -4.134  0.00  0.00     0.010 A 
ATOM     15  C   UNL d   1      30.130 -12.313  -3.388  0.00  0.00     0.040 A 
ATOM     16  C   UNL d   1      28.782 -11.983  -3.101  0.00  0.00     0.101 A 
ATOM     17  C   UNL d   1      27.799 -12.882  -3.550  0.00  0.00     0.102 A 
ATOM     18  C   UNL d   1      28.188 -14.038  -4.249  0.00  0.00     0.046 A 
BRANCH  16  19
ATOM     19  O   UNL d   1      28.627 -10.688  -2.657  0.00  0.00    -0.353 OA
ATOM     20  C   UNL d   1      29.596  -9.667  -2.885  0.00  0.00     0.210 C 
ENDBRANCH  16  19
BRANCH  17  21
ATOM     21  O   UNL d   1      26.426 -12.875  -3.507  0.00  0.00    -0.353 OA
ATOM     22  C   UNL d   1      25.849 -11.616  -3.386  0.00  0.00     0.210 C 
ENDBRANCH  17  21
ENDBRANCH  12  13
ENDBRANCH  11  12
ENDBRANCH   8  11
ENDBRANCH   6   7
ENDBRANCH   5   6
ENDBRANCH   1   5
BRANCH   3  23
ATOM     23  N   UNL d   1      25.241 -17.451  -0.864  0.00  0.00    -0.267 N 
ATOM     24  C   UNL d   1      24.221 -16.864  -1.782  0.00  0.00     0.237 C 
ATOM     25  O   UNL d   1      24.603 -15.903  -2.516  0.00  0.00    -0.272 OA
ATOM     26  H   UNL d   1      25.149 -18.339  -0.362  0.00  0.00     0.190 HD
BRANCH  24  27
ATOM     27  C   UNL d   1      22.589 -17.567  -1.868  0.00  0.00     0.122 C 
BRANCH  27  28
ATOM     28  C   UNL d   1      21.319 -17.990  -0.554  0.00  0.00     0.034 C 
ATOM     29  C   UNL d   1      21.303 -19.324  -0.894  0.00  0.00     0.046 C 
ATOM     30  C   UNL d   1      22.499 -20.075  -0.334  0.00  0.00     0.036 C 
ATOM     31  N   UNL d   1      19.905 -19.325  -0.895  0.00  0.00    -0.280 NA
ATOM     32  C   UNL d   1      19.576 -19.508   0.416  0.00  0.00     0.022 C 
ATOM     33  H   UNL d   1      19.351 -18.570  -1.290  0.00  0.00     0.128 HD
ATOM     34  C   UNL d   1      18.544 -20.349   0.896  0.00  0.00    -0.040 C 
ATOM     35  C   UNL d   1      20.604 -18.741   0.987  0.00  0.00    -0.024 C 
ATOM     36  C   UNL d   1      17.596 -20.931  -0.100  0.00  0.00     0.050 C 
ATOM     37  C   UNL d   1      18.447 -20.714   2.228  0.00  0.00     0.015 C 
ATOM     38  C   UNL d   1      19.524 -20.419   3.047  0.00  0.00    -0.061 C 
ATOM     39  C   UNL d   1      19.364 -21.215   4.416  0.00  0.00     0.048 C 
ATOM     40  C   UNL d   1      20.654 -19.473   2.447  0.00  0.00     0.016 C 
ENDBRANCH  27  28
ENDBRANCH  24  27
ENDBRANCH   3  23
TORSDOF 11
ENDMDL
MODEL 9
REMARK VINA RESULT:   -16.212      4.519      5.879
REMARK INTER + INTRA:         -21.980
REMARK INTER:                 -19.494
REMARK INTRA:                  -2.486
REMARK CONF_INDEPENDENT:        3.281
REMARK UNBOUND:                -2.486
REMARK  11 active torsions:
REMARK  status: ('A' for Active; 'I' for Inactive)
REMARK    1  A    between atoms: O_2  and  C_3 
REMARK    2  A    between atoms: C_6  and  C_7 
REMARK    3  A    between atoms: C_7  and  C_8 
REMARK    4  A    between atoms: C_8  and  N_9 
REMARK       I    between atoms: N_9  and  C_10 
REMARK    5  A    between atoms: C_10  and  C_12 
REMARK    6  A    between atoms: C_12  and  C_13 
REMARK    7  A    between atoms: C_13  and  C_14 
REMARK       I    between atoms: C_14  and  N_16 
REMARK    8  A    between atoms: N_16  and  N_17 
REMARK       I    between atoms: N_17  and  C_18 
REMARK    9  A    between atoms: C_18  and  C_20 
REMARK   10  A    between atoms: C_20  and  C_21 
REMARK   11  A    between atoms: C_34  and  O_35 
ROOT
ATOM      1  C   UNL d   1      27.641 -16.734  -0.225  0.00  0.00     0.236 C 
ATOM      2  O   UNL d   1      27.733 -17.784  -0.885  0.00  0.00    -0.272 OA
ATOM      3  N   UNL d   1      26.373 -16.165   0.110  0.00  0.00    -0.268 N 
ATOM      4  H   UNL d   1      26.295 -15.303   0.647  0.00  0.00     0.190 HD
ENDROOT
BRANCH   1   5
ATOM      5  C   UNL d   1      28.956 -16.001   0.264  0.00  0.00     0.114 C 
BRANCH   5   6
ATOM      6  C   UNL d   1      30.012 -15.678  -0.855  0.00  0.00     0.112 C 
BRANCH   6   7
ATOM      7  C   UNL d   1      29.389 -15.177  -2.167  0.00  0.00     0.217 C 
ATOM      8  N   UNL d   1      28.572 -16.076  -2.847  0.00  0.00    -0.361 N 
ATOM      9  H   UNL d   1      28.412 -17.009  -2.491  0.00  0.00     0.162 HD
ATOM     10  O   UNL d   1      29.596 -14.041  -2.596  0.00  0.00    -0.274 OA
BRANCH   8  11
ATOM     11  C   UNL d   1      27.939 -15.671  -4.095  0.00  0.00     0.127 C 
BRANCH  11  12
ATOM     12  C   UNL d   1      26.729 -14.720  -3.978  0.00  0.00     0.058 C 
BRANCH  12  13
ATOM     13  C   UNL d   1      26.982 -13.511  -3.088  0.00  0.00    -0.054 A 
ATOM     14  C   UNL d   1      26.558 -13.474  -1.761  0.00  0.00     0.010 A 
ATOM     15  C   UNL d   1      26.700 -12.292  -0.999  0.00  0.00     0.040 A 
ATOM     16  C   UNL d   1      27.348 -11.136  -1.501  0.00  0.00     0.101 A 
ATOM     17  C   UNL d   1      27.807 -11.192  -2.829  0.00  0.00     0.102 A 
ATOM     18  C   UNL d   1      27.611 -12.364  -3.579  0.00  0.00     0.046 A 
BRANCH  16  19
ATOM     19  O   UNL d   1      27.667 -10.227  -0.516  0.00  0.00    -0.353 OA
ATOM     20  C   UNL d   1      26.973 -10.152   0.727  0.00  0.00     0.210 C 
ENDBRANCH  16  19
BRANCH  17  21
ATOM     21  O   UNL d   1      28.506 -10.314  -3.620  0.00  0.00    -0.353 OA
ATOM     22  C   UNL d   1      29.885 -10.493  -3.621  0.00  0.00     0.210 C 
ENDBRANCH  17  21
ENDBRANCH  12  13
ENDBRANCH  11  12
ENDBRANCH   8  11
ENDBRANCH   6   7
ENDBRANCH   5   6
ENDBRANCH   1   5
BRANCH   3  23
ATOM     23  N   UNL d   1      24.984 -16.891  -0.221  0.00  0.00    -0.267 N 
ATOM     24  C   UNL d   1      24.196 -16.674  -1.470  0.00  0.00     0.237 C 
ATOM     25  O   UNL d   1      24.756 -15.999  -2.386  0.00  0.00    -0.272 OA
ATOM     26  H   UNL d   1      24.757 -17.564   0.516  0.00  0.00     0.190 HD
BRANCH  24  27
ATOM     27  C   UNL d   1      22.591 -17.419  -1.652  0.00  0.00     0.122 C 
BRANCH  27  28
ATOM     28  C   UNL d   1      21.303 -17.977  -0.407  0.00  0.00     0.034 C 
ATOM     29  C   UNL d   1      21.303 -19.272  -0.875  0.00  0.00     0.046 C 
ATOM     30  C   UNL d   1      22.496 -20.065  -0.370  0.00  0.00     0.036 C 
ATOM     31  N   UNL d   1      19.905 -19.282  -0.900  0.00  0.00    -0.280 NA
ATOM     32  C   UNL d   1      19.556 -19.593   0.380  0.00  0.00     0.022 C 
ATOM     33  H   UNL d   1      19.352 -18.496  -1.230  0.00  0.00     0.128 HD
ATOM     34  C   UNL d   1      18.524 -20.484   0.759  0.00  0.00    -0.040 C 
ATOM     35  C   UNL d   1      20.568 -18.879   1.042  0.00  0.00    -0.024 C 
ATOM     36  C   UNL d   1      17.597 -20.973  -0.305  0.00  0.00     0.050 C 
ATOM     37  C   UNL d   1      18.408 -20.977   2.047  0.00  0.00     0.015 C 
ATOM     38  C   UNL d   1      19.468 -20.756   2.910  0.00  0.00    -0.061 C 
ATOM     39  C   UNL d   1      19.292 -21.682   4.193  0.00  0.00     0.048 C 
ATOM     40  C   UNL d   1      20.600 -19.748   2.424  0.00  0.00     0.016 C 
ENDBRANCH  27  28
ENDBRANCH  24  27
ENDBRANCH   3  23
TORSDOF 11
ENDMDL
