MODEL 1
REMARK VINA RESULT:    -7.799      0.000      0.000
REMARK INTER + INTRA:         -11.739
REMARK INTER:                  -9.887
REMARK INTRA:                  -1.852
REMARK CONF_INDEPENDENT:        2.088
REMARK UNBOUND:                -1.852
REMARK  7 active torsions:
REMARK  status: ('A' for Active; 'I' for Inactive)
REMARK       I    between atoms: C_2  and  N_3 
REMARK       I    between atoms: C_2  and  N_12 
REMARK    1  A    between atoms: N_3  and  C_4 
REMARK    2  A    between atoms: C_4  and  C_5 
REMARK    3  A    between atoms: C_5  and  C_6 
REMARK    4  A    between atoms: C_6  and  N_7 
REMARK    5  A    between atoms: N_12  and  N_13 
REMARK       I    between atoms: N_13  and  C_14 
REMARK    6  A    between atoms: C_14  and  C_16 
REMARK    7  A    between atoms: C_18  and  C_19 
ROOT
ATOM      1  N   UNL d   1      25.321 -13.470  -2.928  0.00  0.00    -0.262 N 
ATOM      2  C   UNL d   1      25.362 -14.812  -3.304  0.00  0.00     0.271 C 
ATOM      3  O   UNL d   1      25.393 -15.187  -4.476  0.00  0.00    -0.266 OA
ATOM      4  H   UNL d   1      25.352 -13.210  -1.956  0.00  0.00     0.190 HD
ENDROOT
BRANCH   1   5
ATOM      5  N   UNL d   1      25.161 -12.464  -3.903  0.00  0.00    -0.249 N 
ATOM      6  C   UNL d   1      25.910 -12.303  -5.048  0.00  0.00     0.334 C 
ATOM      7  O   UNL d   1      25.651 -11.420  -5.862  0.00  0.00    -0.246 OA
ATOM      8  N   UNL d   1      26.961 -13.169  -5.235  0.00  0.00    -0.342 N 
ATOM      9  H   UNL d   1      27.136 -13.871  -4.543  0.00  0.00     0.164 HD
ATOM     10  H   UNL d   1      24.382 -11.817  -3.762  0.00  0.00     0.192 HD
BRANCH   8  11
ATOM     11  C   UNL d   1      27.809 -13.089  -6.419  0.00  0.00     0.126 C 
BRANCH  11  12
ATOM     12  C   UNL d   1      28.528 -14.406  -6.711  0.00  0.00     0.040 C 
BRANCH  12  13
ATOM     13  C   UNL d   1      29.101 -15.046  -5.446  0.00  0.00     0.130 C 
BRANCH  13  14
ATOM     14  N   UNL d   1      29.821 -16.299  -5.746  0.00  0.00    -0.352 N 
ATOM     15  C   UNL d   1      30.029 -17.359  -4.866  0.00  0.00     0.108 A 
ATOM     16  C   UNL d   1      30.761 -18.298  -5.538  0.00  0.00     0.106 A 
ATOM     17  N   UNL d   1      30.989 -17.783  -6.791  0.00  0.00    -0.361 N 
ATOM     18  C   UNL d   1      30.427 -16.575  -6.914  0.00  0.00     0.182 A 
ATOM     19  H   UNL d   1      31.519 -18.244  -7.528  0.00  0.00     0.166 HD
ENDBRANCH  13  14
ENDBRANCH  12  13
ENDBRANCH  11  12
ENDBRANCH   8  11
ENDBRANCH   1   5
BRANCH   2  20
ATOM     20  C   UNL d   1      25.394 -15.821  -2.191  0.00  0.00     0.048 A 
ATOM     21  C   UNL d   1      24.174 -16.242  -1.642  0.00  0.00     0.045 A 
ATOM     22  C   UNL d   1      24.162 -17.192  -0.619  0.00  0.00     0.040 A 
ATOM     23  N   UNL d   1      25.323 -17.698  -0.138  0.00  0.00    -0.252 NA
ATOM     24  C   UNL d   1      26.495 -17.280  -0.623  0.00  0.00     0.068 A 
ATOM     25  C   UNL d   1      27.649 -17.813  -0.065  0.00  0.00     0.032 A 
ATOM     26  C   UNL d   1      26.600 -16.331  -1.660  0.00  0.00     0.008 A 
ATOM     27  C   UNL d   1      28.916 -17.442  -0.515  0.00  0.00     0.002 A 
ATOM     28  C   UNL d   1      29.034 -16.504  -1.527  0.00  0.00     0.001 A 
ATOM     29  C   UNL d   1      27.891 -15.935  -2.074  0.00  0.00     0.015 A 
BRANCH  22  30
ATOM     30  C   UNL d   1      22.861 -17.704  -0.031  0.00  0.00     0.038 A 
ATOM     31  C   UNL d   1      21.729 -18.157  -0.932  0.00  0.00     0.011 A 
ATOM     32  C   UNL d   1      22.511 -19.171  -0.150  0.00  0.00     0.011 A 
ENDBRANCH  22  30
ENDBRANCH   2  20
TORSDOF 7
ENDMDL
MODEL 2
REMARK VINA RESULT:    -7.581      1.551      2.322
REMARK INTER + INTRA:         -10.710
REMARK INTER:                  -9.669
REMARK INTRA:                  -1.041
REMARK CONF_INDEPENDENT:        2.088
REMARK UNBOUND:                -1.041
REMARK  7 active torsions:
REMARK  status: ('A' for Active; 'I' for Inactive)
REMARK       I    between atoms: C_2  and  N_3 
REMARK       I    between atoms: C_2  and  N_12 
REMARK    1  A    between atoms: N_3  and  C_4 
REMARK    2  A    between atoms: C_4  and  C_5 
REMARK    3  A    between atoms: C_5  and  C_6 
REMARK    4  A    between atoms: C_6  and  N_7 
REMARK    5  A    between atoms: N_12  and  N_13 
REMARK       I    between atoms: N_13  and  C_14 
REMARK    6  A    between atoms: C_14  and  C_16 
REMARK    7  A    between atoms: C_18  and  C_19 
ROOT
ATOM      1  N   UNL d   1      26.685 -15.197  -4.396  0.00  0.00    -0.262 N 
ATOM      2  C   UNL d   1      25.550 -14.978  -3.616  0.00  0.00     0.271 C 
ATOM      3  O   UNL d   1      24.687 -14.146  -3.894  0.00  0.00    -0.266 OA
ATOM      4  H   UNL d   1      27.337 -15.927  -4.158  0.00  0.00     0.190 HD
ENDROOT
BRANCH   1   5
ATOM      5  N   UNL d   1      26.972 -14.350  -5.486  0.00  0.00    -0.249 N 
ATOM      6  C   UNL d   1      28.122 -14.346  -6.244  0.00  0.00     0.334 C 
ATOM      7  O   UNL d   1      28.249 -13.598  -7.210  0.00  0.00    -0.246 OA
ATOM      8  N   UNL d   1      29.123 -15.210  -5.867  0.00  0.00    -0.342 N 
ATOM      9  H   UNL d   1      28.976 -15.799  -5.069  0.00  0.00     0.164 HD
ATOM     10  H   UNL d   1      26.230 -13.704  -5.765  0.00  0.00     0.192 HD
BRANCH   8  11
ATOM     11  C   UNL d   1      30.376 -15.291  -6.607  0.00  0.00     0.126 C 
BRANCH  11  12
ATOM     12  C   UNL d   1      30.611 -16.676  -7.208  0.00  0.00     0.040 C 
BRANCH  12  13
ATOM     13  C   UNL d   1      30.695 -17.766  -6.139  0.00  0.00     0.130 C 
BRANCH  13  14
ATOM     14  N   UNL d   1      31.022 -19.081  -6.722  0.00  0.00    -0.352 N 
ATOM     15  C   UNL d   1      31.616 -19.306  -7.962  0.00  0.00     0.108 A 
ATOM     16  C   UNL d   1      31.710 -20.661  -8.120  0.00  0.00     0.106 A 
ATOM     17  N   UNL d   1      31.164 -21.218  -6.989  0.00  0.00    -0.361 N 
ATOM     18  C   UNL d   1      30.744 -20.266  -6.149  0.00  0.00     0.182 A 
ATOM     19  H   UNL d   1      31.078 -22.217  -6.809  0.00  0.00     0.166 HD
ENDBRANCH  13  14
ENDBRANCH  12  13
ENDBRANCH  11  12
ENDBRANCH   8  11
ENDBRANCH   1   5
BRANCH   2  20
ATOM     20  C   UNL d   1      25.398 -15.840  -2.394  0.00  0.00     0.048 A 
ATOM     21  C   UNL d   1      24.102 -16.126  -1.941  0.00  0.00     0.045 A 
ATOM     22  C   UNL d   1      23.919 -16.938  -0.821  0.00  0.00     0.040 A 
ATOM     23  N   UNL d   1      24.987 -17.438  -0.154  0.00  0.00    -0.252 NA
ATOM     24  C   UNL d   1      26.229 -17.146  -0.549  0.00  0.00     0.068 A 
ATOM     25  C   UNL d   1      27.280 -17.663   0.196  0.00  0.00     0.032 A 
ATOM     26  C   UNL d   1      26.505 -16.341  -1.674  0.00  0.00     0.008 A 
ATOM     27  C   UNL d   1      28.608 -17.418  -0.149  0.00  0.00     0.002 A 
ATOM     28  C   UNL d   1      28.894 -16.622  -1.246  0.00  0.00     0.001 A 
ATOM     29  C   UNL d   1      27.855 -16.067  -1.983  0.00  0.00     0.015 A 
BRANCH  22  30
ATOM     30  C   UNL d   1      22.532 -17.304  -0.326  0.00  0.00     0.038 A 
ATOM     31  C   UNL d   1      21.784 -18.480  -0.922  0.00  0.00     0.011 A 
ATOM     32  C   UNL d   1      22.333 -18.573   0.472  0.00  0.00     0.011 A 
ENDBRANCH  22  30
ENDBRANCH   2  20
TORSDOF 7
ENDMDL
MODEL 3
REMARK VINA RESULT:    -7.478      2.636      8.286
REMARK INTER + INTRA:         -10.832
REMARK INTER:                  -9.566
REMARK INTRA:                  -1.266
REMARK CONF_INDEPENDENT:        2.088
REMARK UNBOUND:                -1.266
REMARK  7 active torsions:
REMARK  status: ('A' for Active; 'I' for Inactive)
REMARK       I    between atoms: C_2  and  N_3 
REMARK       I    between atoms: C_2  and  N_12 
REMARK    1  A    between atoms: N_3  and  C_4 
REMARK    2  A    between atoms: C_4  and  C_5 
REMARK    3  A    between atoms: C_5  and  C_6 
REMARK    4  A    between atoms: C_6  and  N_7 
REMARK    5  A    between atoms: N_12  and  N_13 
REMARK       I    between atoms: N_13  and  C_14 
REMARK    6  A    between atoms: C_14  and  C_16 
REMARK    7  A    between atoms: C_18  and  C_19 
ROOT
ATOM      1  N   UNL d   1      28.259 -17.221  -1.203  0.00  0.00    -0.262 N 
ATOM      2  C   UNL d   1      27.570 -16.071  -1.587  0.00  0.00     0.271 C 
ATOM      3  O   UNL d   1      26.814 -15.453  -0.838  0.00  0.00    -0.266 OA
ATOM      4  H   UNL d   1      28.909 -17.662  -1.833  0.00  0.00     0.190 HD
ENDROOT
BRANCH   1   5
ATOM      5  N   UNL d   1      27.997 -17.822   0.045  0.00  0.00    -0.249 N 
ATOM      6  C   UNL d   1      26.762 -18.160   0.552  0.00  0.00     0.334 C 
ATOM      7  O   UNL d   1      26.649 -18.731   1.633  0.00  0.00    -0.246 OA
ATOM      8  N   UNL d   1      25.663 -17.822  -0.202  0.00  0.00    -0.342 N 
ATOM      9  H   UNL d   1      25.804 -17.354  -1.077  0.00  0.00     0.164 HD
ATOM     10  H   UNL d   1      28.814 -18.070   0.608  0.00  0.00     0.192 HD
BRANCH   8  11
ATOM     11  C   UNL d   1      24.311 -18.143   0.240  0.00  0.00     0.126 C 
BRANCH  11  12
ATOM     12  C   UNL d   1      23.250 -17.730  -0.781  0.00  0.00     0.040 C 
BRANCH  12  13
ATOM     13  C   UNL d   1      22.526 -18.935  -1.384  0.00  0.00     0.130 C 
BRANCH  13  14
ATOM     14  N   UNL d   1      21.224 -19.173  -0.731  0.00  0.00    -0.352 N 
ATOM     15  C   UNL d   1      21.005 -19.326   0.636  0.00  0.00     0.108 A 
ATOM     16  C   UNL d   1      19.668 -19.557   0.803  0.00  0.00     0.106 A 
ATOM     17  N   UNL d   1      19.118 -19.552  -0.456  0.00  0.00    -0.361 N 
ATOM     18  C   UNL d   1      20.057 -19.327  -1.381  0.00  0.00     0.182 A 
ATOM     19  H   UNL d   1      18.133 -19.707  -0.666  0.00  0.00     0.166 HD
ENDBRANCH  13  14
ENDBRANCH  12  13
ENDBRANCH  11  12
ENDBRANCH   8  11
ENDBRANCH   1   5
BRANCH   2  20
ATOM     20  C   UNL d   1      27.809 -15.579  -2.987  0.00  0.00     0.048 A 
ATOM     21  C   UNL d   1      28.809 -16.202  -3.747  0.00  0.00     0.045 A 
ATOM     22  C   UNL d   1      29.049 -15.786  -5.058  0.00  0.00     0.040 A 
ATOM     23  N   UNL d   1      28.334 -14.769  -5.596  0.00  0.00    -0.252 NA
ATOM     24  C   UNL d   1      27.403 -14.140  -4.874  0.00  0.00     0.068 A 
ATOM     25  C   UNL d   1      26.728 -13.085  -5.474  0.00  0.00     0.032 A 
ATOM     26  C   UNL d   1      27.091 -14.499  -3.547  0.00  0.00     0.008 A 
ATOM     27  C   UNL d   1      25.734 -12.378  -4.798  0.00  0.00     0.002 A 
ATOM     28  C   UNL d   1      25.423 -12.714  -3.491  0.00  0.00     0.001 A 
ATOM     29  C   UNL d   1      26.113 -13.744  -2.864  0.00  0.00     0.015 A 
BRANCH  22  30
ATOM     30  C   UNL d   1      30.093 -16.464  -5.925  0.00  0.00     0.038 A 
ATOM     31  C   UNL d   1      30.586 -15.807  -7.199  0.00  0.00     0.011 A 
ATOM     32  C   UNL d   1      31.489 -15.888  -6.004  0.00  0.00     0.011 A 
ENDBRANCH  22  30
ENDBRANCH   2  20
TORSDOF 7
ENDMDL
MODEL 4
REMARK VINA RESULT:    -7.137      2.655      5.571
REMARK INTER + INTRA:         -10.563
REMARK INTER:                  -9.225
REMARK INTRA:                  -1.338
REMARK CONF_INDEPENDENT:        2.088
REMARK UNBOUND:                -1.338
REMARK  7 active torsions:
REMARK  status: ('A' for Active; 'I' for Inactive)
REMARK       I    between atoms: C_2  and  N_3 
REMARK       I    between atoms: C_2  and  N_12 
REMARK    1  A    between atoms: N_3  and  C_4 
REMARK    2  A    between atoms: C_4  and  C_5 
REMARK    3  A    between atoms: C_5  and  C_6 
REMARK    4  A    between atoms: C_6  and  N_7 
REMARK    5  A    between atoms: N_12  and  N_13 
REMARK       I    between atoms: N_13  and  C_14 
REMARK    6  A    between atoms: C_14  and  C_16 
REMARK    7  A    between atoms: C_18  and  C_19 
ROOT
ATOM      1  N   UNL d   1      26.672 -15.149  -4.391  0.00  0.00    -0.262 N 
ATOM      2  C   UNL d   1      25.576 -15.007  -3.540  0.00  0.00     0.271 C 
ATOM      3  O   UNL d   1      24.666 -14.202  -3.736  0.00  0.00    -0.266 OA
ATOM      4  H   UNL d   1      27.364 -15.859  -4.219  0.00  0.00     0.190 HD
ENDROOT
BRANCH   1   5
ATOM      5  N   UNL d   1      26.862 -14.250  -5.460  0.00  0.00    -0.249 N 
ATOM      6  C   UNL d   1      26.860 -12.875  -5.388  0.00  0.00     0.334 C 
ATOM      7  O   UNL d   1      27.090 -12.182  -6.376  0.00  0.00    -0.246 OA
ATOM      8  N   UNL d   1      26.583 -12.313  -4.164  0.00  0.00    -0.342 N 
ATOM      9  H   UNL d   1      26.398 -12.918  -3.387  0.00  0.00     0.164 HD
ATOM     10  H   UNL d   1      27.065 -14.667  -6.372  0.00  0.00     0.192 HD
BRANCH   8  11
ATOM     11  C   UNL d   1      26.565 -10.866  -3.979  0.00  0.00     0.126 C 
BRANCH  11  12
ATOM     12  C   UNL d   1      25.530 -10.177  -4.868  0.00  0.00     0.040 C 
BRANCH  12  13
ATOM     13  C   UNL d   1      25.831  -8.691  -5.064  0.00  0.00     0.130 C 
BRANCH  13  14
ATOM     14  N   UNL d   1      24.595  -7.892  -5.172  0.00  0.00    -0.352 N 
ATOM     15  C   UNL d   1      24.432  -6.570  -4.765  0.00  0.00     0.108 A 
ATOM     16  C   UNL d   1      23.132  -6.232  -5.019  0.00  0.00     0.106 A 
ATOM     17  N   UNL d   1      22.542  -7.350  -5.555  0.00  0.00    -0.361 N 
ATOM     18  C   UNL d   1      23.422  -8.353  -5.641  0.00  0.00     0.182 A 
ATOM     19  H   UNL d   1      21.567  -7.420  -5.841  0.00  0.00     0.166 HD
ENDBRANCH  13  14
ENDBRANCH  12  13
ENDBRANCH  11  12
ENDBRANCH   8  11
ENDBRANCH   1   5
BRANCH   2  20
ATOM     20  C   UNL d   1      25.527 -15.920  -2.347  0.00  0.00     0.048 A 
ATOM     21  C   UNL d   1      24.274 -16.371  -1.908  0.00  0.00     0.045 A 
ATOM     22  C   UNL d   1      24.190 -17.235  -0.815  0.00  0.00     0.040 A 
ATOM     23  N   UNL d   1      25.310 -17.627  -0.162  0.00  0.00    -0.252 NA
ATOM     24  C   UNL d   1      26.508 -17.177  -0.543  0.00  0.00     0.068 A 
ATOM     25  C   UNL d   1      27.614 -17.590   0.188  0.00  0.00     0.032 A 
ATOM     26  C   UNL d   1      26.687 -16.309  -1.640  0.00  0.00     0.008 A 
ATOM     27  C   UNL d   1      28.904 -17.179  -0.145  0.00  0.00     0.002 A 
ATOM     28  C   UNL d   1      29.093 -16.319  -1.214  0.00  0.00     0.001 A 
ATOM     29  C   UNL d   1      27.994 -15.868  -1.936  0.00  0.00     0.015 A 
BRANCH  22  30
ATOM     30  C   UNL d   1      22.856 -17.778  -0.337  0.00  0.00     0.038 A 
ATOM     31  C   UNL d   1      21.967 -18.577  -1.269  0.00  0.00     0.011 A 
ATOM     32  C   UNL d   1      22.681 -19.269  -0.145  0.00  0.00     0.011 A 
ENDBRANCH  22  30
ENDBRANCH   2  20
TORSDOF 7
ENDMDL
MODEL 5
REMARK VINA RESULT:    -7.052      1.384      1.702
REMARK INTER + INTRA:         -11.362
REMARK INTER:                  -9.140
REMARK INTRA:                  -2.222
REMARK CONF_INDEPENDENT:        2.088
REMARK UNBOUND:                -2.222
REMARK  7 active torsions:
REMARK  status: ('A' for Active; 'I' for Inactive)
REMARK       I    between atoms: C_2  and  N_3 
REMARK       I    between atoms: C_2  and  N_12 
REMARK    1  A    between atoms: N_3  and  C_4 
REMARK    2  A    between atoms: C_4  and  C_5 
REMARK    3  A    between atoms: C_5  and  C_6 
REMARK    4  A    between atoms: C_6  and  N_7 
REMARK    5  A    between atoms: N_12  and  N_13 
REMARK       I    between atoms: N_13  and  C_14 
REMARK    6  A    between atoms: C_14  and  C_16 
REMARK    7  A    between atoms: C_18  and  C_19 
ROOT
ATOM      1  N   UNL d   1      25.423 -13.187  -2.784  0.00  0.00    -0.262 N 
ATOM      2  C   UNL d   1      25.203 -14.502  -3.193  0.00  0.00     0.271 C 
ATOM      3  O   UNL d   1      25.022 -14.825  -4.366  0.00  0.00    -0.266 OA
ATOM      4  H   UNL d   1      25.620 -12.978  -1.819  0.00  0.00     0.190 HD
ENDROOT
BRANCH   1   5
ATOM      5  N   UNL d   1      25.300 -12.127  -3.704  0.00  0.00    -0.249 N 
ATOM      6  C   UNL d   1      26.313 -11.558  -4.444  0.00  0.00     0.334 C 
ATOM      7  O   UNL d   1      26.088 -10.670  -5.262  0.00  0.00    -0.246 OA
ATOM      8  N   UNL d   1      27.587 -12.024  -4.221  0.00  0.00    -0.342 N 
ATOM      9  H   UNL d   1      27.724 -12.748  -3.541  0.00  0.00     0.164 HD
ATOM     10  H   UNL d   1      24.353 -11.777  -3.868  0.00  0.00     0.192 HD
BRANCH   8  11
ATOM     11  C   UNL d   1      28.729 -11.495  -4.958  0.00  0.00     0.126 C 
BRANCH  11  12
ATOM     12  C   UNL d   1      28.598 -11.706  -6.466  0.00  0.00     0.040 C 
BRANCH  12  13
ATOM     13  C   UNL d   1      29.233 -13.018  -6.926  0.00  0.00     0.130 C 
BRANCH  13  14
ATOM     14  N   UNL d   1      28.831 -14.150  -6.068  0.00  0.00    -0.352 N 
ATOM     15  C   UNL d   1      29.686 -15.079  -5.478  0.00  0.00     0.108 A 
ATOM     16  C   UNL d   1      28.901 -15.967  -4.796  0.00  0.00     0.106 A 
ATOM     17  N   UNL d   1      27.603 -15.567  -5.000  0.00  0.00    -0.361 N 
ATOM     18  C   UNL d   1      27.560 -14.475  -5.771  0.00  0.00     0.182 A 
ATOM     19  H   UNL d   1      26.779 -16.035  -4.627  0.00  0.00     0.166 HD
ENDBRANCH  13  14
ENDBRANCH  12  13
ENDBRANCH  11  12
ENDBRANCH   8  11
ENDBRANCH   1   5
BRANCH   2  20
ATOM     20  C   UNL d   1      25.218 -15.553  -2.118  0.00  0.00     0.048 A 
ATOM     21  C   UNL d   1      23.991 -16.070  -1.679  0.00  0.00     0.045 A 
ATOM     22  C   UNL d   1      23.965 -17.060  -0.695  0.00  0.00     0.040 A 
ATOM     23  N   UNL d   1      25.118 -17.512  -0.146  0.00  0.00    -0.252 NA
ATOM     24  C   UNL d   1      26.293 -17.004  -0.525  0.00  0.00     0.068 A 
ATOM     25  C   UNL d   1      27.435 -17.487   0.099  0.00  0.00     0.032 A 
ATOM     26  C   UNL d   1      26.412 -16.008  -1.517  0.00  0.00     0.008 A 
ATOM     27  C   UNL d   1      28.705 -17.021  -0.241  0.00  0.00     0.002 A 
ATOM     28  C   UNL d   1      28.836 -16.037  -1.206  0.00  0.00     0.001 A 
ATOM     29  C   UNL d   1      27.701 -15.517  -1.817  0.00  0.00     0.015 A 
BRANCH  22  30
ATOM     30  C   UNL d   1      22.660 -17.675  -0.225  0.00  0.00     0.038 A 
ATOM     31  C   UNL d   1      21.765 -18.424  -1.192  0.00  0.00     0.011 A 
ATOM     32  C   UNL d   1      22.528 -19.179  -0.144  0.00  0.00     0.011 A 
ENDBRANCH  22  30
ENDBRANCH   2  20
TORSDOF 7
ENDMDL
MODEL 6
REMARK VINA RESULT:    -6.870      2.639      4.502
REMARK INTER + INTRA:         -10.799
REMARK INTER:                  -8.958
REMARK INTRA:                  -1.842
REMARK CONF_INDEPENDENT:        2.088
REMARK UNBOUND:                -1.842
REMARK  7 active torsions:
REMARK  status: ('A' for Active; 'I' for Inactive)
REMARK       I    between atoms: C_2  and  N_3 
REMARK       I    between atoms: C_2  and  N_12 
REMARK    1  A    between atoms: N_3  and  C_4 
REMARK    2  A    between atoms: C_4  and  C_5 
REMARK    3  A    between atoms: C_5  and  C_6 
REMARK    4  A    between atoms: C_6  and  N_7 
REMARK    5  A    between atoms: N_12  and  N_13 
REMARK       I    between atoms: N_13  and  C_14 
REMARK    6  A    between atoms: C_14  and  C_16 
REMARK    7  A    between atoms: C_18  and  C_19 
ROOT
ATOM      1  N   UNL d   1      28.531 -16.029   0.154  0.00  0.00    -0.262 N 
ATOM      2  C   UNL d   1      27.762 -17.054  -0.396  0.00  0.00     0.271 C 
ATOM      3  O   UNL d   1      28.164 -18.211  -0.520  0.00  0.00    -0.266 OA
ATOM      4  H   UNL d   1      28.139 -15.111   0.284  0.00  0.00     0.190 HD
ENDROOT
BRANCH   1   5
ATOM      5  N   UNL d   1      29.888 -16.248   0.466  0.00  0.00    -0.249 N 
ATOM      6  C   UNL d   1      30.850 -16.768  -0.372  0.00  0.00     0.334 C 
ATOM      7  O   UNL d   1      32.021 -16.867  -0.016  0.00  0.00    -0.246 OA
ATOM      8  N   UNL d   1      30.440 -17.175  -1.619  0.00  0.00    -0.342 N 
ATOM      9  H   UNL d   1      29.473 -17.077  -1.865  0.00  0.00     0.164 HD
ATOM     10  H   UNL d   1      30.193 -15.949   1.395  0.00  0.00     0.192 HD
BRANCH   8  11
ATOM     11  C   UNL d   1      31.381 -17.730  -2.585  0.00  0.00     0.126 C 
BRANCH  11  12
ATOM     12  C   UNL d   1      30.700 -18.149  -3.888  0.00  0.00     0.040 C 
BRANCH  12  13
ATOM     13  C   UNL d   1      31.307 -17.455  -5.108  0.00  0.00     0.130 C 
BRANCH  13  14
ATOM     14  N   UNL d   1      30.371 -16.481  -5.704  0.00  0.00    -0.352 N 
ATOM     15  C   UNL d   1      29.271 -15.905  -5.073  0.00  0.00     0.108 A 
ATOM     16  C   UNL d   1      28.668 -15.089  -5.988  0.00  0.00     0.106 A 
ATOM     17  N   UNL d   1      29.402 -15.200  -7.144  0.00  0.00    -0.361 N 
ATOM     18  C   UNL d   1      30.425 -16.044  -6.974  0.00  0.00     0.182 A 
ATOM     19  H   UNL d   1      29.197 -14.718  -8.018  0.00  0.00     0.166 HD
ENDBRANCH  13  14
ENDBRANCH  12  13
ENDBRANCH  11  12
ENDBRANCH   8  11
ENDBRANCH   1   5
BRANCH   2  20
ATOM     20  C   UNL d   1      26.368 -16.693  -0.827  0.00  0.00     0.048 A 
ATOM     21  C   UNL d   1      25.297 -17.416  -0.281  0.00  0.00     0.045 A 
ATOM     22  C   UNL d   1      23.987 -17.098  -0.642  0.00  0.00     0.040 A 
ATOM     23  N   UNL d   1      23.741 -16.107  -1.532  0.00  0.00    -0.252 NA
ATOM     24  C   UNL d   1      24.751 -15.434  -2.090  0.00  0.00     0.068 A 
ATOM     25  C   UNL d   1      24.433 -14.452  -3.019  0.00  0.00     0.032 A 
ATOM     26  C   UNL d   1      26.103 -15.683  -1.778  0.00  0.00     0.008 A 
ATOM     27  C   UNL d   1      25.422 -13.693  -3.644  0.00  0.00     0.002 A 
ATOM     28  C   UNL d   1      26.755 -13.933  -3.354  0.00  0.00     0.001 A 
ATOM     29  C   UNL d   1      27.092 -14.935  -2.452  0.00  0.00     0.015 A 
BRANCH  22  30
ATOM     30  C   UNL d   1      22.801 -17.829  -0.040  0.00  0.00     0.038 A 
ATOM     31  C   UNL d   1      21.605 -18.199  -0.895  0.00  0.00     0.011 A 
ATOM     32  C   UNL d   1      22.541 -19.271  -0.416  0.00  0.00     0.011 A 
ENDBRANCH  22  30
ENDBRANCH   2  20
TORSDOF 7
ENDMDL
MODEL 7
REMARK VINA RESULT:    -6.673      4.737      7.259
REMARK INTER + INTRA:         -10.654
REMARK INTER:                  -8.761
REMARK INTRA:                  -1.893
REMARK CONF_INDEPENDENT:        2.088
REMARK UNBOUND:                -1.893
REMARK  7 active torsions:
REMARK  status: ('A' for Active; 'I' for Inactive)
REMARK       I    between atoms: C_2  and  N_3 
REMARK       I    between atoms: C_2  and  N_12 
REMARK    1  A    between atoms: N_3  and  C_4 
REMARK    2  A    between atoms: C_4  and  C_5 
REMARK    3  A    between atoms: C_5  and  C_6 
REMARK    4  A    between atoms: C_6  and  N_7 
REMARK    5  A    between atoms: N_12  and  N_13 
REMARK       I    between atoms: N_13  and  C_14 
REMARK    6  A    between atoms: C_14  and  C_16 
REMARK    7  A    between atoms: C_18  and  C_19 
ROOT
ATOM      1  N   UNL d   1      28.907 -15.556   0.388  0.00  0.00    -0.262 N 
ATOM      2  C   UNL d   1      27.552 -15.313   0.612  0.00  0.00     0.271 C 
ATOM      3  O   UNL d   1      27.129 -14.673   1.574  0.00  0.00    -0.266 OA
ATOM      4  H   UNL d   1      29.210 -16.038  -0.442  0.00  0.00     0.190 HD
ENDROOT
BRANCH   1   5
ATOM      5  N   UNL d   1      29.863 -15.196   1.359  0.00  0.00    -0.249 N 
ATOM      6  C   UNL d   1      30.002 -13.963   1.958  0.00  0.00     0.334 C 
ATOM      7  O   UNL d   1      30.839 -13.768   2.836  0.00  0.00    -0.246 OA
ATOM      8  N   UNL d   1      29.167 -12.960   1.525  0.00  0.00    -0.342 N 
ATOM      9  H   UNL d   1      28.502 -13.164   0.803  0.00  0.00     0.164 HD
ATOM     10  H   UNL d   1      30.487 -15.940   1.679  0.00  0.00     0.192 HD
BRANCH   8  11
ATOM     11  C   UNL d   1      29.227 -11.621   2.100  0.00  0.00     0.126 C 
BRANCH  11  12
ATOM     12  C   UNL d   1      28.244 -11.439   3.256  0.00  0.00     0.040 C 
BRANCH  12  13
ATOM     13  C   UNL d   1      27.424 -12.702   3.524  0.00  0.00     0.130 C 
BRANCH  13  14
ATOM     14  N   UNL d   1      28.002 -13.507   4.618  0.00  0.00    -0.352 N 
ATOM     15  C   UNL d   1      28.885 -13.054   5.595  0.00  0.00     0.108 A 
ATOM     16  C   UNL d   1      29.190 -14.127   6.386  0.00  0.00     0.106 A 
ATOM     17  N   UNL d   1      28.501 -15.196   5.865  0.00  0.00    -0.361 N 
ATOM     18  C   UNL d   1      27.791 -14.823   4.795  0.00  0.00     0.182 A 
ATOM     19  H   UNL d   1      28.530 -16.146   6.230  0.00  0.00     0.166 HD
ENDBRANCH  13  14
ENDBRANCH  12  13
ENDBRANCH  11  12
ENDBRANCH   8  11
ENDBRANCH   1   5
BRANCH   2  20
ATOM     20  C   UNL d   1      26.594 -15.855  -0.411  0.00  0.00     0.048 A 
ATOM     21  C   UNL d   1      25.727 -16.887  -0.025  0.00  0.00     0.045 A 
ATOM     22  C   UNL d   1      24.810 -17.405  -0.942  0.00  0.00     0.040 A 
ATOM     23  N   UNL d   1      24.763 -16.929  -2.209  0.00  0.00    -0.252 NA
ATOM     24  C   UNL d   1      25.607 -15.972  -2.604  0.00  0.00     0.068 A 
ATOM     25  C   UNL d   1      25.530 -15.551  -3.925  0.00  0.00     0.032 A 
ATOM     26  C   UNL d   1      26.559 -15.388  -1.744  0.00  0.00     0.008 A 
ATOM     27  C   UNL d   1      26.365 -14.550  -4.421  0.00  0.00     0.002 A 
ATOM     28  C   UNL d   1      27.311 -13.974  -3.590  0.00  0.00     0.001 A 
ATOM     29  C   UNL d   1      27.425 -14.407  -2.274  0.00  0.00     0.015 A 
BRANCH  22  30
ATOM     30  C   UNL d   1      23.826 -18.492  -0.550  0.00  0.00     0.038 A 
ATOM     31  C   UNL d   1      22.361 -18.169  -0.333  0.00  0.00     0.011 A 
ATOM     32  C   UNL d   1      22.782 -18.950  -1.543  0.00  0.00     0.011 A 
ENDBRANCH  22  30
ENDBRANCH   2  20
TORSDOF 7
ENDMDL
MODEL 8
REMARK VINA RESULT:    -6.581      0.887      3.450
REMARK INTER + INTRA:         -10.494
REMARK INTER:                  -8.669
REMARK INTRA:                  -1.825
REMARK CONF_INDEPENDENT:        2.088
REMARK UNBOUND:                -1.825
REMARK  7 active torsions:
REMARK  status: ('A' for Active; 'I' for Inactive)
REMARK       I    between atoms: C_2  and  N_3 
REMARK       I    between atoms: C_2  and  N_12 
REMARK    1  A    between atoms: N_3  and  C_4 
REMARK    2  A    between atoms: C_4  and  C_5 
REMARK    3  A    between atoms: C_5  and  C_6 
REMARK    4  A    between atoms: C_6  and  N_7 
REMARK    5  A    between atoms: N_12  and  N_13 
REMARK       I    between atoms: N_13  and  C_14 
REMARK    6  A    between atoms: C_14  and  C_16 
REMARK    7  A    between atoms: C_18  and  C_19 
ROOT
ATOM      1  N   UNL d   1      25.702 -13.658  -2.873  0.00  0.00    -0.262 N 
ATOM      2  C   UNL d   1      25.962 -14.972  -3.263  0.00  0.00     0.271 C 
ATOM      3  O   UNL d   1      25.968 -15.342  -4.436  0.00  0.00    -0.266 OA
ATOM      4  H   UNL d   1      25.761 -13.391  -1.904  0.00  0.00     0.190 HD
ENDROOT
BRANCH   1   5
ATOM      5  N   UNL d   1      25.280 -12.706  -3.823  0.00  0.00    -0.249 N 
ATOM      6  C   UNL d   1      25.890 -12.418  -5.024  0.00  0.00     0.334 C 
ATOM      7  O   UNL d   1      25.408 -11.603  -5.807  0.00  0.00    -0.246 OA
ATOM      8  N   UNL d   1      27.064 -13.077  -5.304  0.00  0.00    -0.342 N 
ATOM      9  H   UNL d   1      27.422 -13.730  -4.633  0.00  0.00     0.164 HD
ATOM     10  H   UNL d   1      24.409 -12.213  -3.614  0.00  0.00     0.192 HD
BRANCH   8  11
ATOM     11  C   UNL d   1      27.783 -12.850  -6.552  0.00  0.00     0.126 C 
BRANCH  11  12
ATOM     12  C   UNL d   1      28.899 -13.871  -6.775  0.00  0.00     0.040 C 
BRANCH  12  13
ATOM     13  C   UNL d   1      29.291 -14.593  -5.486  0.00  0.00     0.130 C 
BRANCH  13  14
ATOM     14  N   UNL d   1      29.864 -15.926  -5.758  0.00  0.00    -0.352 N 
ATOM     15  C   UNL d   1      30.405 -16.358  -6.966  0.00  0.00     0.108 A 
ATOM     16  C   UNL d   1      30.790 -17.657  -6.790  0.00  0.00     0.106 A 
ATOM     17  N   UNL d   1      30.463 -17.982  -5.496  0.00  0.00    -0.361 N 
ATOM     18  C   UNL d   1      29.899 -16.940  -4.875  0.00  0.00     0.182 A 
ATOM     19  H   UNL d   1      30.616 -18.891  -5.062  0.00  0.00     0.166 HD
ENDBRANCH  13  14
ENDBRANCH  12  13
ENDBRANCH  11  12
ENDBRANCH   8  11
ENDBRANCH   1   5
BRANCH   2  20
ATOM     20  C   UNL d   1      26.270 -15.951  -2.164  0.00  0.00     0.048 A 
ATOM     21  C   UNL d   1      27.614 -16.244  -1.895  0.00  0.00     0.045 A 
ATOM     22  C   UNL d   1      27.941 -17.134  -0.870  0.00  0.00     0.040 A 
ATOM     23  N   UNL d   1      26.966 -17.733  -0.145  0.00  0.00    -0.252 NA
ATOM     24  C   UNL d   1      25.680 -17.494  -0.413  0.00  0.00     0.068 A 
ATOM     25  C   UNL d   1      24.729 -18.164   0.346  0.00  0.00     0.032 A 
ATOM     26  C   UNL d   1      25.260 -16.604  -1.423  0.00  0.00     0.008 A 
ATOM     27  C   UNL d   1      23.364 -17.968   0.143  0.00  0.00     0.002 A 
ATOM     28  C   UNL d   1      22.937 -17.104  -0.852  0.00  0.00     0.001 A 
ATOM     29  C   UNL d   1      23.874 -16.451  -1.644  0.00  0.00     0.015 A 
BRANCH  22  30
ATOM     30  C   UNL d   1      29.384 -17.444  -0.521  0.00  0.00     0.038 A 
ATOM     31  C   UNL d   1      30.390 -17.771  -1.607  0.00  0.00     0.011 A 
ATOM     32  C   UNL d   1      30.471 -16.457  -0.887  0.00  0.00     0.011 A 
ENDBRANCH  22  30
ENDBRANCH   2  20
TORSDOF 7
ENDMDL
MODEL 9
REMARK VINA RESULT:    -6.495      2.559      5.045
REMARK INTER + INTRA:         -10.630
REMARK INTER:                  -8.583
REMARK INTRA:                  -2.047
REMARK CONF_INDEPENDENT:        2.088
REMARK UNBOUND:                -2.047
REMARK  7 active torsions:
REMARK  status: ('A' for Active; 'I' for Inactive)
REMARK       I    between atoms: C_2  and  N_3 
REMARK       I    between atoms: C_2  and  N_12 
REMARK    1  A    between atoms: N_3  and  C_4 
REMARK    2  A    between atoms: C_4  and  C_5 
REMARK    3  A    between atoms: C_5  and  C_6 
REMARK    4  A    between atoms: C_6  and  N_7 
REMARK    5  A    between atoms: N_12  and  N_13 
REMARK       I    between atoms: N_13  and  C_14 
REMARK    6  A    between atoms: C_14  and  C_16 
REMARK    7  A    between atoms: C_18  and  C_19 
ROOT
ATOM      1  N   UNL d   1      28.539 -16.050  -0.144  0.00  0.00    -0.262 N 
ATOM      2  C   UNL d   1      27.987 -16.549  -1.324  0.00  0.00     0.271 C 
ATOM      3  O   UNL d   1      28.576 -17.330  -2.070  0.00  0.00    -0.266 OA
ATOM      4  H   UNL d   1      27.998 -15.456   0.462  0.00  0.00     0.190 HD
ENDROOT
BRANCH   1   5
ATOM      5  N   UNL d   1      29.886 -16.312   0.176  0.00  0.00    -0.249 N 
ATOM      6  C   UNL d   1      30.977 -16.127  -0.645  0.00  0.00     0.334 C 
ATOM      7  O   UNL d   1      32.120 -16.338  -0.247  0.00  0.00    -0.246 OA
ATOM      8  N   UNL d   1      30.729 -15.703  -1.929  0.00  0.00    -0.342 N 
ATOM      9  H   UNL d   1      29.780 -15.547  -2.210  0.00  0.00     0.164 HD
ATOM     10  H   UNL d   1      30.071 -16.632   1.130  0.00  0.00     0.192 HD
BRANCH   8  11
ATOM     11  C   UNL d   1      31.814 -15.468  -2.874  0.00  0.00     0.126 C 
BRANCH  11  12
ATOM     12  C   UNL d   1      31.964 -16.606  -3.884  0.00  0.00     0.040 C 
BRANCH  12  13
ATOM     13  C   UNL d   1      30.614 -17.181  -4.314  0.00  0.00     0.130 C 
BRANCH  13  14
ATOM     14  N   UNL d   1      29.891 -16.265  -5.217  0.00  0.00    -0.352 N 
ATOM     15  C   UNL d   1      28.774 -15.500  -4.891  0.00  0.00     0.108 A 
ATOM     16  C   UNL d   1      28.409 -14.823  -6.021  0.00  0.00     0.106 A 
ATOM     17  N   UNL d   1      29.297 -15.202  -6.998  0.00  0.00    -0.361 N 
ATOM     18  C   UNL d   1      30.187 -16.076  -6.515  0.00  0.00     0.182 A 
ATOM     19  H   UNL d   1      29.283 -14.875  -7.963  0.00  0.00     0.166 HD
ENDBRANCH  13  14
ENDBRANCH  12  13
ENDBRANCH  11  12
ENDBRANCH   8  11
ENDBRANCH   1   5
BRANCH   2  20
ATOM     20  C   UNL d   1      26.589 -16.105  -1.653  0.00  0.00     0.048 A 
ATOM     21  C   UNL d   1      26.427 -15.019  -2.524  0.00  0.00     0.045 A 
ATOM     22  C   UNL d   1      25.144 -14.588  -2.868  0.00  0.00     0.040 A 
ATOM     23  N   UNL d   1      24.053 -15.201  -2.351  0.00  0.00    -0.252 NA
ATOM     24  C   UNL d   1      24.189 -16.213  -1.490  0.00  0.00     0.068 A 
ATOM     25  C   UNL d   1      23.032 -16.778  -0.971  0.00  0.00     0.032 A 
ATOM     26  C   UNL d   1      25.445 -16.717  -1.094  0.00  0.00     0.008 A 
ATOM     27  C   UNL d   1      23.080 -17.845  -0.075  0.00  0.00     0.002 A 
ATOM     28  C   UNL d   1      24.306 -18.344   0.330  0.00  0.00     0.001 A 
ATOM     29  C   UNL d   1      25.476 -17.768  -0.152  0.00  0.00     0.015 A 
BRANCH  22  30
ATOM     30  C   UNL d   1      24.927 -13.444  -3.841  0.00  0.00     0.038 A 
ATOM     31  C   UNL d   1      25.530 -12.079  -3.577  0.00  0.00     0.011 A 
ATOM     32  C   UNL d   1      26.086 -12.940  -4.673  0.00  0.00     0.011 A 
ENDBRANCH  22  30
ENDBRANCH   2  20
TORSDOF 7
ENDMDL
