MODEL 1
REMARK VINA RESULT:    -8.436      0.000      0.000
REMARK INTER + INTRA:         -10.748
REMARK INTER:                  -9.629
REMARK INTRA:                  -1.119
REMARK CONF_INDEPENDENT:        1.193
REMARK UNBOUND:                -1.119
REMARK  4 active torsions:
REMARK  status: ('A' for Active; 'I' for Inactive)
REMARK       I    between atoms: C_2  and  N_3 
REMARK    1  A    between atoms: C_2  and  C_15 
REMARK    2  A    between atoms: N_3  and  N_4 
REMARK       I    between atoms: N_4  and  C_5 
REMARK    3  A    between atoms: C_5  and  C_7 
REMARK    4  A    between atoms: C_19  and  O_20 
ROOT
ATOM      1  O   UNL d   1      20.595 -17.951  -1.270  0.00  0.00    -0.266 OA
ATOM      2  C   UNL d   1      21.035 -18.667  -0.370  0.00  0.00     0.270 C 
ATOM      3  N   UNL d   1      22.389 -18.739  -0.061  0.00  0.00    -0.263 N 
ATOM      4  H   UNL d   1      22.782 -19.403   0.605  0.00  0.00     0.190 HD
ENDROOT
BRANCH   3   5
ATOM      5  N   UNL d   1      23.321 -17.949  -0.798  0.00  0.00    -0.263 N 
ATOM      6  C   UNL d   1      24.641 -17.873  -0.373  0.00  0.00     0.270 C 
ATOM      7  O   UNL d   1      25.063 -18.464   0.623  0.00  0.00    -0.266 OA
ATOM      8  H   UNL d   1      22.979 -17.561  -1.676  0.00  0.00     0.190 HD
BRANCH   6   9
ATOM      9  C   UNL d   1      25.585 -17.043  -1.188  0.00  0.00     0.039 A 
ATOM     10  C   UNL d   1      26.965 -17.069  -0.956  0.00  0.00     0.059 A 
ATOM     11  C   UNL d   1      27.819 -16.305  -1.760  0.00  0.00     0.120 A 
ATOM     12  F   UNL d   1      29.140 -16.347  -1.538  0.00  0.00    -0.206 F 
ATOM     13  C   UNL d   1      27.333 -15.506  -2.785  0.00  0.00     0.084 A 
ATOM     14  C   UNL d   1      25.966 -15.499  -3.023  0.00  0.00     0.120 A 
ATOM     15  F   UNL d   1      25.482 -14.733  -4.010  0.00  0.00    -0.206 F 
ATOM     16  C   UNL d   1      25.092 -16.270  -2.252  0.00  0.00     0.059 A 
ENDBRANCH   6   9
ENDBRANCH   3   5
BRANCH   2  17
ATOM     17  C   UNL d   1      20.098 -19.518   0.432  0.00  0.00     0.036 A 
ATOM     18  C   UNL d   1      20.269 -19.630   1.823  0.00  0.00     0.017 A 
ATOM     19  C   UNL d   1      19.422 -20.450   2.586  0.00  0.00     0.004 A 
ATOM     20  C   UNL d   1      18.406 -21.178   1.965  0.00  0.00     0.036 A 
ATOM     21  C   UNL d   1      18.251 -21.079   0.584  0.00  0.00     0.066 A 
ATOM     22  C   UNL d   1      19.088 -20.264  -0.184  0.00  0.00     0.053 A 
BRANCH  21  23
ATOM     23  O   UNL d   1      17.280 -21.776  -0.076  0.00  0.00    -0.361 OA
ATOM     24  H   UNL d   1      17.277 -22.699   0.230  0.00  0.00     0.217 HD
ENDBRANCH  21  23
ENDBRANCH   2  17
TORSDOF 4
ENDMDL
MODEL 2
REMARK VINA RESULT:    -8.403      0.196      1.784
REMARK INTER + INTRA:         -10.739
REMARK INTER:                  -9.596
REMARK INTRA:                  -1.143
REMARK CONF_INDEPENDENT:        1.193
REMARK UNBOUND:                -1.143
REMARK  4 active torsions:
REMARK  status: ('A' for Active; 'I' for Inactive)
REMARK       I    between atoms: C_2  and  N_3 
REMARK    1  A    between atoms: C_2  and  C_15 
REMARK    2  A    between atoms: N_3  and  N_4 
REMARK       I    between atoms: N_4  and  C_5 
REMARK    3  A    between atoms: C_5  and  C_7 
REMARK    4  A    between atoms: C_19  and  O_20 
ROOT
ATOM      1  O   UNL d   1      20.592 -17.873  -1.270  0.00  0.00    -0.266 OA
ATOM      2  C   UNL d   1      21.034 -18.607  -0.385  0.00  0.00     0.270 C 
ATOM      3  N   UNL d   1      22.388 -18.685  -0.081  0.00  0.00    -0.263 N 
ATOM      4  H   UNL d   1      22.783 -19.362   0.571  0.00  0.00     0.190 HD
ENDROOT
BRANCH   3   5
ATOM      5  N   UNL d   1      23.319 -17.880  -0.803  0.00  0.00    -0.263 N 
ATOM      6  C   UNL d   1      24.660 -17.892  -0.444  0.00  0.00     0.270 C 
ATOM      7  O   UNL d   1      25.102 -18.575   0.482  0.00  0.00    -0.266 OA
ATOM      8  H   UNL d   1      22.952 -17.410  -1.630  0.00  0.00     0.190 HD
BRANCH   6   9
ATOM      9  C   UNL d   1      25.600 -17.041  -1.241  0.00  0.00     0.039 A 
ATOM     10  C   UNL d   1      25.176 -16.367  -2.392  0.00  0.00     0.059 A 
ATOM     11  C   UNL d   1      26.075 -15.554  -3.092  0.00  0.00     0.120 A 
ATOM     12  F   UNL d   1      25.655 -14.902  -4.184  0.00  0.00    -0.206 F 
ATOM     13  C   UNL d   1      27.391 -15.403  -2.681  0.00  0.00     0.084 A 
ATOM     14  C   UNL d   1      27.802 -16.057  -1.530  0.00  0.00     0.120 A 
ATOM     15  F   UNL d   1      29.071 -15.920  -1.120  0.00  0.00    -0.206 F 
ATOM     16  C   UNL d   1      26.920 -16.856  -0.796  0.00  0.00     0.059 A 
ENDBRANCH   6   9
ENDBRANCH   3   5
BRANCH   2  17
ATOM     17  C   UNL d   1      20.099 -19.474   0.402  0.00  0.00     0.036 A 
ATOM     18  C   UNL d   1      20.274 -19.615   1.790  0.00  0.00     0.017 A 
ATOM     19  C   UNL d   1      19.428 -20.450   2.538  0.00  0.00     0.004 A 
ATOM     20  C   UNL d   1      18.411 -21.166   1.905  0.00  0.00     0.036 A 
ATOM     21  C   UNL d   1      18.253 -21.039   0.527  0.00  0.00     0.066 A 
ATOM     22  C   UNL d   1      19.087 -20.208  -0.227  0.00  0.00     0.053 A 
BRANCH  21  23
ATOM     23  O   UNL d   1      17.280 -21.722  -0.145  0.00  0.00    -0.361 OA
ATOM     24  H   UNL d   1      17.169 -22.603   0.251  0.00  0.00     0.217 HD
ENDBRANCH  21  23
ENDBRANCH   2  17
TORSDOF 4
ENDMDL
MODEL 3
REMARK VINA RESULT:    -8.291      3.774      8.399
REMARK INTER + INTRA:         -10.636
REMARK INTER:                  -9.485
REMARK INTRA:                  -1.151
REMARK CONF_INDEPENDENT:        1.193
REMARK UNBOUND:                -1.151
REMARK  4 active torsions:
REMARK  status: ('A' for Active; 'I' for Inactive)
REMARK       I    between atoms: C_2  and  N_3 
REMARK    1  A    between atoms: C_2  and  C_15 
REMARK    2  A    between atoms: N_3  and  N_4 
REMARK       I    between atoms: N_4  and  C_5 
REMARK    3  A    between atoms: C_5  and  C_7 
REMARK    4  A    between atoms: C_19  and  O_20 
ROOT
ATOM      1  O   UNL d   1      25.124 -18.479   0.436  0.00  0.00    -0.266 OA
ATOM      2  C   UNL d   1      24.664 -17.781  -0.469  0.00  0.00     0.270 C 
ATOM      3  N   UNL d   1      23.315 -17.781  -0.806  0.00  0.00    -0.263 N 
ATOM      4  H   UNL d   1      22.935 -17.294  -1.617  0.00  0.00     0.190 HD
ENDROOT
BRANCH   3   5
ATOM      5  N   UNL d   1      22.408 -18.607  -0.077  0.00  0.00    -0.263 N 
ATOM      6  C   UNL d   1      21.054 -18.575  -0.384  0.00  0.00     0.270 C 
ATOM      7  O   UNL d   1      20.582 -17.861  -1.270  0.00  0.00    -0.266 OA
ATOM      8  H   UNL d   1      22.833 -19.267   0.573  0.00  0.00     0.190 HD
BRANCH   6   9
ATOM      9  C   UNL d   1      20.144 -19.471   0.399  0.00  0.00     0.039 A 
ATOM     10  C   UNL d   1      20.291 -19.630   1.782  0.00  0.00     0.059 A 
ATOM     11  C   UNL d   1      19.400 -20.450   2.485  0.00  0.00     0.120 A 
ATOM     12  F   UNL d   1      19.541 -20.586   3.810  0.00  0.00    -0.206 F 
ATOM     13  C   UNL d   1      18.370 -21.123   1.844  0.00  0.00     0.084 A 
ATOM     14  C   UNL d   1      18.216 -20.946   0.477  0.00  0.00     0.120 A 
ATOM     15  F   UNL d   1      17.226 -21.590  -0.155  0.00  0.00    -0.206 F 
ATOM     16  C   UNL d   1      19.076 -20.115  -0.247  0.00  0.00     0.059 A 
ENDBRANCH   6   9
ENDBRANCH   3   5
BRANCH   2  17
ATOM     17  C   UNL d   1      25.575 -16.898  -1.266  0.00  0.00     0.036 A 
ATOM     18  C   UNL d   1      26.863 -16.605  -0.785  0.00  0.00     0.017 A 
ATOM     19  C   UNL d   1      27.718 -15.751  -1.502  0.00  0.00     0.004 A 
ATOM     20  C   UNL d   1      27.290 -15.170  -2.696  0.00  0.00     0.036 A 
ATOM     21  C   UNL d   1      26.006 -15.448  -3.159  0.00  0.00     0.066 A 
ATOM     22  C   UNL d   1      25.148 -16.298  -2.455  0.00  0.00     0.053 A 
BRANCH  21  23
ATOM     23  O   UNL d   1      25.531 -14.900  -4.316  0.00  0.00    -0.361 OA
ATOM     24  H   UNL d   1      25.713 -13.945  -4.322  0.00  0.00     0.217 HD
ENDBRANCH  21  23
ENDBRANCH   2  17
TORSDOF 4
ENDMDL
MODEL 4
REMARK VINA RESULT:    -8.241      3.788      8.535
REMARK INTER + INTRA:         -10.524
REMARK INTER:                  -9.434
REMARK INTRA:                  -1.089
REMARK CONF_INDEPENDENT:        1.193
REMARK UNBOUND:                -1.089
REMARK  4 active torsions:
REMARK  status: ('A' for Active; 'I' for Inactive)
REMARK       I    between atoms: C_2  and  N_3 
REMARK    1  A    between atoms: C_2  and  C_15 
REMARK    2  A    between atoms: N_3  and  N_4 
REMARK       I    between atoms: N_4  and  C_5 
REMARK    3  A    between atoms: C_5  and  C_7 
REMARK    4  A    between atoms: C_19  and  O_20 
ROOT
ATOM      1  O   UNL d   1      25.026 -18.411   0.586  0.00  0.00    -0.266 OA
ATOM      2  C   UNL d   1      24.603 -17.850  -0.426  0.00  0.00     0.270 C 
ATOM      3  N   UNL d   1      23.285 -17.965  -0.854  0.00  0.00    -0.263 N 
ATOM      4  H   UNL d   1      22.945 -17.598  -1.742  0.00  0.00     0.190 HD
ENDROOT
BRANCH   3   5
ATOM      5  N   UNL d   1      22.366 -18.751  -0.096  0.00  0.00    -0.263 N 
ATOM      6  C   UNL d   1      21.008 -18.682  -0.380  0.00  0.00     0.270 C 
ATOM      7  O   UNL d   1      20.543 -17.968  -1.270  0.00  0.00    -0.266 OA
ATOM      8  H   UNL d   1      22.781 -19.414   0.557  0.00  0.00     0.190 HD
BRANCH   6   9
ATOM      9  C   UNL d   1      20.085 -19.537   0.433  0.00  0.00     0.039 A 
ATOM     10  C   UNL d   1      19.066 -20.285  -0.167  0.00  0.00     0.059 A 
ATOM     11  C   UNL d   1      18.244 -21.098   0.622  0.00  0.00     0.120 A 
ATOM     12  F   UNL d   1      17.280 -21.820   0.037  0.00  0.00    -0.206 F 
ATOM     13  C   UNL d   1      18.405 -21.178   1.998  0.00  0.00     0.084 A 
ATOM     14  C   UNL d   1      19.429 -20.450   2.586  0.00  0.00     0.120 A 
ATOM     15  F   UNL d   1      19.597 -20.518   3.914  0.00  0.00    -0.206 F 
ATOM     16  C   UNL d   1      20.280 -19.648   1.820  0.00  0.00     0.059 A 
ENDBRANCH   6   9
ENDBRANCH   3   5
BRANCH   2  17
ATOM     17  C   UNL d   1      25.528 -17.016  -1.258  0.00  0.00     0.036 A 
ATOM     18  C   UNL d   1      26.877 -16.881  -0.884  0.00  0.00     0.017 A 
ATOM     19  C   UNL d   1      27.751 -16.075  -1.632  0.00  0.00     0.004 A 
ATOM     20  C   UNL d   1      27.283 -15.383  -2.751  0.00  0.00     0.036 A 
ATOM     21  C   UNL d   1      25.942 -15.505  -3.107  0.00  0.00     0.066 A 
ATOM     22  C   UNL d   1      25.064 -16.306  -2.371  0.00  0.00     0.053 A 
BRANCH  21  23
ATOM     23  O   UNL d   1      25.429 -14.844  -4.186  0.00  0.00    -0.361 OA
ATOM     24  H   UNL d   1      25.967 -15.038  -4.972  0.00  0.00     0.217 HD
ENDBRANCH  21  23
ENDBRANCH   2  17
TORSDOF 4
ENDMDL
MODEL 5
REMARK VINA RESULT:    -6.590      1.705      2.731
REMARK INTER + INTRA:          -8.335
REMARK INTER:                  -7.783
REMARK INTRA:                  -0.552
REMARK CONF_INDEPENDENT:        1.193
REMARK UNBOUND:                -0.552
REMARK  4 active torsions:
REMARK  status: ('A' for Active; 'I' for Inactive)
REMARK       I    between atoms: C_2  and  N_3 
REMARK    1  A    between atoms: C_2  and  C_15 
REMARK    2  A    between atoms: N_3  and  N_4 
REMARK       I    between atoms: N_4  and  C_5 
REMARK    3  A    between atoms: C_5  and  C_7 
REMARK    4  A    between atoms: C_19  and  O_20 
ROOT
ATOM      1  O   UNL d   1      22.293 -19.329  -1.608  0.00  0.00    -0.266 OA
ATOM      2  C   UNL d   1      21.912 -18.906  -0.516  0.00  0.00     0.270 C 
ATOM      3  N   UNL d   1      22.568 -17.887   0.165  0.00  0.00    -0.263 N 
ATOM      4  H   UNL d   1      22.332 -17.599   1.114  0.00  0.00     0.190 HD
ENDROOT
BRANCH   3   5
ATOM      5  N   UNL d   1      23.725 -17.285  -0.414  0.00  0.00    -0.263 N 
ATOM      6  C   UNL d   1      23.591 -16.126  -1.167  0.00  0.00     0.270 C 
ATOM      7  O   UNL d   1      22.507 -15.575  -1.365  0.00  0.00    -0.266 OA
ATOM      8  H   UNL d   1      24.619 -17.694  -0.146  0.00  0.00     0.190 HD
BRANCH   6   9
ATOM      9  C   UNL d   1      24.836 -15.524  -1.742  0.00  0.00     0.039 A 
ATOM     10  C   UNL d   1      24.779 -14.492  -2.685  0.00  0.00     0.059 A 
ATOM     11  C   UNL d   1      25.964 -13.931  -3.174  0.00  0.00     0.120 A 
ATOM     12  F   UNL d   1      25.899 -12.934  -4.066  0.00  0.00    -0.206 F 
ATOM     13  C   UNL d   1      27.209 -14.380  -2.755  0.00  0.00     0.084 A 
ATOM     14  C   UNL d   1      27.260 -15.390  -1.806  0.00  0.00     0.120 A 
ATOM     15  F   UNL d   1      28.455 -15.834  -1.392  0.00  0.00    -0.206 F 
ATOM     16  C   UNL d   1      26.093 -15.952  -1.282  0.00  0.00     0.059 A 
ENDBRANCH   6   9
ENDBRANCH   3   5
BRANCH   2  17
ATOM     17  C   UNL d   1      20.704 -19.506   0.136  0.00  0.00     0.036 A 
ATOM     18  C   UNL d   1      19.563 -19.797  -0.634  0.00  0.00     0.017 A 
ATOM     19  C   UNL d   1      18.410 -20.328  -0.034  0.00  0.00     0.004 A 
ATOM     20  C   UNL d   1      18.377 -20.558   1.342  0.00  0.00     0.036 A 
ATOM     21  C   UNL d   1      19.502 -20.251   2.104  0.00  0.00     0.066 A 
ATOM     22  C   UNL d   1      20.657 -19.725   1.517  0.00  0.00     0.053 A 
BRANCH  21  23
ATOM     23  O   UNL d   1      19.523 -20.448   3.455  0.00  0.00    -0.361 OA
ATOM     24  H   UNL d   1      19.714 -21.382   3.645  0.00  0.00     0.217 HD
ENDBRANCH  21  23
ENDBRANCH   2  17
TORSDOF 4
ENDMDL
MODEL 6
REMARK VINA RESULT:    -6.509      1.610      1.952
REMARK INTER + INTRA:          -8.854
REMARK INTER:                  -7.702
REMARK INTRA:                  -1.152
REMARK CONF_INDEPENDENT:        1.193
REMARK UNBOUND:                -1.152
REMARK  4 active torsions:
REMARK  status: ('A' for Active; 'I' for Inactive)
REMARK       I    between atoms: C_2  and  N_3 
REMARK    1  A    between atoms: C_2  and  C_15 
REMARK    2  A    between atoms: N_3  and  N_4 
REMARK       I    between atoms: N_4  and  C_5 
REMARK    3  A    between atoms: C_5  and  C_7 
REMARK    4  A    between atoms: C_19  and  O_20 
ROOT
ATOM      1  O   UNL d   1      21.481 -17.105  -0.962  0.00  0.00    -0.266 OA
ATOM      2  C   UNL d   1      21.803 -18.062  -0.256  0.00  0.00     0.270 C 
ATOM      3  N   UNL d   1      23.121 -18.324   0.098  0.00  0.00    -0.263 N 
ATOM      4  H   UNL d   1      23.417 -19.166   0.589  0.00  0.00     0.190 HD
ENDROOT
BRANCH   3   5
ATOM      5  N   UNL d   1      24.158 -17.454  -0.355  0.00  0.00    -0.263 N 
ATOM      6  C   UNL d   1      25.469 -17.687   0.038  0.00  0.00     0.270 C 
ATOM      7  O   UNL d   1      25.796 -18.624   0.767  0.00  0.00    -0.266 OA
ATOM      8  H   UNL d   1      23.881 -16.754  -1.043  0.00  0.00     0.190 HD
BRANCH   6   9
ATOM      9  C   UNL d   1      26.523 -16.754  -0.475  0.00  0.00     0.039 A 
ATOM     10  C   UNL d   1      27.825 -17.197  -0.734  0.00  0.00     0.059 A 
ATOM     11  C   UNL d   1      28.774 -16.303  -1.244  0.00  0.00     0.120 A 
ATOM     12  F   UNL d   1      30.014 -16.740  -1.501  0.00  0.00    -0.206 F 
ATOM     13  C   UNL d   1      28.462 -14.974  -1.495  0.00  0.00     0.084 A 
ATOM     14  C   UNL d   1      27.165 -14.546  -1.256  0.00  0.00     0.120 A 
ATOM     15  F   UNL d   1      26.848 -13.265  -1.494  0.00  0.00    -0.206 F 
ATOM     16  C   UNL d   1      26.190 -15.421  -0.769  0.00  0.00     0.059 A 
ENDBRANCH   6   9
ENDBRANCH   3   5
BRANCH   2  17
ATOM     17  C   UNL d   1      20.753 -19.007   0.243  0.00  0.00     0.036 A 
ATOM     18  C   UNL d   1      19.796 -19.524  -0.648  0.00  0.00     0.017 A 
ATOM     19  C   UNL d   1      18.783 -20.384  -0.192  0.00  0.00     0.004 A 
ATOM     20  C   UNL d   1      18.707 -20.723   1.160  0.00  0.00     0.036 A 
ATOM     21  C   UNL d   1      19.646 -20.193   2.042  0.00  0.00     0.066 A 
ATOM     22  C   UNL d   1      20.659 -19.338   1.598  0.00  0.00     0.053 A 
BRANCH  21  23
ATOM     23  O   UNL d   1      19.613 -20.483   3.376  0.00  0.00    -0.361 OA
ATOM     24  H   UNL d   1      18.874 -21.087   3.560  0.00  0.00     0.217 HD
ENDBRANCH  21  23
ENDBRANCH   2  17
TORSDOF 4
ENDMDL
MODEL 7
REMARK VINA RESULT:    -6.198      2.444      3.185
REMARK INTER + INTRA:          -8.541
REMARK INTER:                  -7.391
REMARK INTRA:                  -1.150
REMARK CONF_INDEPENDENT:        1.193
REMARK UNBOUND:                -1.150
REMARK  4 active torsions:
REMARK  status: ('A' for Active; 'I' for Inactive)
REMARK       I    between atoms: C_2  and  N_3 
REMARK    1  A    between atoms: C_2  and  C_15 
REMARK    2  A    between atoms: N_3  and  N_4 
REMARK       I    between atoms: N_4  and  C_5 
REMARK    3  A    between atoms: C_5  and  C_7 
REMARK    4  A    between atoms: C_19  and  O_20 
ROOT
ATOM      1  O   UNL d   1      22.756 -16.487  -0.968  0.00  0.00    -0.266 OA
ATOM      2  C   UNL d   1      22.905 -17.564  -0.390  0.00  0.00     0.270 C 
ATOM      3  N   UNL d   1      24.139 -17.999   0.081  0.00  0.00    -0.263 N 
ATOM      4  H   UNL d   1      24.301 -18.929   0.465  0.00  0.00     0.190 HD
ENDROOT
BRANCH   3   5
ATOM      5  N   UNL d   1      25.289 -17.173  -0.092  0.00  0.00    -0.263 N 
ATOM      6  C   UNL d   1      26.547 -17.676   0.212  0.00  0.00     0.270 C 
ATOM      7  O   UNL d   1      26.731 -18.821   0.629  0.00  0.00    -0.266 OA
ATOM      8  H   UNL d   1      25.126 -16.272  -0.540  0.00  0.00     0.190 HD
BRANCH   6   9
ATOM      9  C   UNL d   1      27.725 -16.775   0.000  0.00  0.00     0.039 A 
ATOM     10  C   UNL d   1      27.883 -15.596   0.737  0.00  0.00     0.059 A 
ATOM     11  C   UNL d   1      29.014 -14.797   0.534  0.00  0.00     0.120 A 
ATOM     12  F   UNL d   1      29.162 -13.676   1.254  0.00  0.00    -0.206 F 
ATOM     13  C   UNL d   1      29.990 -15.138  -0.391  0.00  0.00     0.084 A 
ATOM     14  C   UNL d   1      29.839 -16.317  -1.104  0.00  0.00     0.120 A 
ATOM     15  F   UNL d   1      30.774 -16.660  -2.002  0.00  0.00    -0.206 F 
ATOM     16  C   UNL d   1      28.732 -17.147  -0.906  0.00  0.00     0.059 A 
ENDBRANCH   6   9
ENDBRANCH   3   5
BRANCH   2  17
ATOM     17  C   UNL d   1      21.729 -18.470  -0.185  0.00  0.00     0.036 A 
ATOM     18  C   UNL d   1      20.898 -18.795  -1.271  0.00  0.00     0.017 A 
ATOM     19  C   UNL d   1      19.772 -19.614  -1.091  0.00  0.00     0.004 A 
ATOM     20  C   UNL d   1      19.455 -20.103   0.177  0.00  0.00     0.036 A 
ATOM     21  C   UNL d   1      20.271 -19.763   1.254  0.00  0.00     0.066 A 
ATOM     22  C   UNL d   1      21.396 -18.950   1.086  0.00  0.00     0.053 A 
BRANCH  21  23
ATOM     23  O   UNL d   1      20.004 -20.206   2.518  0.00  0.00    -0.361 OA
ATOM     24  H   UNL d   1      20.765 -20.708   2.854  0.00  0.00     0.217 HD
ENDBRANCH  21  23
ENDBRANCH   2  17
TORSDOF 4
ENDMDL
MODEL 8
REMARK VINA RESULT:    -5.977      3.658      5.248
REMARK INTER + INTRA:          -8.324
REMARK INTER:                  -7.170
REMARK INTRA:                  -1.154
REMARK CONF_INDEPENDENT:        1.193
REMARK UNBOUND:                -1.154
REMARK  4 active torsions:
REMARK  status: ('A' for Active; 'I' for Inactive)
REMARK       I    between atoms: C_2  and  N_3 
REMARK    1  A    between atoms: C_2  and  C_15 
REMARK    2  A    between atoms: N_3  and  N_4 
REMARK       I    between atoms: N_4  and  C_5 
REMARK    3  A    between atoms: C_5  and  C_7 
REMARK    4  A    between atoms: C_19  and  O_20 
ROOT
ATOM      1  O   UNL d   1      25.264 -15.598  -0.075  0.00  0.00    -0.266 OA
ATOM      2  C   UNL d   1      24.628 -16.050  -1.028  0.00  0.00     0.270 C 
ATOM      3  N   UNL d   1      24.747 -15.544  -2.318  0.00  0.00    -0.263 N 
ATOM      4  H   UNL d   1      24.153 -15.832  -3.095  0.00  0.00     0.190 HD
ENDROOT
BRANCH   3   5
ATOM      5  N   UNL d   1      25.647 -14.466  -2.571  0.00  0.00    -0.263 N 
ATOM      6  C   UNL d   1      25.585 -13.791  -3.783  0.00  0.00     0.270 C 
ATOM      7  O   UNL d   1      24.779 -14.075  -4.670  0.00  0.00    -0.266 OA
ATOM      8  H   UNL d   1      26.227 -14.178  -1.784  0.00  0.00     0.190 HD
BRANCH   6   9
ATOM      9  C   UNL d   1      26.541 -12.658  -3.995  0.00  0.00     0.039 A 
ATOM     10  C   UNL d   1      27.523 -12.708  -4.991  0.00  0.00     0.059 A 
ATOM     11  C   UNL d   1      28.376 -11.615  -5.182  0.00  0.00     0.120 A 
ATOM     12  F   UNL d   1      29.304 -11.668  -6.146  0.00  0.00    -0.206 F 
ATOM     13  C   UNL d   1      28.283 -10.474  -4.398  0.00  0.00     0.084 A 
ATOM     14  C   UNL d   1      27.296 -10.420  -3.426  0.00  0.00     0.120 A 
ATOM     15  F   UNL d   1      27.193  -9.324  -2.662  0.00  0.00    -0.206 F 
ATOM     16  C   UNL d   1      26.414 -11.487  -3.229  0.00  0.00     0.059 A 
ENDBRANCH   6   9
ENDBRANCH   3   5
BRANCH   2  17
ATOM     17  C   UNL d   1      23.668 -17.181  -0.816  0.00  0.00     0.036 A 
ATOM     18  C   UNL d   1      24.156 -18.474  -0.555  0.00  0.00     0.017 A 
ATOM     19  C   UNL d   1      23.272 -19.552  -0.387  0.00  0.00     0.004 A 
ATOM     20  C   UNL d   1      21.895 -19.354  -0.494  0.00  0.00     0.036 A 
ATOM     21  C   UNL d   1      21.417 -18.075  -0.771  0.00  0.00     0.066 A 
ATOM     22  C   UNL d   1      22.288 -16.994  -0.937  0.00  0.00     0.053 A 
BRANCH  21  23
ATOM     23  O   UNL d   1      20.080 -17.825  -0.895  0.00  0.00    -0.361 OA
ATOM     24  H   UNL d   1      19.939 -17.138  -1.568  0.00  0.00     0.217 HD
ENDBRANCH  21  23
ENDBRANCH   2  17
TORSDOF 4
ENDMDL
MODEL 9
REMARK VINA RESULT:    -5.965      5.105      9.779
REMARK INTER + INTRA:          -8.268
REMARK INTER:                  -7.158
REMARK INTRA:                  -1.110
REMARK CONF_INDEPENDENT:        1.193
REMARK UNBOUND:                -1.110
REMARK  4 active torsions:
REMARK  status: ('A' for Active; 'I' for Inactive)
REMARK       I    between atoms: C_2  and  N_3 
REMARK    1  A    between atoms: C_2  and  C_15 
REMARK    2  A    between atoms: N_3  and  N_4 
REMARK       I    between atoms: N_4  and  C_5 
REMARK    3  A    between atoms: C_5  and  C_7 
REMARK    4  A    between atoms: C_19  and  O_20 
ROOT
ATOM      1  O   UNL d   1      28.131 -15.556  -5.334  0.00  0.00    -0.266 OA
ATOM      2  C   UNL d   1      27.521 -14.492  -5.216  0.00  0.00     0.270 C 
ATOM      3  N   UNL d   1      26.576 -14.275  -4.220  0.00  0.00    -0.263 N 
ATOM      4  H   UNL d   1      25.986 -13.444  -4.172  0.00  0.00     0.190 HD
ENDROOT
BRANCH   3   5
ATOM      5  N   UNL d   1      26.295 -15.310  -3.279  0.00  0.00    -0.263 N 
ATOM      6  C   UNL d   1      25.083 -15.309  -2.600  0.00  0.00     0.270 C 
ATOM      7  O   UNL d   1      24.217 -14.450  -2.771  0.00  0.00    -0.266 OA
ATOM      8  H   UNL d   1      26.975 -16.067  -3.235  0.00  0.00     0.190 HD
BRANCH   6   9
ATOM      9  C   UNL d   1      24.829 -16.424  -1.633  0.00  0.00     0.039 A 
ATOM     10  C   UNL d   1      25.883 -17.116  -1.025  0.00  0.00     0.059 A 
ATOM     11  C   UNL d   1      25.606 -18.130  -0.100  0.00  0.00     0.120 A 
ATOM     12  F   UNL d   1      26.622 -18.778   0.486  0.00  0.00    -0.206 F 
ATOM     13  C   UNL d   1      24.304 -18.480   0.229  0.00  0.00     0.084 A 
ATOM     14  C   UNL d   1      23.264 -17.778  -0.361  0.00  0.00     0.120 A 
ATOM     15  F   UNL d   1      22.001 -18.104  -0.053  0.00  0.00    -0.206 F 
ATOM     16  C   UNL d   1      23.510 -16.745  -1.270  0.00  0.00     0.059 A 
ENDBRANCH   6   9
ENDBRANCH   3   5
BRANCH   2  17
ATOM     17  C   UNL d   1      27.777 -13.374  -6.180  0.00  0.00     0.036 A 
ATOM     18  C   UNL d   1      27.030 -12.187  -6.091  0.00  0.00     0.017 A 
ATOM     19  C   UNL d   1      27.232 -11.142  -7.008  0.00  0.00     0.004 A 
ATOM     20  C   UNL d   1      28.171 -11.279  -8.032  0.00  0.00     0.036 A 
ATOM     21  C   UNL d   1      28.896 -12.465  -8.128  0.00  0.00     0.066 A 
ATOM     22  C   UNL d   1      28.704 -13.510  -7.219  0.00  0.00     0.053 A 
BRANCH  21  23
ATOM     23  O   UNL d   1      29.820 -12.657  -9.115  0.00  0.00    -0.361 OA
ATOM     24  H   UNL d   1      30.042 -13.602  -9.173  0.00  0.00     0.217 HD
ENDBRANCH  21  23
ENDBRANCH   2  17
TORSDOF 4
ENDMDL
