MODEL 1
REMARK VINA RESULT:    -8.475      0.000      0.000
REMARK INTER + INTRA:          -9.889
REMARK INTER:                  -9.370
REMARK INTRA:                  -0.519
REMARK CONF_INDEPENDENT:        0.895
REMARK UNBOUND:                -0.519
REMARK  3 active torsions:
REMARK  status: ('A' for Active; 'I' for Inactive)
REMARK       I    between atoms: C_2  and  N_3 
REMARK    1  A    between atoms: C_2  and  C_9 
REMARK    2  A    between atoms: N_3  and  O_4 
REMARK    3  A    between atoms: O_4  and  C_5 
ROOT
ATOM      1  C   UNL d   1      22.848 -18.005  -0.595  0.00  0.00     0.106 A 
ATOM      2  C   UNL d   1      23.485 -16.794  -0.883  0.00  0.00     0.075 A 
ATOM      3  C   UNL d   1      24.799 -16.966  -0.419  0.00  0.00     0.103 A 
ATOM      4  O   UNL d   1      25.950 -16.246  -0.338  0.00  0.00    -0.320 OA
ATOM      5  C   UNL d   1      26.848 -17.099   0.241  0.00  0.00     0.145 A 
ATOM      6  C   UNL d   1      26.309 -18.335   0.522  0.00  0.00     0.057 A 
ATOM      7  C   UNL d   1      24.974 -18.200   0.089  0.00  0.00     0.068 A 
ATOM      8  N   UNL d   1      23.780 -18.863  -0.023  0.00  0.00    -0.349 N 
ATOM      9  H   UNL d   1      23.657 -19.835   0.231  0.00  0.00     0.166 HD
ENDROOT
BRANCH   1  10
ATOM     10  C   UNL d   1      21.467 -18.361  -0.908  0.00  0.00     0.291 C 
ATOM     11  O   UNL d   1      20.646 -17.519  -1.269  0.00  0.00    -0.264 OA
ATOM     12  N   UNL d   1      21.167 -19.700  -0.740  0.00  0.00    -0.229 N 
ATOM     13  H   UNL d   1      21.783 -20.332  -0.249  0.00  0.00     0.198 HD
BRANCH  12  14
ATOM     14  O   UNL d   1      19.800 -20.056  -0.883  0.00  0.00    -0.272 OA
BRANCH  14  15
ATOM     15  C   UNL d   1      19.058 -19.799   0.337  0.00  0.00     0.152 C 
ATOM     16  C   UNL d   1      18.401 -21.045   0.997  0.00  0.00     0.034 C 
ATOM     17  C   UNL d   1      18.787 -20.452   2.366  0.00  0.00     0.005 C 
ATOM     18  C   UNL d   1      19.914 -19.700   1.631  0.00  0.00     0.034 C 
ENDBRANCH  14  15
ENDBRANCH  12  14
ENDBRANCH   1  10
TORSDOF 3
ENDMDL
MODEL 2
REMARK VINA RESULT:    -7.930      0.933      1.237
REMARK INTER + INTRA:          -9.425
REMARK INTER:                  -8.825
REMARK INTRA:                  -0.600
REMARK CONF_INDEPENDENT:        0.895
REMARK UNBOUND:                -0.600
REMARK  3 active torsions:
REMARK  status: ('A' for Active; 'I' for Inactive)
REMARK       I    between atoms: C_2  and  N_3 
REMARK    1  A    between atoms: C_2  and  C_9 
REMARK    2  A    between atoms: N_3  and  O_4 
REMARK    3  A    between atoms: O_4  and  C_5 
ROOT
ATOM      1  C   UNL d   1      22.876 -18.070  -0.692  0.00  0.00     0.106 A 
ATOM      2  C   UNL d   1      23.829 -18.934  -0.143  0.00  0.00     0.075 A 
ATOM      3  C   UNL d   1      25.005 -18.169  -0.080  0.00  0.00     0.103 A 
ATOM      4  O   UNL d   1      26.299 -18.328   0.306  0.00  0.00    -0.320 OA
ATOM      5  C   UNL d   1      26.875 -17.108   0.082  0.00  0.00     0.145 A 
ATOM      6  C   UNL d   1      25.990 -16.182  -0.424  0.00  0.00     0.057 A 
ATOM      7  C   UNL d   1      24.792 -16.917  -0.525  0.00  0.00     0.068 A 
ATOM      8  N   UNL d   1      23.475 -16.832  -0.896  0.00  0.00    -0.349 N 
ATOM      9  H   UNL d   1      23.039 -15.975  -1.211  0.00  0.00     0.166 HD
ENDROOT
BRANCH   1  10
ATOM     10  C   UNL d   1      21.467 -18.367  -0.938  0.00  0.00     0.291 C 
ATOM     11  O   UNL d   1      20.668 -17.492  -1.265  0.00  0.00    -0.264 OA
ATOM     12  N   UNL d   1      21.119 -19.691  -0.748  0.00  0.00    -0.229 N 
ATOM     13  H   UNL d   1      21.729 -20.348  -0.282  0.00  0.00     0.198 HD
BRANCH  12  14
ATOM     14  O   UNL d   1      19.732 -19.988  -0.824  0.00  0.00    -0.272 OA
BRANCH  14  15
ATOM     15  C   UNL d   1      19.069 -19.737   0.441  0.00  0.00     0.152 C 
ATOM     16  C   UNL d   1      18.360 -20.965   1.081  0.00  0.00     0.034 C 
ATOM     17  C   UNL d   1      18.850 -20.461   2.453  0.00  0.00     0.005 C 
ATOM     18  C   UNL d   1      19.990 -19.753   1.693  0.00  0.00     0.034 C 
ENDBRANCH  14  15
ENDBRANCH  12  14
ENDBRANCH   1  10
TORSDOF 3
ENDMDL
MODEL 3
REMARK VINA RESULT:    -7.628      1.446      6.295
REMARK INTER + INTRA:          -8.999
REMARK INTER:                  -8.523
REMARK INTRA:                  -0.476
REMARK CONF_INDEPENDENT:        0.895
REMARK UNBOUND:                -0.476
REMARK  3 active torsions:
REMARK  status: ('A' for Active; 'I' for Inactive)
REMARK       I    between atoms: C_2  and  N_3 
REMARK    1  A    between atoms: C_2  and  C_9 
REMARK    2  A    between atoms: N_3  and  O_4 
REMARK    3  A    between atoms: O_4  and  C_5 
ROOT
ATOM      1  C   UNL d   1      20.940 -19.259  -0.385  0.00  0.00     0.106 A 
ATOM      2  C   UNL d   1      19.798 -19.700  -1.061  0.00  0.00     0.075 A 
ATOM      3  C   UNL d   1      19.012 -20.308  -0.068  0.00  0.00     0.103 A 
ATOM      4  O   UNL d   1      17.820 -20.955   0.028  0.00  0.00    -0.320 OA
ATOM      5  C   UNL d   1      17.703 -21.262   1.355  0.00  0.00     0.145 A 
ATOM      6  C   UNL d   1      18.774 -20.824   2.103  0.00  0.00     0.057 A 
ATOM      7  C   UNL d   1      19.605 -20.222   1.137  0.00  0.00     0.068 A 
ATOM      8  N   UNL d   1      20.794 -19.564   0.964  0.00  0.00    -0.349 N 
ATOM      9  H   UNL d   1      21.409 -19.314   1.727  0.00  0.00     0.166 HD
ENDROOT
BRANCH   1  10
ATOM     10  C   UNL d   1      22.066 -18.527  -0.959  0.00  0.00     0.291 C 
ATOM     11  O   UNL d   1      22.613 -18.891  -1.999  0.00  0.00    -0.264 OA
ATOM     12  N   UNL d   1      22.466 -17.425  -0.227  0.00  0.00    -0.229 N 
ATOM     13  H   UNL d   1      22.150 -17.262   0.718  0.00  0.00     0.198 HD
BRANCH  12  14
ATOM     14  O   UNL d   1      23.653 -16.781  -0.668  0.00  0.00    -0.272 OA
BRANCH  14  15
ATOM     15  C   UNL d   1      24.778 -17.696  -0.675  0.00  0.00     0.152 C 
ATOM     16  C   UNL d   1      26.181 -17.033  -0.778  0.00  0.00     0.034 C 
ATOM     17  C   UNL d   1      26.691 -18.092   0.220  0.00  0.00     0.005 C 
ATOM     18  C   UNL d   1      25.238 -18.200   0.722  0.00  0.00     0.034 C 
ENDBRANCH  14  15
ENDBRANCH  12  14
ENDBRANCH   1  10
TORSDOF 3
ENDMDL
MODEL 4
REMARK VINA RESULT:    -6.640      1.505      6.465
REMARK INTER + INTRA:          -7.971
REMARK INTER:                  -7.535
REMARK INTRA:                  -0.436
REMARK CONF_INDEPENDENT:        0.895
REMARK UNBOUND:                -0.436
REMARK  3 active torsions:
REMARK  status: ('A' for Active; 'I' for Inactive)
REMARK       I    between atoms: C_2  and  N_3 
REMARK    1  A    between atoms: C_2  and  C_9 
REMARK    2  A    between atoms: N_3  and  O_4 
REMARK    3  A    between atoms: O_4  and  C_5 
ROOT
ATOM      1  C   UNL d   1      21.687 -19.021  -0.397  0.00  0.00     0.106 A 
ATOM      2  C   UNL d   1      20.645 -19.349  -1.270  0.00  0.00     0.075 A 
ATOM      3  C   UNL d   1      19.648 -19.891  -0.444  0.00  0.00     0.103 A 
ATOM      4  O   UNL d   1      18.405 -20.427  -0.571  0.00  0.00    -0.320 OA
ATOM      5  C   UNL d   1      18.032 -20.735   0.707  0.00  0.00     0.145 A 
ATOM      6  C   UNL d   1      18.991 -20.405   1.640  0.00  0.00     0.057 A 
ATOM      7  C   UNL d   1      20.027 -19.873   0.847  0.00  0.00     0.068 A 
ATOM      8  N   UNL d   1      21.282 -19.325   0.898  0.00  0.00    -0.349 N 
ATOM      9  H   UNL d   1      21.775 -19.140   1.762  0.00  0.00     0.166 HD
ENDROOT
BRANCH   1  10
ATOM     10  C   UNL d   1      22.956 -18.390  -0.750  0.00  0.00     0.291 C 
ATOM     11  O   UNL d   1      23.235 -18.101  -1.912  0.00  0.00    -0.264 OA
ATOM     12  N   UNL d   1      23.806 -18.176   0.319  0.00  0.00    -0.229 N 
ATOM     13  H   UNL d   1      23.655 -18.603   1.222  0.00  0.00     0.198 HD
BRANCH  12  14
ATOM     14  O   UNL d   1      25.108 -17.709  -0.004  0.00  0.00    -0.272 OA
BRANCH  14  15
ATOM     15  C   UNL d   1      25.067 -16.362  -0.541  0.00  0.00     0.152 C 
ATOM     16  C   UNL d   1      26.293 -15.468  -0.201  0.00  0.00     0.034 C 
ATOM     17  C   UNL d   1      26.203 -14.900  -1.631  0.00  0.00     0.005 C 
ATOM     18  C   UNL d   1      25.513 -16.221  -2.024  0.00  0.00     0.034 C 
ENDBRANCH  14  15
ENDBRANCH  12  14
ENDBRANCH   1  10
TORSDOF 3
ENDMDL
MODEL 5
REMARK VINA RESULT:    -6.597      2.150      6.520
REMARK INTER + INTRA:          -8.057
REMARK INTER:                  -7.492
REMARK INTRA:                  -0.565
REMARK CONF_INDEPENDENT:        0.895
REMARK UNBOUND:                -0.565
REMARK  3 active torsions:
REMARK  status: ('A' for Active; 'I' for Inactive)
REMARK       I    between atoms: C_2  and  N_3 
REMARK    1  A    between atoms: C_2  and  C_9 
REMARK    2  A    between atoms: N_3  and  O_4 
REMARK    3  A    between atoms: O_4  and  C_5 
ROOT
ATOM      1  C   UNL d   1      23.326 -18.409  -0.509  0.00  0.00     0.106 A 
ATOM      2  C   UNL d   1      22.596 -18.774  -1.645  0.00  0.00     0.075 A 
ATOM      3  C   UNL d   1      21.355 -19.202  -1.146  0.00  0.00     0.103 A 
ATOM      4  O   UNL d   1      20.184 -19.700  -1.627  0.00  0.00    -0.320 OA
ATOM      5  C   UNL d   1      19.406 -19.877  -0.517  0.00  0.00     0.145 A 
ATOM      6  C   UNL d   1      20.038 -19.500   0.647  0.00  0.00     0.057 A 
ATOM      7  C   UNL d   1      21.305 -19.081   0.193  0.00  0.00     0.068 A 
ATOM      8  N   UNL d   1      22.512 -18.579   0.605  0.00  0.00    -0.349 N 
ATOM      9  H   UNL d   1      22.715 -18.335   1.566  0.00  0.00     0.166 HD
ENDROOT
BRANCH   1  10
ATOM     10  C   UNL d   1      24.679 -17.860  -0.480  0.00  0.00     0.291 C 
ATOM     11  O   UNL d   1      25.358 -17.864   0.545  0.00  0.00    -0.264 OA
ATOM     12  N   UNL d   1      25.106 -17.325  -1.680  0.00  0.00    -0.229 N 
ATOM     13  H   UNL d   1      24.473 -17.140  -2.445  0.00  0.00     0.198 HD
BRANCH  12  14
ATOM     14  O   UNL d   1      26.352 -16.644  -1.651  0.00  0.00    -0.272 OA
BRANCH  14  15
ATOM     15  C   UNL d   1      26.295 -15.408  -2.409  0.00  0.00     0.152 C 
ATOM     16  C   UNL d   1      26.073 -15.572  -3.940  0.00  0.00     0.034 C 
ATOM     17  C   UNL d   1      25.157 -14.333  -3.881  0.00  0.00     0.005 C 
ATOM     18  C   UNL d   1      24.922 -14.679  -2.397  0.00  0.00     0.034 C 
ENDBRANCH  14  15
ENDBRANCH  12  14
ENDBRANCH   1  10
TORSDOF 3
ENDMDL
MODEL 6
REMARK VINA RESULT:    -6.435      1.753      6.433
REMARK INTER + INTRA:          -7.937
REMARK INTER:                  -7.329
REMARK INTRA:                  -0.608
REMARK CONF_INDEPENDENT:        0.895
REMARK UNBOUND:                -0.608
REMARK  3 active torsions:
REMARK  status: ('A' for Active; 'I' for Inactive)
REMARK       I    between atoms: C_2  and  N_3 
REMARK    1  A    between atoms: C_2  and  C_9 
REMARK    2  A    between atoms: N_3  and  O_4 
REMARK    3  A    between atoms: O_4  and  C_5 
ROOT
ATOM      1  C   UNL d   1      23.739 -18.352  -0.460  0.00  0.00     0.106 A 
ATOM      2  C   UNL d   1      22.816 -17.395  -0.895  0.00  0.00     0.075 A 
ATOM      3  C   UNL d   1      21.580 -18.062  -0.879  0.00  0.00     0.103 A 
ATOM      4  O   UNL d   1      20.280 -17.797  -1.178  0.00  0.00    -0.320 OA
ATOM      5  C   UNL d   1      19.620 -18.960  -0.894  0.00  0.00     0.145 A 
ATOM      6  C   UNL d   1      20.455 -19.948  -0.419  0.00  0.00     0.057 A 
ATOM      7  C   UNL d   1      21.719 -19.326  -0.438  0.00  0.00     0.068 A 
ATOM      8  N   UNL d   1      23.047 -19.520  -0.161  0.00  0.00    -0.349 N 
ATOM      9  H   UNL d   1      23.412 -20.372   0.246  0.00  0.00     0.166 HD
ENDROOT
BRANCH   1  10
ATOM     10  C   UNL d   1      25.173 -18.157  -0.265  0.00  0.00     0.291 C 
ATOM     11  O   UNL d   1      25.754 -18.577   0.734  0.00  0.00    -0.264 OA
ATOM     12  N   UNL d   1      25.797 -17.449  -1.274  0.00  0.00    -0.229 N 
ATOM     13  H   UNL d   1      25.280 -16.935  -1.973  0.00  0.00     0.198 HD
BRANCH  12  14
ATOM     14  O   UNL d   1      27.156 -17.104  -1.045  0.00  0.00    -0.272 OA
BRANCH  14  15
ATOM     15  C   UNL d   1      27.310 -15.677  -0.837  0.00  0.00     0.152 C 
ATOM     16  C   UNL d   1      25.988 -14.857  -0.818  0.00  0.00     0.034 C 
ATOM     17  C   UNL d   1      26.596 -14.011   0.318  0.00  0.00     0.005 C 
ATOM     18  C   UNL d   1      27.479 -15.232   0.644  0.00  0.00     0.034 C 
ENDBRANCH  14  15
ENDBRANCH  12  14
ENDBRANCH   1  10
TORSDOF 3
ENDMDL
MODEL 7
REMARK VINA RESULT:    -6.161      2.715      3.501
REMARK INTER + INTRA:          -7.546
REMARK INTER:                  -7.056
REMARK INTRA:                  -0.490
REMARK CONF_INDEPENDENT:        0.895
REMARK UNBOUND:                -0.490
REMARK  3 active torsions:
REMARK  status: ('A' for Active; 'I' for Inactive)
REMARK       I    between atoms: C_2  and  N_3 
REMARK    1  A    between atoms: C_2  and  C_9 
REMARK    2  A    between atoms: N_3  and  O_4 
REMARK    3  A    between atoms: O_4  and  C_5 
ROOT
ATOM      1  C   UNL d   1      24.777 -16.640  -1.310  0.00  0.00     0.106 A 
ATOM      2  C   UNL d   1      24.116 -15.633  -2.020  0.00  0.00     0.075 A 
ATOM      3  C   UNL d   1      25.081 -15.132  -2.909  0.00  0.00     0.103 A 
ATOM      4  O   UNL d   1      25.179 -14.170  -3.864  0.00  0.00    -0.320 OA
ATOM      5  C   UNL d   1      26.460 -14.277  -4.328  0.00  0.00     0.145 A 
ATOM      6  C   UNL d   1      27.173 -15.278  -3.706  0.00  0.00     0.057 A 
ATOM      7  C   UNL d   1      26.243 -15.799  -2.784  0.00  0.00     0.068 A 
ATOM      8  N   UNL d   1      26.072 -16.745  -1.808  0.00  0.00    -0.349 N 
ATOM      9  H   UNL d   1      26.779 -17.425  -1.560  0.00  0.00     0.166 HD
ENDROOT
BRANCH   1  10
ATOM     10  C   UNL d   1      24.206 -17.502  -0.280  0.00  0.00     0.291 C 
ATOM     11  O   UNL d   1      24.914 -18.141   0.497  0.00  0.00    -0.264 OA
ATOM     12  N   UNL d   1      22.824 -17.552  -0.276  0.00  0.00    -0.229 N 
ATOM     13  H   UNL d   1      22.269 -17.195  -1.040  0.00  0.00     0.198 HD
BRANCH  12  14
ATOM     14  O   UNL d   1      22.237 -18.498   0.606  0.00  0.00    -0.272 OA
BRANCH  14  15
ATOM     15  C   UNL d   1      21.367 -19.414  -0.107  0.00  0.00     0.152 C 
ATOM     16  C   UNL d   1      20.259 -20.089   0.751  0.00  0.00     0.034 C 
ATOM     17  C   UNL d   1      19.309 -19.929  -0.453  0.00  0.00     0.005 C 
ATOM     18  C   UNL d   1      20.201 -18.752  -0.895  0.00  0.00     0.034 C 
ENDBRANCH  14  15
ENDBRANCH  12  14
ENDBRANCH   1  10
TORSDOF 3
ENDMDL
MODEL 8
REMARK VINA RESULT:    -5.666     10.176     12.901
REMARK INTER + INTRA:          -6.945
REMARK INTER:                  -6.561
REMARK INTRA:                  -0.384
REMARK CONF_INDEPENDENT:        0.895
REMARK UNBOUND:                -0.384
REMARK  3 active torsions:
REMARK  status: ('A' for Active; 'I' for Inactive)
REMARK       I    between atoms: C_2  and  N_3 
REMARK    1  A    between atoms: C_2  and  C_9 
REMARK    2  A    between atoms: N_3  and  O_4 
REMARK    3  A    between atoms: O_4  and  C_5 
ROOT
ATOM      1  C   UNL d   1      33.022 -21.826   6.475  0.00  0.00     0.106 A 
ATOM      2  C   UNL d   1      33.844 -20.936   7.172  0.00  0.00     0.075 A 
ATOM      3  C   UNL d   1      34.813 -21.750   7.781  0.00  0.00     0.103 A 
ATOM      4  O   UNL d   1      35.890 -21.609   8.599  0.00  0.00    -0.320 OA
ATOM      5  C   UNL d   1      36.364 -22.880   8.764  0.00  0.00     0.145 A 
ATOM      6  C   UNL d   1      35.631 -23.820   8.073  0.00  0.00     0.057 A 
ATOM      7  C   UNL d   1      34.627 -23.044   7.460  0.00  0.00     0.068 A 
ATOM      8  N   UNL d   1      33.530 -23.110   6.641  0.00  0.00    -0.349 N 
ATOM      9  H   UNL d   1      33.210 -23.966   6.206  0.00  0.00     0.166 HD
ENDROOT
BRANCH   1  10
ATOM     10  C   UNL d   1      31.873 -21.484   5.641  0.00  0.00     0.291 C 
ATOM     11  O   UNL d   1      30.780 -21.202   6.128  0.00  0.00    -0.264 OA
ATOM     12  N   UNL d   1      32.119 -21.530   4.281  0.00  0.00    -0.229 N 
ATOM     13  H   UNL d   1      32.947 -21.961   3.897  0.00  0.00     0.198 HD
BRANCH  12  14
ATOM     14  O   UNL d   1      30.989 -21.356   3.438  0.00  0.00    -0.272 OA
BRANCH  14  15
ATOM     15  C   UNL d   1      31.240 -21.879   2.108  0.00  0.00     0.152 C 
ATOM     16  C   UNL d   1      29.979 -22.081   1.219  0.00  0.00     0.034 C 
ATOM     17  C   UNL d   1      30.813 -21.580   0.023  0.00  0.00     0.005 C 
ATOM     18  C   UNL d   1      31.684 -20.830   1.050  0.00  0.00     0.034 C 
ENDBRANCH  14  15
ENDBRANCH  12  14
ENDBRANCH   1  10
TORSDOF 3
ENDMDL
