MODEL 1
REMARK VINA RESULT:   -28.084      0.000      0.000
REMARK INTER + INTRA:         -32.340
REMARK INTER:                 -30.768
REMARK INTRA:                  -1.572
REMARK CONF_INDEPENDENT:        2.685
REMARK UNBOUND:                -1.572
REMARK  9 active torsions:
REMARK  status: ('A' for Active; 'I' for Inactive)
REMARK    1  A    between atoms: O_2  and  C_3 
REMARK    2  A    between atoms: C_7  and  N_8 
REMARK    3  A    between atoms: C_12  and  S_13 
REMARK    4  A    between atoms: S_13  and  C_14 
REMARK    5  A    between atoms: C_14  and  C_15 
REMARK       I    between atoms: C_15  and  N_17 
REMARK    6  A    between atoms: N_17  and  C_18 
REMARK    7  A    between atoms: C_18  and  C_19 
REMARK    8  A    between atoms: C_19  and  C_20 
REMARK    9  A    between atoms: C_25  and  O_26 
ROOT
ATOM      1  C   UNL d   1      27.299 -14.635  -3.056  0.00  0.00     0.180 C 
ENDROOT
BRANCH   1   2
ATOM      2  S   UNL d   1      28.398 -13.755  -1.746  0.00  0.00    -0.116 SA
BRANCH   2   3
ATOM      3  C   UNL d   1      29.543 -15.057  -0.979  0.00  0.00     0.267 C 
ATOM      4  N   UNL d   1      29.167 -15.236   0.469  0.00  0.00    -0.105 NA
ATOM      5  N   UNL d   1      28.785 -16.683   0.588  0.00  0.00     0.072 N 
ATOM      6  H   UNL d   1      29.979 -15.009   1.048  0.00  0.00     0.158 HD
ATOM      7  N   UNL d   1      28.610 -17.193  -0.722  0.00  0.00    -0.042 NA
ATOM      8  H   UNL d   1      29.508 -17.231   1.094  0.00  0.00     0.325 HD
ATOM      9  H   UNL d   1      27.900 -16.775   1.126  0.00  0.00     0.325 HD
ATOM     10  N   UNL d   1      29.334 -16.366  -1.554  0.00  0.00    -0.259 N 
ATOM     11  H   UNL d   1      28.791 -18.197  -0.868  0.00  0.00     0.181 HD
BRANCH  10  12
ATOM     12  C   UNL d   1      29.878 -16.812  -2.734  0.00  0.00     0.052 A 
ATOM     13  C   UNL d   1      30.410 -18.099  -2.881  0.00  0.00     0.031 A 
ATOM     14  C   UNL d   1      31.061 -18.451  -4.062  0.00  0.00     0.005 A 
ATOM     15  C   UNL d   1      31.187 -17.512  -5.085  0.00  0.00     0.037 A 
ATOM     16  C   UNL d   1      30.669 -16.226  -4.939  0.00  0.00     0.070 A 
ATOM     17  C   UNL d   1      29.951 -15.906  -3.797  0.00  0.00     0.067 A 
BRANCH  16  18
ATOM     18  O   UNL d   1      30.882 -15.365  -5.974  0.00  0.00    -0.356 OA
ATOM     19  C   UNL d   1      30.488 -15.844  -7.260  0.00  0.00     0.210 C 
ENDBRANCH  16  18
ENDBRANCH  10  12
ENDBRANCH   2   3
ENDBRANCH   1   2
BRANCH   1  20
ATOM     20  C   UNL d   1      25.819 -15.063  -2.471  0.00  0.00     0.227 C 
ATOM     21  O   UNL d   1      24.804 -14.686  -3.026  0.00  0.00    -0.273 OA
ATOM     22  N   UNL d   1      25.771 -15.869  -1.265  0.00  0.00    -0.360 N 
ATOM     23  H   UNL d   1      26.623 -16.364  -1.047  0.00  0.00     0.162 HD
BRANCH  22  24
ATOM     24  C   UNL d   1      24.446 -16.411  -0.498  0.00  0.00     0.127 C 
BRANCH  24  25
ATOM     25  C   UNL d   1      23.155 -17.146  -1.438  0.00  0.00     0.056 C 
BRANCH  25  26
ATOM     26  C   UNL d   1      21.835 -18.027  -0.743  0.00  0.00    -0.047 C 
ATOM     27  C   UNL d   1      21.211 -18.951  -1.638  0.00  0.00     0.112 C 
ATOM     28  N   UNL d   1      19.905 -18.593  -1.269  0.00  0.00    -0.282 NA
ATOM     29  C   UNL d   1      19.872 -19.012   0.047  0.00  0.00     0.022 C 
ATOM     30  H   UNL d   1      19.483 -17.701  -1.487  0.00  0.00     0.128 HD
ATOM     31  C   UNL d   1      18.799 -19.696   0.638  0.00  0.00     0.061 C 
ATOM     32  C   UNL d   1      21.108 -18.634   0.601  0.00  0.00    -0.011 C 
ATOM     33  C   UNL d   1      18.772 -20.195   1.920  0.00  0.00     0.070 C 
ATOM     34  C   UNL d   1      19.879 -19.816   2.660  0.00  0.00     0.037 C 
ATOM     35  C   UNL d   1      21.030 -18.982   2.049  0.00  0.00     0.016 C 
BRANCH  33  36
ATOM     36  O   UNL d   1      17.684 -20.991   2.123  0.00  0.00    -0.356 OA
ATOM     37  C   UNL d   1      17.284 -22.121   1.358  0.00  0.00     0.210 C 
ENDBRANCH  33  36
ENDBRANCH  25  26
ENDBRANCH  24  25
ENDBRANCH  22  24
ENDBRANCH   1  20
TORSDOF 9
ENDMDL
MODEL 2
REMARK VINA RESULT:   -28.048      3.033      5.049
REMARK INTER + INTRA:         -31.835
REMARK INTER:                 -30.733
REMARK INTRA:                  -1.102
REMARK CONF_INDEPENDENT:        2.685
REMARK UNBOUND:                -1.102
REMARK  9 active torsions:
REMARK  status: ('A' for Active; 'I' for Inactive)
REMARK    1  A    between atoms: O_2  and  C_3 
REMARK    2  A    between atoms: C_7  and  N_8 
REMARK    3  A    between atoms: C_12  and  S_13 
REMARK    4  A    between atoms: S_13  and  C_14 
REMARK    5  A    between atoms: C_14  and  C_15 
REMARK       I    between atoms: C_15  and  N_17 
REMARK    6  A    between atoms: N_17  and  C_18 
REMARK    7  A    between atoms: C_18  and  C_19 
REMARK    8  A    between atoms: C_19  and  C_20 
REMARK    9  A    between atoms: C_25  and  O_26 
ROOT
ATOM      1  C   UNL d   1      27.137 -14.700  -2.952  0.00  0.00     0.180 C 
ENDROOT
BRANCH   1   2
ATOM      2  S   UNL d   1      28.117 -13.816  -1.553  0.00  0.00    -0.116 SA
BRANCH   2   3
ATOM      3  C   UNL d   1      28.175 -14.981  -0.059  0.00  0.00     0.267 C 
ATOM      4  N   UNL d   1      28.608 -16.346  -0.530  0.00  0.00    -0.105 NA
ATOM      5  N   UNL d   1      29.872 -16.629   0.229  0.00  0.00     0.072 N 
ATOM      6  H   UNL d   1      27.870 -17.018  -0.304  0.00  0.00     0.158 HD
ATOM      7  N   UNL d   1      30.314 -15.411   0.801  0.00  0.00    -0.042 NA
ATOM      8  H   UNL d   1      29.724 -17.341   0.971  0.00  0.00     0.325 HD
ATOM      9  H   UNL d   1      30.597 -17.004  -0.414  0.00  0.00     0.325 HD
ATOM     10  N   UNL d   1      29.202 -14.600   0.884  0.00  0.00    -0.259 N 
ATOM     11  H   UNL d   1      30.858 -15.467   1.674  0.00  0.00     0.181 HD
BRANCH  10  12
ATOM     12  C   UNL d   1      29.077 -13.629   1.847  0.00  0.00     0.052 A 
ATOM     13  C   UNL d   1      29.033 -12.263   1.540  0.00  0.00     0.031 A 
ATOM     14  C   UNL d   1      29.033 -11.320   2.566  0.00  0.00     0.005 A 
ATOM     15  C   UNL d   1      29.088 -11.747   3.893  0.00  0.00     0.037 A 
ATOM     16  C   UNL d   1      29.142 -13.105   4.202  0.00  0.00     0.070 A 
ATOM     17  C   UNL d   1      29.060 -14.040   3.183  0.00  0.00     0.067 A 
BRANCH  16  18
ATOM     18  O   UNL d   1      29.241 -13.422   5.525  0.00  0.00    -0.356 OA
ATOM     19  C   UNL d   1      29.733 -14.733   5.804  0.00  0.00     0.210 C 
ENDBRANCH  16  18
ENDBRANCH  10  12
ENDBRANCH   2   3
ENDBRANCH   1   2
BRANCH   1  20
ATOM     20  C   UNL d   1      25.720 -15.358  -2.427  0.00  0.00     0.227 C 
ATOM     21  O   UNL d   1      24.773 -15.467  -3.183  0.00  0.00    -0.273 OA
ATOM     22  N   UNL d   1      25.634 -15.769  -1.037  0.00  0.00    -0.360 N 
ATOM     23  H   UNL d   1      26.522 -15.911  -0.577  0.00  0.00     0.162 HD
BRANCH  22  24
ATOM     24  C   UNL d   1      24.357 -16.435  -0.287  0.00  0.00     0.127 C 
BRANCH  24  25
ATOM     25  C   UNL d   1      23.063 -17.127  -1.255  0.00  0.00     0.056 C 
BRANCH  25  26
ATOM     26  C   UNL d   1      21.792 -18.110  -0.606  0.00  0.00    -0.047 C 
ATOM     27  C   UNL d   1      21.233 -19.036  -1.541  0.00  0.00     0.112 C 
ATOM     28  N   UNL d   1      19.905 -18.772  -1.174  0.00  0.00    -0.282 NA
ATOM     29  C   UNL d   1      19.885 -19.240   0.126  0.00  0.00     0.022 C 
ATOM     30  H   UNL d   1      19.431 -17.899  -1.364  0.00  0.00     0.128 HD
ATOM     31  C   UNL d   1      18.850 -20.009   0.679  0.00  0.00     0.061 C 
ATOM     32  C   UNL d   1      21.092 -18.810   0.706  0.00  0.00    -0.011 C 
ATOM     33  C   UNL d   1      18.842 -20.555   1.942  0.00  0.00     0.070 C 
ATOM     34  C   UNL d   1      19.917 -20.138   2.707  0.00  0.00     0.037 C 
ATOM     35  C   UNL d   1      21.021 -19.214   2.140  0.00  0.00     0.016 C 
BRANCH  33  36
ATOM     36  O   UNL d   1      17.802 -21.422   2.105  0.00  0.00    -0.356 OA
ATOM     37  C   UNL d   1      16.926 -21.920   1.101  0.00  0.00     0.210 C 
ENDBRANCH  33  36
ENDBRANCH  25  26
ENDBRANCH  24  25
ENDBRANCH  22  24
ENDBRANCH   1  20
TORSDOF 9
ENDMDL
MODEL 3
REMARK VINA RESULT:   -27.394      3.497      5.186
REMARK INTER + INTRA:         -31.351
REMARK INTER:                 -30.079
REMARK INTRA:                  -1.272
REMARK CONF_INDEPENDENT:        2.685
REMARK UNBOUND:                -1.272
REMARK  9 active torsions:
REMARK  status: ('A' for Active; 'I' for Inactive)
REMARK    1  A    between atoms: O_2  and  C_3 
REMARK    2  A    between atoms: C_7  and  N_8 
REMARK    3  A    between atoms: C_12  and  S_13 
REMARK    4  A    between atoms: S_13  and  C_14 
REMARK    5  A    between atoms: C_14  and  C_15 
REMARK       I    between atoms: C_15  and  N_17 
REMARK    6  A    between atoms: N_17  and  C_18 
REMARK    7  A    between atoms: C_18  and  C_19 
REMARK    8  A    between atoms: C_19  and  C_20 
REMARK    9  A    between atoms: C_25  and  O_26 
ROOT
ATOM      1  C   UNL d   1      27.828 -15.918  -3.008  0.00  0.00     0.180 C 
ENDROOT
BRANCH   1   2
ATOM      2  S   UNL d   1      28.348 -14.077  -3.199  0.00  0.00    -0.116 SA
BRANCH   2   3
ATOM      3  C   UNL d   1      27.271 -13.307  -4.556  0.00  0.00     0.267 C 
ATOM      4  N   UNL d   1      26.159 -14.269  -4.891  0.00  0.00    -0.105 NA
ATOM      5  N   UNL d   1      24.898 -13.513  -4.593  0.00  0.00     0.072 N 
ATOM      6  H   UNL d   1      26.229 -14.515  -5.881  0.00  0.00     0.158 HD
ATOM      7  N   UNL d   1      25.247 -12.373  -3.826  0.00  0.00    -0.042 NA
ATOM      8  H   UNL d   1      24.407 -13.224  -5.462  0.00  0.00     0.325 HD
ATOM      9  H   UNL d   1      24.240 -14.114  -4.056  0.00  0.00     0.325 HD
ATOM     10  N   UNL d   1      26.578 -12.128  -4.091  0.00  0.00    -0.259 N 
ATOM     11  H   UNL d   1      24.643 -11.543  -3.908  0.00  0.00     0.181 HD
BRANCH  10  12
ATOM     12  C   UNL d   1      27.114 -10.865  -4.022  0.00  0.00     0.052 A 
ATOM     13  C   UNL d   1      28.468 -10.605  -4.269  0.00  0.00     0.031 A 
ATOM     14  C   UNL d   1      28.980  -9.326  -4.059  0.00  0.00     0.005 A 
ATOM     15  C   UNL d   1      28.139  -8.316  -3.593  0.00  0.00     0.037 A 
ATOM     16  C   UNL d   1      26.794  -8.573  -3.336  0.00  0.00     0.070 A 
ATOM     17  C   UNL d   1      26.271  -9.824  -3.623  0.00  0.00     0.067 A 
BRANCH  16  18
ATOM     18  O   UNL d   1      26.062  -7.534  -2.839  0.00  0.00    -0.356 OA
ATOM     19  C   UNL d   1      26.779  -6.314  -2.655  0.00  0.00     0.210 C 
ENDBRANCH  16  18
ENDBRANCH  10  12
ENDBRANCH   2   3
ENDBRANCH   1   2
BRANCH   1  20
ATOM     20  C   UNL d   1      26.258 -16.097  -2.539  0.00  0.00     0.227 C 
ATOM     21  O   UNL d   1      25.351 -15.794  -3.292  0.00  0.00    -0.273 OA
ATOM     22  N   UNL d   1      26.001 -16.596  -1.200  0.00  0.00    -0.360 N 
ATOM     23  H   UNL d   1      26.773 -17.082  -0.769  0.00  0.00     0.162 HD
BRANCH  22  24
ATOM     24  C   UNL d   1      24.554 -16.854  -0.510  0.00  0.00     0.127 C 
BRANCH  24  25
ATOM     25  C   UNL d   1      23.282 -17.619  -1.452  0.00  0.00     0.056 C 
BRANCH  25  26
ATOM     26  C   UNL d   1      21.887 -18.374  -0.756  0.00  0.00    -0.047 C 
ATOM     27  C   UNL d   1      21.165 -19.216  -1.659  0.00  0.00     0.112 C 
ATOM     28  N   UNL d   1      19.905 -18.735  -1.270  0.00  0.00    -0.282 NA
ATOM     29  C   UNL d   1      19.842 -19.171   0.040  0.00  0.00     0.022 C 
ATOM     30  H   UNL d   1      19.572 -17.802  -1.469  0.00  0.00     0.128 HD
ATOM     31  C   UNL d   1      18.711 -19.754   0.631  0.00  0.00     0.061 C 
ATOM     32  C   UNL d   1      21.115 -18.929   0.585  0.00  0.00    -0.011 C 
ATOM     33  C   UNL d   1      18.646 -20.269   1.905  0.00  0.00     0.070 C 
ATOM     34  C   UNL d   1      19.792 -20.016   2.639  0.00  0.00     0.037 C 
ATOM     35  C   UNL d   1      21.015 -19.291   2.029  0.00  0.00     0.016 C 
BRANCH  33  36
ATOM     36  O   UNL d   1      17.485 -20.955   2.108  0.00  0.00    -0.356 OA
ATOM     37  C   UNL d   1      16.910 -21.949   1.269  0.00  0.00     0.210 C 
ENDBRANCH  33  36
ENDBRANCH  25  26
ENDBRANCH  24  25
ENDBRANCH  22  24
ENDBRANCH   1  20
TORSDOF 9
ENDMDL
MODEL 4
REMARK VINA RESULT:   -27.344      1.218      1.784
REMARK INTER + INTRA:         -31.753
REMARK INTER:                 -30.029
REMARK INTRA:                  -1.724
REMARK CONF_INDEPENDENT:        2.685
REMARK UNBOUND:                -1.724
REMARK  9 active torsions:
REMARK  status: ('A' for Active; 'I' for Inactive)
REMARK    1  A    between atoms: O_2  and  C_3 
REMARK    2  A    between atoms: C_7  and  N_8 
REMARK    3  A    between atoms: C_12  and  S_13 
REMARK    4  A    between atoms: S_13  and  C_14 
REMARK    5  A    between atoms: C_14  and  C_15 
REMARK       I    between atoms: C_15  and  N_17 
REMARK    6  A    between atoms: N_17  and  C_18 
REMARK    7  A    between atoms: C_18  and  C_19 
REMARK    8  A    between atoms: C_19  and  C_20 
REMARK    9  A    between atoms: C_25  and  O_26 
ROOT
ATOM      1  C   UNL d   1      27.273 -14.904  -3.034  0.00  0.00     0.180 C 
ENDROOT
BRANCH   1   2
ATOM      2  S   UNL d   1      28.442 -13.994  -1.807  0.00  0.00    -0.116 SA
BRANCH   2   3
ATOM      3  C   UNL d   1      29.466 -15.306  -0.900  0.00  0.00     0.267 C 
ATOM      4  N   UNL d   1      28.739 -15.697   0.362  0.00  0.00    -0.105 NA
ATOM      5  N   UNL d   1      28.484 -17.168   0.215  0.00  0.00     0.072 N 
ATOM      6  H   UNL d   1      29.344 -15.494   1.162  0.00  0.00     0.158 HD
ATOM      7  N   UNL d   1      28.713 -17.514  -1.139  0.00  0.00    -0.042 NA
ATOM      8  H   UNL d   1      29.098 -17.729   0.838  0.00  0.00     0.325 HD
ATOM      9  H   UNL d   1      27.502 -17.387   0.477  0.00  0.00     0.325 HD
ATOM     10  N   UNL d   1      29.546 -16.540  -1.648  0.00  0.00    -0.259 N 
ATOM     11  H   UNL d   1      29.024 -18.477  -1.337  0.00  0.00     0.181 HD
BRANCH  10  12
ATOM     12  C   UNL d   1      30.423 -16.793  -2.674  0.00  0.00     0.052 A 
ATOM     13  C   UNL d   1      30.107 -16.546  -4.016  0.00  0.00     0.031 A 
ATOM     14  C   UNL d   1      30.987 -16.941  -5.021  0.00  0.00     0.005 A 
ATOM     15  C   UNL d   1      32.174 -17.589  -4.682  0.00  0.00     0.037 A 
ATOM     16  C   UNL d   1      32.488 -17.847  -3.349  0.00  0.00     0.070 A 
ATOM     17  C   UNL d   1      31.649 -17.381  -2.348  0.00  0.00     0.067 A 
BRANCH  16  18
ATOM     18  O   UNL d   1      33.647 -18.527  -3.119  0.00  0.00    -0.356 OA
ATOM     19  C   UNL d   1      33.489 -19.893  -2.736  0.00  0.00     0.210 C 
ENDBRANCH  16  18
ENDBRANCH  10  12
ENDBRANCH   2   3
ENDBRANCH   1   2
BRANCH   1  20
ATOM     20  C   UNL d   1      25.845 -15.354  -2.348  0.00  0.00     0.227 C 
ATOM     21  O   UNL d   1      24.791 -14.928  -2.781  0.00  0.00    -0.273 OA
ATOM     22  N   UNL d   1      25.892 -16.244  -1.202  0.00  0.00    -0.360 N 
ATOM     23  H   UNL d   1      26.752 -16.763  -1.097  0.00  0.00     0.162 HD
BRANCH  22  24
ATOM     24  C   UNL d   1      24.632 -16.824  -0.357  0.00  0.00     0.127 C 
BRANCH  24  25
ATOM     25  C   UNL d   1      23.087 -17.041  -1.167  0.00  0.00     0.056 C 
BRANCH  25  26
ATOM     26  C   UNL d   1      21.801 -18.022  -0.546  0.00  0.00    -0.047 C 
ATOM     27  C   UNL d   1      21.231 -18.916  -1.505  0.00  0.00     0.112 C 
ATOM     28  N   UNL d   1      19.905 -18.642  -1.133  0.00  0.00    -0.282 NA
ATOM     29  C   UNL d   1      19.876 -19.143   0.154  0.00  0.00     0.022 C 
ATOM     30  H   UNL d   1      19.445 -17.758  -1.302  0.00  0.00     0.128 HD
ATOM     31  C   UNL d   1      18.829 -19.910   0.685  0.00  0.00     0.061 C 
ATOM     32  C   UNL d   1      21.088 -18.745   0.747  0.00  0.00    -0.011 C 
ATOM     33  C   UNL d   1      18.810 -20.489   1.934  0.00  0.00     0.070 C 
ATOM     34  C   UNL d   1      19.890 -20.108   2.711  0.00  0.00     0.037 C 
ATOM     35  C   UNL d   1      21.009 -19.186   2.170  0.00  0.00     0.016 C 
BRANCH  33  36
ATOM     36  O   UNL d   1      17.758 -21.344   2.072  0.00  0.00    -0.356 OA
ATOM     37  C   UNL d   1      16.964 -21.913   1.038  0.00  0.00     0.210 C 
ENDBRANCH  33  36
ENDBRANCH  25  26
ENDBRANCH  24  25
ENDBRANCH  22  24
ENDBRANCH   1  20
TORSDOF 9
ENDMDL
MODEL 5
REMARK VINA RESULT:   -25.293      2.355      3.109
REMARK INTER + INTRA:         -29.194
REMARK INTER:                 -27.977
REMARK INTRA:                  -1.217
REMARK CONF_INDEPENDENT:        2.685
REMARK UNBOUND:                -1.217
REMARK  9 active torsions:
REMARK  status: ('A' for Active; 'I' for Inactive)
REMARK    1  A    between atoms: O_2  and  C_3 
REMARK    2  A    between atoms: C_7  and  N_8 
REMARK    3  A    between atoms: C_12  and  S_13 
REMARK    4  A    between atoms: S_13  and  C_14 
REMARK    5  A    between atoms: C_14  and  C_15 
REMARK       I    between atoms: C_15  and  N_17 
REMARK    6  A    between atoms: N_17  and  C_18 
REMARK    7  A    between atoms: C_18  and  C_19 
REMARK    8  A    between atoms: C_19  and  C_20 
REMARK    9  A    between atoms: C_25  and  O_26 
ROOT
ATOM      1  C   UNL d   1      28.052 -16.172  -0.154  0.00  0.00     0.180 C 
ENDROOT
BRANCH   1   2
ATOM      2  S   UNL d   1      29.192 -14.643  -0.400  0.00  0.00    -0.116 SA
BRANCH   2   3
ATOM      3  C   UNL d   1      29.953 -14.760  -2.133  0.00  0.00     0.267 C 
ATOM      4  N   UNL d   1      31.052 -15.791  -2.106  0.00  0.00    -0.105 NA
ATOM      5  N   UNL d   1      30.630 -16.825  -3.109  0.00  0.00     0.072 N 
ATOM      6  H   UNL d   1      31.930 -15.339  -2.374  0.00  0.00     0.158 HD
ATOM      7  N   UNL d   1      29.264 -16.600  -3.413  0.00  0.00    -0.042 NA
ATOM      8  H   UNL d   1      31.203 -16.778  -3.975  0.00  0.00     0.325 HD
ATOM      9  H   UNL d   1      30.753 -17.778  -2.713  0.00  0.00     0.325 HD
ATOM     10  N   UNL d   1      29.015 -15.280  -3.100  0.00  0.00    -0.259 N 
ATOM     11  H   UNL d   1      28.934 -16.878  -4.348  0.00  0.00     0.181 HD
BRANCH  10  12
ATOM     12  C   UNL d   1      28.050 -14.547  -3.747  0.00  0.00     0.052 A 
ATOM     13  C   UNL d   1      26.857 -15.113  -4.213  0.00  0.00     0.031 A 
ATOM     14  C   UNL d   1      25.974 -14.347  -4.972  0.00  0.00     0.005 A 
ATOM     15  C   UNL d   1      26.293 -13.023  -5.271  0.00  0.00     0.037 A 
ATOM     16  C   UNL d   1      27.484 -12.459  -4.818  0.00  0.00     0.070 A 
ATOM     17  C   UNL d   1      28.320 -13.198  -3.996  0.00  0.00     0.067 A 
BRANCH  16  18
ATOM     18  O   UNL d   1      27.730 -11.173  -5.200  0.00  0.00    -0.356 OA
ATOM     19  C   UNL d   1      26.666 -10.529  -5.901  0.00  0.00     0.210 C 
ENDBRANCH  16  18
ENDBRANCH  10  12
ENDBRANCH   2   3
ENDBRANCH   1   2
BRANCH   1  20
ATOM     20  C   UNL d   1      26.599 -16.020  -0.917  0.00  0.00     0.227 C 
ATOM     21  O   UNL d   1      26.197 -14.925  -1.267  0.00  0.00    -0.273 OA
ATOM     22  N   UNL d   1      25.811 -17.221  -1.125  0.00  0.00    -0.360 N 
ATOM     23  H   UNL d   1      26.329 -18.087  -1.073  0.00  0.00     0.162 HD
BRANCH  22  24
ATOM     24  C   UNL d   1      24.359 -17.331  -1.844  0.00  0.00     0.127 C 
BRANCH  24  25
ATOM     25  C   UNL d   1      22.924 -16.853  -0.948  0.00  0.00     0.056 C 
BRANCH  25  26
ATOM     26  C   UNL d   1      21.730 -17.969  -0.372  0.00  0.00    -0.047 C 
ATOM     27  C   UNL d   1      21.252 -18.880  -1.365  0.00  0.00     0.112 C 
ATOM     28  N   UNL d   1      19.904 -18.741  -0.998  0.00  0.00    -0.282 NA
ATOM     29  C   UNL d   1      19.913 -19.285   0.272  0.00  0.00     0.022 C 
ATOM     30  H   UNL d   1      19.365 -17.899  -1.143  0.00  0.00     0.128 HD
ATOM     31  C   UNL d   1      18.937 -20.163   0.768  0.00  0.00     0.061 C 
ATOM     32  C   UNL d   1      21.077 -18.796   0.890  0.00  0.00    -0.011 C 
ATOM     33  C   UNL d   1      18.963 -20.781   1.998  0.00  0.00     0.070 C 
ATOM     34  C   UNL d   1      19.997 -20.327   2.798  0.00  0.00     0.037 C 
ATOM     35  C   UNL d   1      21.029 -19.288   2.297  0.00  0.00     0.016 C 
BRANCH  33  36
ATOM     36  O   UNL d   1      17.994 -21.734   2.098  0.00  0.00    -0.356 OA
ATOM     37  C   UNL d   1      16.900 -21.952   1.215  0.00  0.00     0.210 C 
ENDBRANCH  33  36
ENDBRANCH  25  26
ENDBRANCH  24  25
ENDBRANCH  22  24
ENDBRANCH   1  20
TORSDOF 9
ENDMDL
MODEL 6
REMARK VINA RESULT:   -25.182      2.251      3.532
REMARK INTER + INTRA:         -29.092
REMARK INTER:                 -27.867
REMARK INTRA:                  -1.225
REMARK CONF_INDEPENDENT:        2.685
REMARK UNBOUND:                -1.225
REMARK  9 active torsions:
REMARK  status: ('A' for Active; 'I' for Inactive)
REMARK    1  A    between atoms: O_2  and  C_3 
REMARK    2  A    between atoms: C_7  and  N_8 
REMARK    3  A    between atoms: C_12  and  S_13 
REMARK    4  A    between atoms: S_13  and  C_14 
REMARK    5  A    between atoms: C_14  and  C_15 
REMARK       I    between atoms: C_15  and  N_17 
REMARK    6  A    between atoms: N_17  and  C_18 
REMARK    7  A    between atoms: C_18  and  C_19 
REMARK    8  A    between atoms: C_19  and  C_20 
REMARK    9  A    between atoms: C_25  and  O_26 
ROOT
ATOM      1  C   UNL d   1      28.093 -15.942  -0.364  0.00  0.00     0.180 C 
ENDROOT
BRANCH   1   2
ATOM      2  S   UNL d   1      29.229 -14.468  -0.849  0.00  0.00    -0.116 SA
BRANCH   2   3
ATOM      3  C   UNL d   1      28.201 -12.879  -0.726  0.00  0.00     0.267 C 
ATOM      4  N   UNL d   1      28.893 -11.931   0.219  0.00  0.00    -0.105 NA
ATOM      5  N   UNL d   1      29.183 -10.712  -0.608  0.00  0.00     0.072 N 
ATOM      6  H   UNL d   1      28.259 -11.722   0.994  0.00  0.00     0.158 HD
ATOM      7  N   UNL d   1      29.006 -11.061  -1.970  0.00  0.00    -0.042 NA
ATOM      8  H   UNL d   1      28.560  -9.919  -0.357  0.00  0.00     0.325 HD
ATOM      9  H   UNL d   1      30.160 -10.396  -0.446  0.00  0.00     0.325 HD
ATOM     10  N   UNL d   1      28.171 -12.158  -1.978  0.00  0.00    -0.259 N 
ATOM     11  H   UNL d   1      28.721 -10.313  -2.618  0.00  0.00     0.181 HD
BRANCH  10  12
ATOM     12  C   UNL d   1      27.334 -12.430  -3.033  0.00  0.00     0.052 A 
ATOM     13  C   UNL d   1      25.956 -12.185  -2.986  0.00  0.00     0.031 A 
ATOM     14  C   UNL d   1      25.140 -12.598  -4.037  0.00  0.00     0.005 A 
ATOM     15  C   UNL d   1      25.704 -13.264  -5.125  0.00  0.00     0.037 A 
ATOM     16  C   UNL d   1      27.073 -13.520  -5.171  0.00  0.00     0.070 A 
ATOM     17  C   UNL d   1      27.891 -13.036  -4.163  0.00  0.00     0.067 A 
BRANCH  16  18
ATOM     18  O   UNL d   1      27.523 -14.218  -6.252  0.00  0.00    -0.356 OA
ATOM     19  C   UNL d   1      28.712 -14.979  -6.037  0.00  0.00     0.210 C 
ENDBRANCH  16  18
ENDBRANCH  10  12
ENDBRANCH   2   3
ENDBRANCH   1   2
BRANCH   1  20
ATOM     20  C   UNL d   1      26.692 -15.986  -1.230  0.00  0.00     0.227 C 
ATOM     21  O   UNL d   1      26.304 -14.999  -1.827  0.00  0.00    -0.273 OA
ATOM     22  N   UNL d   1      25.929 -17.222  -1.229  0.00  0.00    -0.360 N 
ATOM     23  H   UNL d   1      26.450 -18.045  -0.963  0.00  0.00     0.162 HD
BRANCH  22  24
ATOM     24  C   UNL d   1      24.528 -17.511  -1.996  0.00  0.00     0.127 C 
BRANCH  24  25
ATOM     25  C   UNL d   1      23.034 -16.883  -1.314  0.00  0.00     0.056 C 
BRANCH  25  26
ATOM     26  C   UNL d   1      21.781 -17.879  -0.652  0.00  0.00    -0.047 C 
ATOM     27  C   UNL d   1      21.234 -18.823  -1.576  0.00  0.00     0.112 C 
ATOM     28  N   UNL d   1      19.903 -18.576  -1.207  0.00  0.00    -0.282 NA
ATOM     29  C   UNL d   1      19.894 -19.031   0.097  0.00  0.00     0.022 C 
ATOM     30  H   UNL d   1      19.415 -17.713  -1.405  0.00  0.00     0.128 HD
ATOM     31  C   UNL d   1      18.872 -19.809   0.661  0.00  0.00     0.061 C 
ATOM     32  C   UNL d   1      21.095 -18.576   0.669  0.00  0.00    -0.011 C 
ATOM     33  C   UNL d   1      18.876 -20.343   1.930  0.00  0.00     0.070 C 
ATOM     34  C   UNL d   1      19.947 -19.902   2.687  0.00  0.00     0.037 C 
ATOM     35  C   UNL d   1      21.035 -18.967   2.108  0.00  0.00     0.016 C 
BRANCH  33  36
ATOM     36  O   UNL d   1      17.850 -21.224   2.104  0.00  0.00    -0.356 OA
ATOM     37  C   UNL d   1      17.506 -22.326   1.273  0.00  0.00     0.210 C 
ENDBRANCH  33  36
ENDBRANCH  25  26
ENDBRANCH  24  25
ENDBRANCH  22  24
ENDBRANCH   1  20
TORSDOF 9
ENDMDL
