MODEL 1
REMARK VINA RESULT:    -9.088      0.000      0.000
REMARK INTER + INTRA:         -15.843
REMARK INTER:                 -13.264
REMARK INTRA:                  -2.579
REMARK CONF_INDEPENDENT:        4.176
REMARK UNBOUND:                -2.579
REMARK  14 active torsions:
REMARK  status: ('A' for Active; 'I' for Inactive)
REMARK    1  A    between atoms: C_2  and  C_3 
REMARK    2  A    between atoms: C_3  and  C_4 
REMARK    3  A    between atoms: C_4  and  C_5 
REMARK    4  A    between atoms: C_5  and  C_6 
REMARK    5  A    between atoms: C_6  and  O_7 
REMARK    6  A    between atoms: O_7  and  C_8 
REMARK    7  A    between atoms: C_11  and  C_12 
REMARK       I    between atoms: C_12  and  N_14 
REMARK    8  A    between atoms: N_14  and  C_15 
REMARK    9  A    between atoms: C_15  and  N_17 
REMARK   10  A    between atoms: C_23  and  C_24 
REMARK   11  A    between atoms: C_24  and  C_25 
REMARK   12  A    between atoms: C_25  and  O_27 
REMARK   13  A    between atoms: O_27  and  C_28 
REMARK   14  A    between atoms: C_28  and  C_30 
ROOT
ATOM      1  C   UNL d   1      27.063 -12.146  -2.248  0.00  0.00     0.177 C 
ATOM      2  S   UNL d   1      28.462 -11.606  -1.482  0.00  0.00    -0.041 SA
ENDROOT
BRANCH   1   3
ATOM      3  N   UNL d   1      26.450 -13.400  -1.991  0.00  0.00    -0.299 N 
ATOM      4  C   UNL d   1      26.694 -14.309  -0.935  0.00  0.00     0.257 C 
ATOM      5  O   UNL d   1      27.517 -14.115  -0.045  0.00  0.00    -0.267 OA
ATOM      6  H   UNL d   1      25.873 -13.753  -2.732  0.00  0.00     0.171 HD
BRANCH   4   7
ATOM      7  C   UNL d   1      25.961 -15.630  -0.879  0.00  0.00     0.032 A 
ATOM      8  C   UNL d   1      24.741 -15.718  -1.585  0.00  0.00     0.020 A 
ATOM      9  C   UNL d   1      23.925 -16.856  -1.515  0.00  0.00     0.038 A 
ATOM     10  C   UNL d   1      24.339 -17.966  -0.788  0.00  0.00     0.068 A 
ATOM     11  C   UNL d   1      25.571 -17.918  -0.131  0.00  0.00     0.038 A 
ATOM     12  C   UNL d   1      26.377 -16.760  -0.169  0.00  0.00     0.020 A 
BRANCH  10  13
ATOM     13  O   UNL d   1      23.536 -19.072  -0.871  0.00  0.00    -0.351 OA
BRANCH  13  14
ATOM     14  C   UNL d   1      22.271 -18.973  -0.214  0.00  0.00     0.175 C 
BRANCH  14  15
ATOM     15  C   UNL d   1      21.182 -18.781  -1.267  0.00  0.00     0.027 C 
BRANCH  15  16
ATOM     16  C   UNL d   1      19.797 -18.951  -0.649  0.00  0.00     0.002 C 
BRANCH  16  17
ATOM     17  C   UNL d   1      19.890 -19.524   0.760  0.00  0.00    -0.000 C 
BRANCH  17  18
ATOM     18  C   UNL d   1      19.536 -21.008   0.769  0.00  0.00    -0.005 C 
ATOM     19  C   UNL d   1      18.030 -21.200   0.793  0.00  0.00     0.005 C 
ENDBRANCH  17  18
ENDBRANCH  16  17
ENDBRANCH  15  16
ENDBRANCH  14  15
ENDBRANCH  13  14
ENDBRANCH  10  13
ENDBRANCH   4   7
ENDBRANCH   1   3
BRANCH   1  20
ATOM     20  N   UNL d   1      26.456 -11.404  -3.299  0.00  0.00    -0.343 N 
ATOM     21  C   UNL d   1      25.785 -10.119  -2.976  0.00  0.00     0.146 C 
ATOM     22  C   UNL d   1      26.173  -9.122  -4.055  0.00  0.00     0.142 C 
ATOM     23  N   UNL d   1      25.712  -9.573  -5.340  0.00  0.00    -0.358 N 
ATOM     24  C   UNL d   1      25.707 -10.890  -5.705  0.00  0.00     0.241 C 
ATOM     25  H   UNL d   1      25.611  -8.925  -6.113  0.00  0.00     0.162 HD
ATOM     26  O   UNL d   1      25.466 -11.125  -6.887  0.00  0.00    -0.271 OA
ATOM     27  C   UNL d   1      25.908 -11.991  -4.586  0.00  0.00     0.188 C 
BRANCH  27  28
ATOM     28  C   UNL d   1      26.757 -13.126  -5.132  0.00  0.00     0.146 C 
BRANCH  28  29
ATOM     29  C   UNL d   1      26.147 -14.482  -4.971  0.00  0.00     0.261 C 
ATOM     30  O   UNL d   1      25.051 -14.708  -4.474  0.00  0.00    -0.265 OA
BRANCH  29  31
ATOM     31  O   UNL d   1      27.030 -15.433  -5.402  0.00  0.00    -0.316 OA
BRANCH  31  32
ATOM     32  C   UNL d   1      28.406 -15.063  -5.195  0.00  0.00     0.127 C 
ATOM     33  C   UNL d   1      28.969 -15.946  -4.081  0.00  0.00     0.040 C 
BRANCH  32  34
ATOM     34  C   UNL d   1      29.183 -15.260  -6.502  0.00  0.00     0.027 C 
ATOM     35  C   UNL d   1      30.533 -15.925  -6.262  0.00  0.00     0.007 C 
ENDBRANCH  32  34
ENDBRANCH  31  32
ENDBRANCH  29  31
ENDBRANCH  28  29
ENDBRANCH  27  28
ENDBRANCH   1  20
TORSDOF 14
ENDMDL
MODEL 2
REMARK VINA RESULT:    -8.776      2.162      3.725
REMARK INTER + INTRA:         -15.449
REMARK INTER:                 -12.952
REMARK INTRA:                  -2.497
REMARK CONF_INDEPENDENT:        4.176
REMARK UNBOUND:                -2.497
REMARK  14 active torsions:
REMARK  status: ('A' for Active; 'I' for Inactive)
REMARK    1  A    between atoms: C_2  and  C_3 
REMARK    2  A    between atoms: C_3  and  C_4 
REMARK    3  A    between atoms: C_4  and  C_5 
REMARK    4  A    between atoms: C_5  and  C_6 
REMARK    5  A    between atoms: C_6  and  O_7 
REMARK    6  A    between atoms: O_7  and  C_8 
REMARK    7  A    between atoms: C_11  and  C_12 
REMARK       I    between atoms: C_12  and  N_14 
REMARK    8  A    between atoms: N_14  and  C_15 
REMARK    9  A    between atoms: C_15  and  N_17 
REMARK   10  A    between atoms: C_23  and  C_24 
REMARK   11  A    between atoms: C_24  and  C_25 
REMARK   12  A    between atoms: C_25  and  O_27 
REMARK   13  A    between atoms: O_27  and  C_28 
REMARK   14  A    between atoms: C_28  and  C_30 
ROOT
ATOM      1  C   UNL d   1      28.467 -14.837  -1.476  0.00  0.00     0.177 C 
ATOM      2  S   UNL d   1      29.568 -14.414  -0.273  0.00  0.00    -0.041 SA
ENDROOT
BRANCH   1   3
ATOM      3  N   UNL d   1      27.164 -15.339  -1.219  0.00  0.00    -0.299 N 
ATOM      4  C   UNL d   1      26.770 -16.652  -0.870  0.00  0.00     0.257 C 
ATOM      5  O   UNL d   1      27.556 -17.585  -0.730  0.00  0.00    -0.267 OA
ATOM      6  H   UNL d   1      26.414 -14.717  -1.456  0.00  0.00     0.171 HD
BRANCH   4   7
ATOM      7  C   UNL d   1      25.307 -16.989  -0.693  0.00  0.00     0.032 A 
ATOM      8  C   UNL d   1      25.000 -18.263  -0.168  0.00  0.00     0.020 A 
ATOM      9  C   UNL d   1      23.679 -18.722  -0.062  0.00  0.00     0.038 A 
ATOM     10  C   UNL d   1      22.623 -17.892  -0.418  0.00  0.00     0.068 A 
ATOM     11  C   UNL d   1      22.906 -16.606  -0.885  0.00  0.00     0.038 A 
ATOM     12  C   UNL d   1      24.236 -16.155  -1.027  0.00  0.00     0.020 A 
BRANCH  10  13
ATOM     13  O   UNL d   1      21.367 -18.379  -0.172  0.00  0.00    -0.351 OA
BRANCH  13  14
ATOM     14  C   UNL d   1      20.731 -19.042  -1.268  0.00  0.00     0.175 C 
BRANCH  14  15
ATOM     15  C   UNL d   1      19.348 -19.512  -0.825  0.00  0.00     0.027 C 
BRANCH  15  16
ATOM     16  C   UNL d   1      19.456 -20.749   0.063  0.00  0.00     0.002 C 
BRANCH  16  17
ATOM     17  C   UNL d   1      18.448 -20.697   1.204  0.00  0.00    -0.000 C 
BRANCH  17  18
ATOM     18  C   UNL d   1      19.147 -20.450   2.538  0.00  0.00    -0.005 C 
ATOM     19  C   UNL d   1      20.278 -19.451   2.374  0.00  0.00     0.005 C 
ENDBRANCH  17  18
ENDBRANCH  16  17
ENDBRANCH  15  16
ENDBRANCH  14  15
ENDBRANCH  13  14
ENDBRANCH  10  13
ENDBRANCH   4   7
ENDBRANCH   1   3
BRANCH   1  20
ATOM     20  N   UNL d   1      28.823 -14.813  -2.852  0.00  0.00    -0.343 N 
ATOM     21  C   UNL d   1      30.193 -14.386  -3.233  0.00  0.00     0.146 C 
ATOM     22  C   UNL d   1      30.681 -15.337  -4.313  0.00  0.00     0.142 C 
ATOM     23  N   UNL d   1      29.832 -15.252  -5.471  0.00  0.00    -0.358 N 
ATOM     24  C   UNL d   1      28.481 -15.070  -5.388  0.00  0.00     0.241 C 
ATOM     25  H   UNL d   1      30.155 -15.573  -6.377  0.00  0.00     0.162 HD
ATOM     26  O   UNL d   1      27.850 -15.200  -6.435  0.00  0.00    -0.271 OA
ATOM     27  C   UNL d   1      27.857 -14.619  -4.006  0.00  0.00     0.188 C 
BRANCH  27  28
ATOM     28  C   UNL d   1      26.526 -15.319  -3.792  0.00  0.00     0.146 C 
BRANCH  28  29
ATOM     29  C   UNL d   1      25.346 -14.400  -3.765  0.00  0.00     0.261 C 
ATOM     30  O   UNL d   1      24.406 -14.435  -4.550  0.00  0.00    -0.265 OA
BRANCH  29  31
ATOM     31  O   UNL d   1      25.513 -13.474  -2.773  0.00  0.00    -0.316 OA
BRANCH  31  32
ATOM     32  C   UNL d   1      25.781 -12.151  -3.272  0.00  0.00     0.127 C 
ATOM     33  C   UNL d   1      27.066 -11.650  -2.613  0.00  0.00     0.040 C 
BRANCH  32  34
ATOM     34  C   UNL d   1      25.927 -12.207  -4.798  0.00  0.00     0.027 C 
ATOM     35  C   UNL d   1      27.049 -11.302  -5.292  0.00  0.00     0.007 C 
ENDBRANCH  32  34
ENDBRANCH  31  32
ENDBRANCH  29  31
ENDBRANCH  28  29
ENDBRANCH  27  28
ENDBRANCH   1  20
TORSDOF 14
ENDMDL
MODEL 3
REMARK VINA RESULT:    -8.518      2.366      4.159
REMARK INTER + INTRA:         -15.300
REMARK INTER:                 -12.694
REMARK INTRA:                  -2.606
REMARK CONF_INDEPENDENT:        4.176
REMARK UNBOUND:                -2.606
REMARK  14 active torsions:
REMARK  status: ('A' for Active; 'I' for Inactive)
REMARK    1  A    between atoms: C_2  and  C_3 
REMARK    2  A    between atoms: C_3  and  C_4 
REMARK    3  A    between atoms: C_4  and  C_5 
REMARK    4  A    between atoms: C_5  and  C_6 
REMARK    5  A    between atoms: C_6  and  O_7 
REMARK    6  A    between atoms: O_7  and  C_8 
REMARK    7  A    between atoms: C_11  and  C_12 
REMARK       I    between atoms: C_12  and  N_14 
REMARK    8  A    between atoms: N_14  and  C_15 
REMARK    9  A    between atoms: C_15  and  N_17 
REMARK   10  A    between atoms: C_23  and  C_24 
REMARK   11  A    between atoms: C_24  and  C_25 
REMARK   12  A    between atoms: C_25  and  O_27 
REMARK   13  A    between atoms: O_27  and  C_28 
REMARK   14  A    between atoms: C_28  and  C_30 
ROOT
ATOM      1  C   UNL d   1      29.387 -15.504  -2.101  0.00  0.00     0.177 C 
ATOM      2  S   UNL d   1      30.538 -14.957  -1.000  0.00  0.00    -0.041 SA
ENDROOT
BRANCH   1   3
ATOM      3  N   UNL d   1      28.042 -15.804  -1.760  0.00  0.00    -0.299 N 
ATOM      4  C   UNL d   1      27.542 -16.849  -0.950  0.00  0.00     0.257 C 
ATOM      5  O   UNL d   1      28.254 -17.682  -0.395  0.00  0.00    -0.267 OA
ATOM      6  H   UNL d   1      27.349 -15.296  -2.278  0.00  0.00     0.171 HD
BRANCH   4   7
ATOM      7  C   UNL d   1      26.052 -17.023  -0.760  0.00  0.00     0.032 A 
ATOM      8  C   UNL d   1      25.630 -18.094   0.059  0.00  0.00     0.020 A 
ATOM      9  C   UNL d   1      24.274 -18.414   0.217  0.00  0.00     0.038 A 
ATOM     10  C   UNL d   1      23.297 -17.629  -0.385  0.00  0.00     0.068 A 
ATOM     11  C   UNL d   1      23.696 -16.531  -1.151  0.00  0.00     0.038 A 
ATOM     12  C   UNL d   1      25.062 -16.229  -1.343  0.00  0.00     0.020 A 
BRANCH  10  13
ATOM     13  O   UNL d   1      22.000 -17.945  -0.082  0.00  0.00    -0.351 OA
BRANCH  13  14
ATOM     14  C   UNL d   1      21.640 -19.319  -0.244  0.00  0.00     0.175 C 
BRANCH  14  15
ATOM     15  C   UNL d   1      20.501 -19.413  -1.257  0.00  0.00     0.027 C 
BRANCH  15  16
ATOM     16  C   UNL d   1      19.157 -19.150  -0.584  0.00  0.00     0.002 C 
BRANCH  16  17
ATOM     17  C   UNL d   1      18.486 -20.453  -0.166  0.00  0.00    -0.000 C 
BRANCH  17  18
ATOM     18  C   UNL d   1      19.225 -21.095   1.005  0.00  0.00    -0.005 C 
ATOM     19  C   UNL d   1      18.814 -20.451   2.317  0.00  0.00     0.005 C 
ENDBRANCH  17  18
ENDBRANCH  16  17
ENDBRANCH  15  16
ENDBRANCH  14  15
ENDBRANCH  13  14
ENDBRANCH  10  13
ENDBRANCH   4   7
ENDBRANCH   1   3
BRANCH   1  20
ATOM     20  N   UNL d   1      29.729 -15.803  -3.448  0.00  0.00    -0.343 N 
ATOM     21  C   UNL d   1      30.847 -16.744  -3.713  0.00  0.00     0.146 C 
ATOM     22  C   UNL d   1      30.405 -17.668  -4.836  0.00  0.00     0.142 C 
ATOM     23  N   UNL d   1      30.146 -16.911  -6.031  0.00  0.00    -0.358 N 
ATOM     24  C   UNL d   1      29.582 -15.667  -6.012  0.00  0.00     0.241 C 
ATOM     25  H   UNL d   1      30.133 -17.361  -6.939  0.00  0.00     0.162 HD
ATOM     26  O   UNL d   1      29.244 -15.207  -7.101  0.00  0.00    -0.271 OA
ATOM     27  C   UNL d   1      29.500 -14.889  -4.636  0.00  0.00     0.188 C 
BRANCH  27  28
ATOM     28  C   UNL d   1      28.189 -14.126  -4.557  0.00  0.00     0.146 C 
BRANCH  28  29
ATOM     29  C   UNL d   1      26.972 -14.973  -4.750  0.00  0.00     0.261 C 
ATOM     30  O   UNL d   1      26.647 -15.513  -5.801  0.00  0.00    -0.265 OA
BRANCH  29  31
ATOM     31  O   UNL d   1      26.244 -14.995  -3.594  0.00  0.00    -0.316 OA
BRANCH  31  32
ATOM     32  C   UNL d   1      25.420 -13.828  -3.421  0.00  0.00     0.127 C 
ATOM     33  C   UNL d   1      26.035 -12.977  -2.310  0.00  0.00     0.040 C 
BRANCH  32  34
ATOM     34  C   UNL d   1      25.359 -13.053  -4.742  0.00  0.00     0.027 C 
ATOM     35  C   UNL d   1      25.947 -11.653  -4.605  0.00  0.00     0.007 C 
ENDBRANCH  32  34
ENDBRANCH  31  32
ENDBRANCH  29  31
ENDBRANCH  28  29
ENDBRANCH  27  28
ENDBRANCH   1  20
TORSDOF 14
ENDMDL
MODEL 4
REMARK VINA RESULT:    -8.367      2.110      3.735
REMARK INTER + INTRA:         -14.771
REMARK INTER:                 -12.544
REMARK INTRA:                  -2.227
REMARK CONF_INDEPENDENT:        4.176
REMARK UNBOUND:                -2.227
REMARK  14 active torsions:
REMARK  status: ('A' for Active; 'I' for Inactive)
REMARK    1  A    between atoms: C_2  and  C_3 
REMARK    2  A    between atoms: C_3  and  C_4 
REMARK    3  A    between atoms: C_4  and  C_5 
REMARK    4  A    between atoms: C_5  and  C_6 
REMARK    5  A    between atoms: C_6  and  O_7 
REMARK    6  A    between atoms: O_7  and  C_8 
REMARK    7  A    between atoms: C_11  and  C_12 
REMARK       I    between atoms: C_12  and  N_14 
REMARK    8  A    between atoms: N_14  and  C_15 
REMARK    9  A    between atoms: C_15  and  N_17 
REMARK   10  A    between atoms: C_23  and  C_24 
REMARK   11  A    between atoms: C_24  and  C_25 
REMARK   12  A    between atoms: C_25  and  O_27 
REMARK   13  A    between atoms: O_27  and  C_28 
REMARK   14  A    between atoms: C_28  and  C_30 
ROOT
ATOM      1  C   UNL d   1      29.498 -15.273  -2.821  0.00  0.00     0.177 C 
ATOM      2  S   UNL d   1      30.668 -14.651  -1.782  0.00  0.00    -0.041 SA
ENDROOT
BRANCH   1   3
ATOM      3  N   UNL d   1      28.337 -15.965  -2.387  0.00  0.00    -0.299 N 
ATOM      4  C   UNL d   1      27.663 -15.880  -1.146  0.00  0.00     0.257 C 
ATOM      5  O   UNL d   1      28.015 -15.144  -0.228  0.00  0.00    -0.267 OA
ATOM      6  H   UNL d   1      28.041 -16.716  -2.982  0.00  0.00     0.171 HD
BRANCH   4   7
ATOM      7  C   UNL d   1      26.463 -16.756  -0.867  0.00  0.00     0.032 A 
ATOM      8  C   UNL d   1      25.246 -16.393  -1.485  0.00  0.00     0.020 A 
ATOM      9  C   UNL d   1      24.047 -17.069  -1.213  0.00  0.00     0.038 A 
ATOM     10  C   UNL d   1      24.045 -18.170  -0.364  0.00  0.00     0.068 A 
ATOM     11  C   UNL d   1      25.252 -18.578   0.211  0.00  0.00     0.038 A 
ATOM     12  C   UNL d   1      26.453 -17.876  -0.032  0.00  0.00     0.020 A 
BRANCH  10  13
ATOM     13  O   UNL d   1      22.855 -18.837  -0.248  0.00  0.00    -0.351 OA
BRANCH  13  14
ATOM     14  C   UNL d   1      21.736 -18.231  -0.897  0.00  0.00     0.175 C 
BRANCH  14  15
ATOM     15  C   UNL d   1      20.710 -19.314  -1.225  0.00  0.00     0.027 C 
BRANCH  15  16
ATOM     16  C   UNL d   1      19.578 -19.313  -0.201  0.00  0.00     0.002 C 
BRANCH  16  17
ATOM     17  C   UNL d   1      19.907 -20.215   0.983  0.00  0.00    -0.000 C 
BRANCH  17  18
ATOM     18  C   UNL d   1      18.645 -20.574   1.761  0.00  0.00    -0.005 C 
ATOM     19  C   UNL d   1      17.803 -21.573   0.987  0.00  0.00     0.005 C 
ENDBRANCH  17  18
ENDBRANCH  16  17
ENDBRANCH  15  16
ENDBRANCH  14  15
ENDBRANCH  13  14
ENDBRANCH  10  13
ENDBRANCH   4   7
ENDBRANCH   1   3
BRANCH   1  20
ATOM     20  N   UNL d   1      29.660 -15.232  -4.233  0.00  0.00    -0.343 N 
ATOM     21  C   UNL d   1      30.803 -15.955  -4.847  0.00  0.00     0.146 C 
ATOM     22  C   UNL d   1      30.281 -16.660  -6.087  0.00  0.00     0.142 C 
ATOM     23  N   UNL d   1      29.781 -15.699  -7.033  0.00  0.00    -0.358 N 
ATOM     24  C   UNL d   1      29.120 -14.564  -6.658  0.00  0.00     0.241 C 
ATOM     25  H   UNL d   1      29.672 -15.941  -8.012  0.00  0.00     0.162 HD
ATOM     26  O   UNL d   1      28.584 -13.924  -7.559  0.00  0.00    -0.271 OA
ATOM     27  C   UNL d   1      29.177 -14.117  -5.140  0.00  0.00     0.188 C 
BRANCH  27  28
ATOM     28  C   UNL d   1      27.831 -13.550  -4.723  0.00  0.00     0.146 C 
BRANCH  28  29
ATOM     29  C   UNL d   1      26.714 -14.544  -4.736  0.00  0.00     0.261 C 
ATOM     30  O   UNL d   1      26.844 -15.752  -4.581  0.00  0.00    -0.265 OA
BRANCH  29  31
ATOM     31  O   UNL d   1      25.539 -13.906  -5.017  0.00  0.00    -0.316 OA
BRANCH  31  32
ATOM     32  C   UNL d   1      25.129 -12.992  -3.984  0.00  0.00     0.127 C 
ATOM     33  C   UNL d   1      25.597 -13.555  -2.643  0.00  0.00     0.040 C 
BRANCH  32  34
ATOM     34  C   UNL d   1      25.749 -11.615  -4.253  0.00  0.00     0.027 C 
ATOM     35  C   UNL d   1      25.733 -11.267  -5.736  0.00  0.00     0.007 C 
ENDBRANCH  32  34
ENDBRANCH  31  32
ENDBRANCH  29  31
ENDBRANCH  28  29
ENDBRANCH  27  28
ENDBRANCH   1  20
TORSDOF 14
ENDMDL
MODEL 5
REMARK VINA RESULT:    -8.063      2.622      3.986
REMARK INTER + INTRA:         -14.933
REMARK INTER:                 -12.239
REMARK INTRA:                  -2.694
REMARK CONF_INDEPENDENT:        4.176
REMARK UNBOUND:                -2.694
REMARK  14 active torsions:
REMARK  status: ('A' for Active; 'I' for Inactive)
REMARK    1  A    between atoms: C_2  and  C_3 
REMARK    2  A    between atoms: C_3  and  C_4 
REMARK    3  A    between atoms: C_4  and  C_5 
REMARK    4  A    between atoms: C_5  and  C_6 
REMARK    5  A    between atoms: C_6  and  O_7 
REMARK    6  A    between atoms: O_7  and  C_8 
REMARK    7  A    between atoms: C_11  and  C_12 
REMARK       I    between atoms: C_12  and  N_14 
REMARK    8  A    between atoms: N_14  and  C_15 
REMARK    9  A    between atoms: C_15  and  N_17 
REMARK   10  A    between atoms: C_23  and  C_24 
REMARK   11  A    between atoms: C_24  and  C_25 
REMARK   12  A    between atoms: C_25  and  O_27 
REMARK   13  A    between atoms: O_27  and  C_28 
REMARK   14  A    between atoms: C_28  and  C_30 
ROOT
ATOM      1  C   UNL d   1      28.267 -15.982  -0.639  0.00  0.00     0.177 C 
ATOM      2  S   UNL d   1      29.423 -17.203  -0.553  0.00  0.00    -0.041 SA
ENDROOT
BRANCH   1   3
ATOM      3  N   UNL d   1      26.867 -16.216  -0.675  0.00  0.00    -0.299 N 
ATOM      4  C   UNL d   1      26.140 -17.336  -0.208  0.00  0.00     0.257 C 
ATOM      5  O   UNL d   1      26.659 -18.310   0.329  0.00  0.00    -0.267 OA
ATOM      6  H   UNL d   1      26.341 -15.568  -1.232  0.00  0.00     0.171 HD
BRANCH   4   7
ATOM      7  C   UNL d   1      24.642 -17.407  -0.397  0.00  0.00     0.032 A 
ATOM      8  C   UNL d   1      24.054 -18.691  -0.391  0.00  0.00     0.020 A 
ATOM      9  C   UNL d   1      22.692 -18.884  -0.664  0.00  0.00     0.038 A 
ATOM     10  C   UNL d   1      21.865 -17.789  -0.886  0.00  0.00     0.068 A 
ATOM     11  C   UNL d   1      22.418 -16.507  -0.839  0.00  0.00     0.038 A 
ATOM     12  C   UNL d   1      23.796 -16.313  -0.601  0.00  0.00     0.020 A 
BRANCH  10  13
ATOM     13  O   UNL d   1      20.531 -18.063  -1.029  0.00  0.00    -0.351 OA
BRANCH  13  14
ATOM     14  C   UNL d   1      20.198 -19.433  -1.265  0.00  0.00     0.175 C 
BRANCH  14  15
ATOM     15  C   UNL d   1      18.934 -19.776  -0.480  0.00  0.00     0.027 C 
BRANCH  15  16
ATOM     16  C   UNL d   1      19.134 -21.051   0.334  0.00  0.00     0.002 C 
BRANCH  16  17
ATOM     17  C   UNL d   1      18.281 -21.038   1.597  0.00  0.00    -0.000 C 
BRANCH  17  18
ATOM     18  C   UNL d   1      19.057 -20.452   2.773  0.00  0.00    -0.005 C 
ATOM     19  C   UNL d   1      20.246 -19.645   2.283  0.00  0.00     0.005 C 
ENDBRANCH  17  18
ENDBRANCH  16  17
ENDBRANCH  15  16
ENDBRANCH  14  15
ENDBRANCH  13  14
ENDBRANCH  10  13
ENDBRANCH   4   7
ENDBRANCH   1   3
BRANCH   1  20
ATOM     20  N   UNL d   1      28.635 -14.617  -0.787  0.00  0.00    -0.343 N 
ATOM     21  C   UNL d   1      28.516 -13.709   0.382  0.00  0.00     0.146 C 
ATOM     22  C   UNL d   1      29.765 -12.843   0.413  0.00  0.00     0.142 C 
ATOM     23  N   UNL d   1      29.849 -12.048  -0.783  0.00  0.00    -0.358 N 
ATOM     24  C   UNL d   1      29.461 -12.510  -2.009  0.00  0.00     0.241 C 
ATOM     25  H   UNL d   1      30.427 -11.216  -0.814  0.00  0.00     0.162 HD
ATOM     26  O   UNL d   1      29.756 -11.806  -2.972  0.00  0.00    -0.271 OA
ATOM     27  C   UNL d   1      28.598 -13.834  -2.086  0.00  0.00     0.188 C 
BRANCH  27  28
ATOM     28  C   UNL d   1      29.025 -14.654  -3.290  0.00  0.00     0.146 C 
BRANCH  28  29
ATOM     29  C   UNL d   1      27.891 -15.253  -4.060  0.00  0.00     0.261 C 
ATOM     30  O   UNL d   1      27.928 -15.560  -5.245  0.00  0.00    -0.265 OA
BRANCH  29  31
ATOM     31  O   UNL d   1      26.790 -15.340  -3.255  0.00  0.00    -0.316 OA
BRANCH  31  32
ATOM     32  C   UNL d   1      25.714 -14.480  -3.672  0.00  0.00     0.127 C 
ATOM     33  C   UNL d   1      25.165 -13.775  -2.432  0.00  0.00     0.040 C 
BRANCH  32  34
ATOM     34  C   UNL d   1      26.244 -13.468  -4.695  0.00  0.00     0.027 C 
ATOM     35  C   UNL d   1      26.386 -12.076  -4.092  0.00  0.00     0.007 C 
ENDBRANCH  32  34
ENDBRANCH  31  32
ENDBRANCH  29  31
ENDBRANCH  28  29
ENDBRANCH  27  28
ENDBRANCH   1  20
TORSDOF 14
ENDMDL
MODEL 6
REMARK VINA RESULT:    -8.026      5.410      8.068
REMARK INTER + INTRA:         -14.298
REMARK INTER:                 -12.202
REMARK INTRA:                  -2.096
REMARK CONF_INDEPENDENT:        4.176
REMARK UNBOUND:                -2.096
REMARK  14 active torsions:
REMARK  status: ('A' for Active; 'I' for Inactive)
REMARK    1  A    between atoms: C_2  and  C_3 
REMARK    2  A    between atoms: C_3  and  C_4 
REMARK    3  A    between atoms: C_4  and  C_5 
REMARK    4  A    between atoms: C_5  and  C_6 
REMARK    5  A    between atoms: C_6  and  O_7 
REMARK    6  A    between atoms: O_7  and  C_8 
REMARK    7  A    between atoms: C_11  and  C_12 
REMARK       I    between atoms: C_12  and  N_14 
REMARK    8  A    between atoms: N_14  and  C_15 
REMARK    9  A    between atoms: C_15  and  N_17 
REMARK   10  A    between atoms: C_23  and  C_24 
REMARK   11  A    between atoms: C_24  and  C_25 
REMARK   12  A    between atoms: C_25  and  O_27 
REMARK   13  A    between atoms: O_27  and  C_28 
REMARK   14  A    between atoms: C_28  and  C_30 
ROOT
ATOM      1  C   UNL d   1      29.868 -13.531   2.562  0.00  0.00     0.177 C 
ATOM      2  S   UNL d   1      31.528 -13.489   2.278  0.00  0.00    -0.041 SA
ENDROOT
BRANCH   1   3
ATOM      3  N   UNL d   1      28.993 -14.505   2.014  0.00  0.00    -0.299 N 
ATOM      4  C   UNL d   1      28.198 -14.428   0.847  0.00  0.00     0.257 C 
ATOM      5  O   UNL d   1      28.165 -13.449   0.106  0.00  0.00    -0.267 OA
ATOM      6  H   UNL d   1      28.804 -15.290   2.608  0.00  0.00     0.171 HD
BRANCH   4   7
ATOM      7  C   UNL d   1      27.284 -15.572   0.469  0.00  0.00     0.032 A 
ATOM      8  C   UNL d   1      26.210 -15.276  -0.399  0.00  0.00     0.020 A 
ATOM      9  C   UNL d   1      25.239 -16.233  -0.729  0.00  0.00     0.038 A 
ATOM     10  C   UNL d   1      25.353 -17.534  -0.253  0.00  0.00     0.068 A 
ATOM     11  C   UNL d   1      26.442 -17.859   0.560  0.00  0.00     0.038 A 
ATOM     12  C   UNL d   1      27.400 -16.888   0.924  0.00  0.00     0.020 A 
BRANCH  10  13
ATOM     13  O   UNL d   1      24.427 -18.428  -0.720  0.00  0.00    -0.351 OA
BRANCH  13  14
ATOM     14  C   UNL d   1      23.111 -18.301  -0.178  0.00  0.00     0.175 C 
BRANCH  14  15
ATOM     15  C   UNL d   1      22.199 -19.323  -0.852  0.00  0.00     0.027 C 
BRANCH  15  16
ATOM     16  C   UNL d   1      20.750 -19.124  -0.416  0.00  0.00     0.002 C 
BRANCH  16  17
ATOM     17  C   UNL d   1      20.242 -20.327   0.370  0.00  0.00    -0.000 C 
BRANCH  17  18
ATOM     18  C   UNL d   1      18.729 -20.469   0.231  0.00  0.00    -0.005 C 
ATOM     19  C   UNL d   1      18.163 -21.315   1.358  0.00  0.00     0.005 C 
ENDBRANCH  17  18
ENDBRANCH  16  17
ENDBRANCH  15  16
ENDBRANCH  14  15
ENDBRANCH  13  14
ENDBRANCH  10  13
ENDBRANCH   4   7
ENDBRANCH   1   3
BRANCH   1  20
ATOM     20  N   UNL d   1      29.214 -12.508   3.303  0.00  0.00    -0.343 N 
ATOM     21  C   UNL d   1      28.570 -11.389   2.569  0.00  0.00     0.146 C 
ATOM     22  C   UNL d   1      27.228 -11.125   3.232  0.00  0.00     0.142 C 
ATOM     23  N   UNL d   1      27.418 -10.730   4.602  0.00  0.00    -0.358 N 
ATOM     24  C   UNL d   1      28.394 -11.261   5.398  0.00  0.00     0.241 C 
ATOM     25  H   UNL d   1      26.690 -10.237   5.106  0.00  0.00     0.162 HD
ATOM     26  O   UNL d   1      28.333 -10.979   6.592  0.00  0.00    -0.271 OA
ATOM     27  C   UNL d   1      29.556 -12.097   4.723  0.00  0.00     0.188 C 
BRANCH  27  28
ATOM     28  C   UNL d   1      29.923 -13.273   5.611  0.00  0.00     0.146 C 
BRANCH  28  29
ATOM     29  C   UNL d   1      28.858 -14.317   5.721  0.00  0.00     0.261 C 
ATOM     30  O   UNL d   1      28.325 -14.883   4.774  0.00  0.00    -0.265 OA
BRANCH  29  31
ATOM     31  O   UNL d   1      28.524 -14.491   7.035  0.00  0.00    -0.316 OA
BRANCH  31  32
ATOM     32  C   UNL d   1      29.214 -13.590   7.919  0.00  0.00     0.127 C 
ATOM     33  C   UNL d   1      28.165 -12.798   8.699  0.00  0.00     0.040 C 
BRANCH  32  34
ATOM     34  C   UNL d   1      30.112 -14.398   8.864  0.00  0.00     0.027 C 
ATOM     35  C   UNL d   1      29.421 -14.685  10.192  0.00  0.00     0.007 C 
ENDBRANCH  32  34
ENDBRANCH  31  32
ENDBRANCH  29  31
ENDBRANCH  28  29
ENDBRANCH  27  28
ENDBRANCH   1  20
TORSDOF 14
ENDMDL
MODEL 7
REMARK VINA RESULT:    -7.809      3.070      4.697
REMARK INTER + INTRA:         -14.712
REMARK INTER:                 -11.985
REMARK INTRA:                  -2.727
REMARK CONF_INDEPENDENT:        4.176
REMARK UNBOUND:                -2.727
REMARK  14 active torsions:
REMARK  status: ('A' for Active; 'I' for Inactive)
REMARK    1  A    between atoms: C_2  and  C_3 
REMARK    2  A    between atoms: C_3  and  C_4 
REMARK    3  A    between atoms: C_4  and  C_5 
REMARK    4  A    between atoms: C_5  and  C_6 
REMARK    5  A    between atoms: C_6  and  O_7 
REMARK    6  A    between atoms: O_7  and  C_8 
REMARK    7  A    between atoms: C_11  and  C_12 
REMARK       I    between atoms: C_12  and  N_14 
REMARK    8  A    between atoms: N_14  and  C_15 
REMARK    9  A    between atoms: C_15  and  N_17 
REMARK   10  A    between atoms: C_23  and  C_24 
REMARK   11  A    between atoms: C_24  and  C_25 
REMARK   12  A    between atoms: C_25  and  O_27 
REMARK   13  A    between atoms: O_27  and  C_28 
REMARK   14  A    between atoms: C_28  and  C_30 
ROOT
ATOM      1  C   UNL d   1      28.079 -15.774   0.430  0.00  0.00     0.177 C 
ATOM      2  S   UNL d   1      29.366 -16.698  -0.144  0.00  0.00    -0.041 SA
ENDROOT
BRANCH   1   3
ATOM      3  N   UNL d   1      26.713 -16.080   0.192  0.00  0.00    -0.299 N 
ATOM      4  C   UNL d   1      26.077 -17.343   0.164  0.00  0.00     0.257 C 
ATOM      5  O   UNL d   1      26.661 -18.405   0.362  0.00  0.00    -0.267 OA
ATOM      6  H   UNL d   1      26.158 -15.315  -0.143  0.00  0.00     0.171 HD
BRANCH   4   7
ATOM      7  C   UNL d   1      24.606 -17.450  -0.168  0.00  0.00     0.032 A 
ATOM      8  C   UNL d   1      24.035 -18.741  -0.144  0.00  0.00     0.020 A 
ATOM      9  C   UNL d   1      22.709 -18.972  -0.538  0.00  0.00     0.038 A 
ATOM     10  C   UNL d   1      21.896 -17.905  -0.905  0.00  0.00     0.068 A 
ATOM     11  C   UNL d   1      22.428 -16.614  -0.879  0.00  0.00     0.038 A 
ATOM     12  C   UNL d   1      23.773 -16.384  -0.518  0.00  0.00     0.020 A 
BRANCH  10  13
ATOM     13  O   UNL d   1      20.585 -18.209  -1.162  0.00  0.00    -0.351 OA
BRANCH  13  14
ATOM     14  C   UNL d   1      20.236 -19.591  -1.061  0.00  0.00     0.175 C 
BRANCH  14  15
ATOM     15  C   UNL d   1      18.781 -19.700  -0.611  0.00  0.00     0.027 C 
BRANCH  15  16
ATOM     16  C   UNL d   1      18.592 -20.894   0.321  0.00  0.00     0.002 C 
BRANCH  16  17
ATOM     17  C   UNL d   1      18.314 -20.438   1.749  0.00  0.00    -0.000 C 
BRANCH  17  18
ATOM     18  C   UNL d   1      19.592 -20.449   2.583  0.00  0.00    -0.005 C 
ATOM     19  C   UNL d   1      20.518 -19.322   2.162  0.00  0.00     0.005 C 
ENDBRANCH  17  18
ENDBRANCH  16  17
ENDBRANCH  15  16
ENDBRANCH  14  15
ENDBRANCH  13  14
ENDBRANCH  10  13
ENDBRANCH   4   7
ENDBRANCH   1   3
BRANCH   1  20
ATOM     20  N   UNL d   1      28.292 -14.547   1.116  0.00  0.00    -0.343 N 
ATOM     21  C   UNL d   1      28.376 -14.558   2.599  0.00  0.00     0.146 C 
ATOM     22  C   UNL d   1      29.523 -13.643   2.994  0.00  0.00     0.142 C 
ATOM     23  N   UNL d   1      29.262 -12.298   2.556  0.00  0.00    -0.358 N 
ATOM     24  C   UNL d   1      28.638 -12.012   1.375  0.00  0.00     0.241 C 
ATOM     25  H   UNL d   1      29.748 -11.513   2.973  0.00  0.00     0.162 HD
ATOM     26  O   UNL d   1      28.642 -10.832   1.031  0.00  0.00    -0.271 OA
ATOM     27  C   UNL d   1      27.889 -13.176   0.607  0.00  0.00     0.188 C 
BRANCH  27  28
ATOM     28  C   UNL d   1      28.089 -13.013  -0.889  0.00  0.00     0.146 C 
BRANCH  28  29
ATOM     29  C   UNL d   1      26.926 -13.459  -1.717  0.00  0.00     0.261 C 
ATOM     30  O   UNL d   1      25.931 -14.028  -1.286  0.00  0.00    -0.265 OA
BRANCH  29  31
ATOM     31  O   UNL d   1      27.177 -13.196  -3.035  0.00  0.00    -0.316 OA
BRANCH  31  32
ATOM     32  C   UNL d   1      27.132 -14.371  -3.865  0.00  0.00     0.127 C 
ATOM     33  C   UNL d   1      27.970 -15.457  -3.192  0.00  0.00     0.040 C 
BRANCH  32  34
ATOM     34  C   UNL d   1      25.674 -14.818  -4.028  0.00  0.00     0.027 C 
ATOM     35  C   UNL d   1      24.779 -13.672  -4.483  0.00  0.00     0.007 C 
ENDBRANCH  32  34
ENDBRANCH  31  32
ENDBRANCH  29  31
ENDBRANCH  28  29
ENDBRANCH  27  28
ENDBRANCH   1  20
TORSDOF 14
ENDMDL
MODEL 8
REMARK VINA RESULT:    -7.337      2.015      2.813
REMARK INTER + INTRA:         -14.673
REMARK INTER:                 -11.513
REMARK INTRA:                  -3.160
REMARK CONF_INDEPENDENT:        4.176
REMARK UNBOUND:                -3.160
REMARK  14 active torsions:
REMARK  status: ('A' for Active; 'I' for Inactive)
REMARK    1  A    between atoms: C_2  and  C_3 
REMARK    2  A    between atoms: C_3  and  C_4 
REMARK    3  A    between atoms: C_4  and  C_5 
REMARK    4  A    between atoms: C_5  and  C_6 
REMARK    5  A    between atoms: C_6  and  O_7 
REMARK    6  A    between atoms: O_7  and  C_8 
REMARK    7  A    between atoms: C_11  and  C_12 
REMARK       I    between atoms: C_12  and  N_14 
REMARK    8  A    between atoms: N_14  and  C_15 
REMARK    9  A    between atoms: C_15  and  N_17 
REMARK   10  A    between atoms: C_23  and  C_24 
REMARK   11  A    between atoms: C_24  and  C_25 
REMARK   12  A    between atoms: C_25  and  O_27 
REMARK   13  A    between atoms: O_27  and  C_28 
REMARK   14  A    between atoms: C_28  and  C_30 
ROOT
ATOM      1  C   UNL d   1      26.872 -12.594  -4.098  0.00  0.00     0.177 C 
ATOM      2  S   UNL d   1      25.905 -11.320  -4.623  0.00  0.00    -0.041 SA
ENDROOT
BRANCH   1   3
ATOM      3  N   UNL d   1      26.383 -13.724  -3.391  0.00  0.00    -0.299 N 
ATOM      4  C   UNL d   1      26.563 -14.068  -2.031  0.00  0.00     0.257 C 
ATOM      5  O   UNL d   1      27.202 -13.386  -1.234  0.00  0.00    -0.267 OA
ATOM      6  H   UNL d   1      25.980 -14.442  -3.963  0.00  0.00     0.171 HD
BRANCH   4   7
ATOM      7  C   UNL d   1      25.996 -15.360  -1.488  0.00  0.00     0.032 A 
ATOM      8  C   UNL d   1      24.756 -15.787  -2.011  0.00  0.00     0.020 A 
ATOM      9  C   UNL d   1      24.086 -16.910  -1.506  0.00  0.00     0.038 A 
ATOM     10  C   UNL d   1      24.672 -17.679  -0.506  0.00  0.00     0.068 A 
ATOM     11  C   UNL d   1      25.926 -17.305  -0.018  0.00  0.00     0.038 A 
ATOM     12  C   UNL d   1      26.585 -16.152  -0.499  0.00  0.00     0.020 A 
BRANCH  10  13
ATOM     13  O   UNL d   1      24.002 -18.821  -0.156  0.00  0.00    -0.351 OA
BRANCH  13  14
ATOM     14  C   UNL d   1      22.907 -19.184  -1.000  0.00  0.00     0.175 C 
BRANCH  14  15
ATOM     15  C   UNL d   1      21.650 -19.321  -0.145  0.00  0.00     0.027 C 
BRANCH  15  16
ATOM     16  C   UNL d   1      20.407 -18.951  -0.950  0.00  0.00     0.002 C 
BRANCH  16  17
ATOM     17  C   UNL d   1      19.179 -19.695  -0.439  0.00  0.00    -0.000 C 
BRANCH  17  18
ATOM     18  C   UNL d   1      19.555 -20.664   0.679  0.00  0.00    -0.005 C 
ATOM     19  C   UNL d   1      18.633 -20.490   1.872  0.00  0.00     0.005 C 
ENDBRANCH  17  18
ENDBRANCH  16  17
ENDBRANCH  15  16
ENDBRANCH  14  15
ENDBRANCH  13  14
ENDBRANCH  10  13
ENDBRANCH   4   7
ENDBRANCH   1   3
BRANCH   1  20
ATOM     20  N   UNL d   1      28.286 -12.564  -4.244  0.00  0.00    -0.343 N 
ATOM     21  C   UNL d   1      29.107 -11.945  -3.172  0.00  0.00     0.146 C 
ATOM     22  C   UNL d   1      30.308 -12.848  -2.943  0.00  0.00     0.142 C 
ATOM     23  N   UNL d   1      31.101 -12.934  -4.140  0.00  0.00    -0.358 N 
ATOM     24  C   UNL d   1      30.554 -12.958  -5.392  0.00  0.00     0.241 C 
ATOM     25  H   UNL d   1      32.069 -13.233  -4.102  0.00  0.00     0.162 HD
ATOM     26  O   UNL d   1      31.322 -13.220  -6.315  0.00  0.00    -0.271 OA
ATOM     27  C   UNL d   1      29.032 -12.560  -5.565  0.00  0.00     0.188 C 
BRANCH  27  28
ATOM     28  C   UNL d   1      28.388 -13.447  -6.616  0.00  0.00     0.146 C 
BRANCH  28  29
ATOM     29  C   UNL d   1      28.075 -14.832  -6.144  0.00  0.00     0.261 C 
ATOM     30  O   UNL d   1      26.992 -15.200  -5.706  0.00  0.00    -0.265 OA
BRANCH  29  31
ATOM     31  O   UNL d   1      29.203 -15.602  -6.213  0.00  0.00    -0.316 OA
BRANCH  31  32
ATOM     32  C   UNL d   1      29.340 -16.506  -5.102  0.00  0.00     0.127 C 
ATOM     33  C   UNL d   1      30.697 -17.199  -5.222  0.00  0.00     0.040 C 
BRANCH  32  34
ATOM     34  C   UNL d   1      29.236 -15.715  -3.792  0.00  0.00     0.027 C 
ATOM     35  C   UNL d   1      29.126 -16.636  -2.583  0.00  0.00     0.007 C 
ENDBRANCH  32  34
ENDBRANCH  31  32
ENDBRANCH  29  31
ENDBRANCH  28  29
ENDBRANCH  27  28
ENDBRANCH   1  20
TORSDOF 14
ENDMDL
MODEL 9
REMARK VINA RESULT:    -6.754      4.110      6.115
REMARK INTER + INTRA:         -14.269
REMARK INTER:                 -10.930
REMARK INTRA:                  -3.339
REMARK CONF_INDEPENDENT:        4.176
REMARK UNBOUND:                -3.339
REMARK  14 active torsions:
REMARK  status: ('A' for Active; 'I' for Inactive)
REMARK    1  A    between atoms: C_2  and  C_3 
REMARK    2  A    between atoms: C_3  and  C_4 
REMARK    3  A    between atoms: C_4  and  C_5 
REMARK    4  A    between atoms: C_5  and  C_6 
REMARK    5  A    between atoms: C_6  and  O_7 
REMARK    6  A    between atoms: O_7  and  C_8 
REMARK    7  A    between atoms: C_11  and  C_12 
REMARK       I    between atoms: C_12  and  N_14 
REMARK    8  A    between atoms: N_14  and  C_15 
REMARK    9  A    between atoms: C_15  and  N_17 
REMARK   10  A    between atoms: C_23  and  C_24 
REMARK   11  A    between atoms: C_24  and  C_25 
REMARK   12  A    between atoms: C_25  and  O_27 
REMARK   13  A    between atoms: O_27  and  C_28 
REMARK   14  A    between atoms: C_28  and  C_30 
ROOT
ATOM      1  C   UNL d   1      30.766 -15.296   0.620  0.00  0.00     0.177 C 
ATOM      2  S   UNL d   1      32.178 -16.075   0.133  0.00  0.00    -0.041 SA
ENDROOT
BRANCH   1   3
ATOM      3  N   UNL d   1      29.469 -15.861   0.512  0.00  0.00    -0.299 N 
ATOM      4  C   UNL d   1      28.704 -16.116  -0.650  0.00  0.00     0.257 C 
ATOM      5  O   UNL d   1      29.092 -15.870  -1.789  0.00  0.00    -0.267 OA
ATOM      6  H   UNL d   1      28.973 -15.959   1.379  0.00  0.00     0.171 HD
BRANCH   4   7
ATOM      7  C   UNL d   1      27.306 -16.680  -0.536  0.00  0.00     0.032 A 
ATOM      8  C   UNL d   1      27.044 -17.532   0.559  0.00  0.00     0.020 A 
ATOM      9  C   UNL d   1      25.818 -18.195   0.704  0.00  0.00     0.038 A 
ATOM     10  C   UNL d   1      24.792 -17.972  -0.207  0.00  0.00     0.068 A 
ATOM     11  C   UNL d   1      25.014 -17.086  -1.265  0.00  0.00     0.038 A 
ATOM     12  C   UNL d   1      26.261 -16.446  -1.434  0.00  0.00     0.020 A 
BRANCH  10  13
ATOM     13  O   UNL d   1      23.593 -18.569   0.077  0.00  0.00    -0.351 OA
BRANCH  13  14
ATOM     14  C   UNL d   1      22.435 -17.926  -0.458  0.00  0.00     0.175 C 
BRANCH  14  15
ATOM     15  C   UNL d   1      21.617 -18.953  -1.238  0.00  0.00     0.027 C 
BRANCH  15  16
ATOM     16  C   UNL d   1      20.261 -19.180  -0.574  0.00  0.00     0.002 C 
BRANCH  16  17
ATOM     17  C   UNL d   1      20.346 -20.267   0.491  0.00  0.00    -0.000 C 
BRANCH  17  18
ATOM     18  C   UNL d   1      19.123 -20.232   1.404  0.00  0.00    -0.005 C 
ATOM     19  C   UNL d   1      18.068 -21.213   0.926  0.00  0.00     0.005 C 
ENDBRANCH  17  18
ENDBRANCH  16  17
ENDBRANCH  15  16
ENDBRANCH  14  15
ENDBRANCH  13  14
ENDBRANCH  10  13
ENDBRANCH   4   7
ENDBRANCH   1   3
BRANCH   1  20
ATOM     20  N   UNL d   1      30.781 -13.952   1.085  0.00  0.00    -0.343 N 
ATOM     21  C   UNL d   1      31.200 -12.874   0.153  0.00  0.00     0.146 C 
ATOM     22  C   UNL d   1      30.241 -11.711   0.344  0.00  0.00     0.142 C 
ATOM     23  N   UNL d   1      30.323 -11.214   1.692  0.00  0.00    -0.358 N 
ATOM     24  C   UNL d   1      30.511 -12.029   2.772  0.00  0.00     0.241 C 
ATOM     25  H   UNL d   1      29.995 -10.283   1.923  0.00  0.00     0.162 HD
ATOM     26  O   UNL d   1      30.377 -11.507   3.876  0.00  0.00    -0.271 OA
ATOM     27  C   UNL d   1      30.972 -13.523   2.527  0.00  0.00     0.188 C 
BRANCH  27  28
ATOM     28  C   UNL d   1      30.279 -14.442   3.519  0.00  0.00     0.146 C 
BRANCH  28  29
ATOM     29  C   UNL d   1      28.802 -14.231   3.624  0.00  0.00     0.261 C 
ATOM     30  O   UNL d   1      28.177 -14.129   4.673  0.00  0.00    -0.265 OA
BRANCH  29  31
ATOM     31  O   UNL d   1      28.251 -14.240   2.373  0.00  0.00    -0.316 OA
BRANCH  31  32
ATOM     32  C   UNL d   1      27.001 -13.531   2.300  0.00  0.00     0.127 C 
ATOM     33  C   UNL d   1      27.274 -12.058   2.607  0.00  0.00     0.040 C 
BRANCH  32  34
ATOM     34  C   UNL d   1      26.404 -13.702   0.898  0.00  0.00     0.027 C 
ATOM     35  C   UNL d   1      27.325 -13.144  -0.180  0.00  0.00     0.007 C 
ENDBRANCH  32  34
ENDBRANCH  31  32
ENDBRANCH  29  31
ENDBRANCH  28  29
ENDBRANCH  27  28
ENDBRANCH   1  20
TORSDOF 14
ENDMDL
