MODEL 1
REMARK VINA RESULT:    -7.935      0.000      0.000
REMARK INTER + INTRA:         -13.005
REMARK INTER:                 -10.918
REMARK INTRA:                  -2.087
REMARK CONF_INDEPENDENT:        2.983
REMARK UNBOUND:                -2.087
REMARK  10 active torsions:
REMARK  status: ('A' for Active; 'I' for Inactive)
REMARK    1  A    between atoms: C_5  and  S_6 
REMARK    2  A    between atoms: S_6  and  N_9 
REMARK    3  A    between atoms: N_9  and  N_10 
REMARK    4  A    between atoms: N_10  and  C_11 
REMARK    5  A    between atoms: C_11  and  S_13 
REMARK    6  A    between atoms: S_13  and  C_14 
REMARK    7  A    between atoms: C_14  and  C_15 
REMARK       I    between atoms: C_15  and  N_17 
REMARK    8  A    between atoms: N_17  and  C_18 
REMARK    9  A    between atoms: C_18  and  O_19 
REMARK   10  A    between atoms: C_18  and  C_20 
ROOT
ATOM      1  C   UNL d   1      25.839 -17.864   0.173  0.00  0.00     0.154 C 
ATOM      2  S   UNL d   1      26.728 -18.570   1.400  0.00  0.00    -0.051 SA
ENDROOT
BRANCH   1   3
ATOM      3  N   UNL d   1      24.700 -18.439  -0.384  0.00  0.00    -0.275 N 
ATOM      4  H   UNL d   1      24.754 -18.982  -1.247  0.00  0.00     0.189 HD
BRANCH   3   5
ATOM      5  N   UNL d   1      23.331 -18.272   0.208  0.00  0.00    -0.221 N 
ATOM      6  H   UNL d   1      23.183 -18.775   1.087  0.00  0.00     0.200 HD
BRANCH   5   7
ATOM      7  S   UNL d   1      22.003 -18.204  -0.865  0.00  0.00     0.276 S 
ATOM      8  O   UNL d   1      22.432 -18.874  -2.070  0.00  0.00    -0.199 OA
ATOM      9  O   UNL d   1      21.547 -16.826  -0.890  0.00  0.00    -0.199 OA
BRANCH   7  10
ATOM     10  C   UNL d   1      20.683 -19.183  -0.164  0.00  0.00     0.081 A 
ATOM     11  C   UNL d   1      20.703 -19.407   1.222  0.00  0.00     0.026 A 
ATOM     12  C   UNL d   1      19.677 -20.136   1.839  0.00  0.00     0.008 A 
ATOM     13  C   UNL d   1      18.620 -20.650   1.080  0.00  0.00    -0.062 A 
ATOM     14  C   UNL d   1      17.500 -21.415   1.730  0.00  0.00     0.048 C 
ATOM     15  C   UNL d   1      18.618 -20.436  -0.307  0.00  0.00     0.008 A 
ATOM     16  C   UNL d   1      19.645 -19.711  -0.932  0.00  0.00     0.026 A 
ENDBRANCH   7  10
ENDBRANCH   5   7
ENDBRANCH   3   5
ENDBRANCH   1   3
BRANCH   1  17
ATOM     17  S   UNL d   1      26.181 -16.306  -0.580  0.00  0.00    -0.090 SA
BRANCH  17  18
ATOM     18  C   UNL d   1      24.872 -16.020  -1.856  0.00  0.00     0.184 C 
BRANCH  18  19
ATOM     19  C   UNL d   1      25.464 -15.322  -3.108  0.00  0.00     0.229 C 
ATOM     20  O   UNL d   1      24.787 -14.652  -3.885  0.00  0.00    -0.273 OA
ATOM     21  N   UNL d   1      26.829 -15.493  -3.319  0.00  0.00    -0.330 N 
ATOM     22  H   UNL d   1      27.332 -16.194  -2.788  0.00  0.00     0.165 HD
BRANCH  21  23
ATOM     23  C   UNL d   1      27.489 -14.938  -4.517  0.00  0.00     0.275 C 
BRANCH  23  24
ATOM     24  O   UNL d   1      26.626 -15.225  -5.619  0.00  0.00    -0.372 OA
ATOM     25  H   UNL d   1      25.748 -14.879  -5.393  0.00  0.00     0.212 HD
ENDBRANCH  23  24
BRANCH  23  26
ATOM     26  C   UNL d   1      27.804 -13.395  -4.464  0.00  0.00     0.231 C 
ATOM     27 CL   UNL d   1      26.543 -12.499  -5.395  0.00  0.00    -0.079 Cl
ATOM     28 CL   UNL d   1      27.771 -12.801  -2.775  0.00  0.00    -0.079 Cl
ATOM     29 CL   UNL d   1      29.403 -13.018  -5.182  0.00  0.00    -0.079 Cl
ENDBRANCH  23  26
ENDBRANCH  21  23
ENDBRANCH  18  19
ENDBRANCH  17  18
ENDBRANCH   1  17
TORSDOF 10
ENDMDL
MODEL 2
REMARK VINA RESULT:    -6.635      5.196      8.339
REMARK INTER + INTRA:         -12.488
REMARK INTER:                  -9.618
REMARK INTRA:                  -2.869
REMARK CONF_INDEPENDENT:        2.983
REMARK UNBOUND:                -2.869
REMARK  10 active torsions:
REMARK  status: ('A' for Active; 'I' for Inactive)
REMARK    1  A    between atoms: C_5  and  S_6 
REMARK    2  A    between atoms: S_6  and  N_9 
REMARK    3  A    between atoms: N_9  and  N_10 
REMARK    4  A    between atoms: N_10  and  C_11 
REMARK    5  A    between atoms: C_11  and  S_13 
REMARK    6  A    between atoms: S_13  and  C_14 
REMARK    7  A    between atoms: C_14  and  C_15 
REMARK       I    between atoms: C_15  and  N_17 
REMARK    8  A    between atoms: N_17  and  C_18 
REMARK    9  A    between atoms: C_18  and  O_19 
REMARK   10  A    between atoms: C_18  and  C_20 
ROOT
ATOM      1  C   UNL d   1      25.106 -17.366  -0.373  0.00  0.00     0.154 C 
ATOM      2  S   UNL d   1      23.778 -18.373  -0.508  0.00  0.00    -0.051 SA
ENDROOT
BRANCH   1   3
ATOM      3  N   UNL d   1      25.190 -16.115  -0.978  0.00  0.00    -0.275 N 
ATOM      4  H   UNL d   1      25.510 -15.299  -0.454  0.00  0.00     0.189 HD
BRANCH   3   5
ATOM      5  N   UNL d   1      24.785 -15.870  -2.402  0.00  0.00    -0.221 N 
ATOM      6  H   UNL d   1      24.725 -16.713  -2.979  0.00  0.00     0.200 HD
BRANCH   5   7
ATOM      7  S   UNL d   1      25.379 -14.462  -3.168  0.00  0.00     0.276 S 
ATOM      8  O   UNL d   1      25.762 -13.564  -2.104  0.00  0.00    -0.199 OA
ATOM      9  O   UNL d   1      24.398 -14.075  -4.165  0.00  0.00    -0.199 OA
BRANCH   7  10
ATOM     10  C   UNL d   1      26.873 -14.904  -4.042  0.00  0.00     0.081 A 
ATOM     11  C   UNL d   1      26.969 -14.539  -5.395  0.00  0.00     0.026 A 
ATOM     12  C   UNL d   1      28.129 -14.824  -6.128  0.00  0.00     0.008 A 
ATOM     13  C   UNL d   1      29.207 -15.476  -5.519  0.00  0.00    -0.062 A 
ATOM     14  C   UNL d   1      30.468 -15.768  -6.285  0.00  0.00     0.048 C 
ATOM     15  C   UNL d   1      29.096 -15.851  -4.172  0.00  0.00     0.008 A 
ATOM     16  C   UNL d   1      27.934 -15.574  -3.433  0.00  0.00     0.026 A 
ENDBRANCH   7  10
ENDBRANCH   5   7
ENDBRANCH   3   5
ENDBRANCH   1   3
BRANCH   1  17
ATOM     17  S   UNL d   1      26.569 -17.710   0.550  0.00  0.00    -0.090 SA
BRANCH  17  18
ATOM     18  C   UNL d   1      27.815 -16.420   0.094  0.00  0.00     0.184 C 
BRANCH  18  19
ATOM     19  C   UNL d   1      27.527 -15.088   0.833  0.00  0.00     0.229 C 
ATOM     20  O   UNL d   1      26.766 -14.229   0.395  0.00  0.00    -0.273 OA
ATOM     21  N   UNL d   1      28.187 -14.902   2.045  0.00  0.00    -0.330 N 
ATOM     22  H   UNL d   1      28.947 -15.522   2.299  0.00  0.00     0.165 HD
BRANCH  21  23
ATOM     23  C   UNL d   1      28.049 -13.643   2.802  0.00  0.00     0.275 C 
BRANCH  23  24
ATOM     24  O   UNL d   1      26.655 -13.326   2.800  0.00  0.00    -0.372 OA
ATOM     25  H   UNL d   1      26.382 -13.240   1.873  0.00  0.00     0.212 HD
ENDBRANCH  23  24
BRANCH  23  26
ATOM     26  C   UNL d   1      28.595 -13.676   4.279  0.00  0.00     0.231 C 
ATOM     27 CL   UNL d   1      30.395 -13.549   4.250  0.00  0.00    -0.079 Cl
ATOM     28 CL   UNL d   1      27.958 -12.292   5.220  0.00  0.00    -0.079 Cl
ATOM     29 CL   UNL d   1      28.155 -15.200   5.116  0.00  0.00    -0.079 Cl
ENDBRANCH  23  26
ENDBRANCH  21  23
ENDBRANCH  18  19
ENDBRANCH  17  18
ENDBRANCH   1  17
TORSDOF 10
ENDMDL
MODEL 3
REMARK VINA RESULT:    -5.854      5.171      6.924
REMARK INTER + INTRA:         -12.415
REMARK INTER:                  -8.837
REMARK INTRA:                  -3.578
REMARK CONF_INDEPENDENT:        2.983
REMARK UNBOUND:                -3.578
REMARK  10 active torsions:
REMARK  status: ('A' for Active; 'I' for Inactive)
REMARK    1  A    between atoms: C_5  and  S_6 
REMARK    2  A    between atoms: S_6  and  N_9 
REMARK    3  A    between atoms: N_9  and  N_10 
REMARK    4  A    between atoms: N_10  and  C_11 
REMARK    5  A    between atoms: C_11  and  S_13 
REMARK    6  A    between atoms: S_13  and  C_14 
REMARK    7  A    between atoms: C_14  and  C_15 
REMARK       I    between atoms: C_15  and  N_17 
REMARK    8  A    between atoms: N_17  and  C_18 
REMARK    9  A    between atoms: C_18  and  O_19 
REMARK   10  A    between atoms: C_18  and  C_20 
ROOT
ATOM      1  C   UNL d   1      26.278 -10.615  -4.424  0.00  0.00     0.154 C 
ATOM      2  S   UNL d   1      25.653  -9.260  -3.669  0.00  0.00    -0.051 SA
ENDROOT
BRANCH   1   3
ATOM      3  N   UNL d   1      25.757 -11.897  -4.263  0.00  0.00    -0.275 N 
ATOM      4  H   UNL d   1      24.750 -12.061  -4.286  0.00  0.00     0.189 HD
BRANCH   3   5
ATOM      5  N   UNL d   1      26.618 -13.099  -4.008  0.00  0.00    -0.221 N 
ATOM      6  H   UNL d   1      27.613 -12.960  -4.205  0.00  0.00     0.200 HD
BRANCH   5   7
ATOM      7  S   UNL d   1      25.973 -14.635  -4.388  0.00  0.00     0.276 S 
ATOM      8  O   UNL d   1      26.850 -15.195  -5.390  0.00  0.00    -0.199 OA
ATOM      9  O   UNL d   1      24.557 -14.450  -4.645  0.00  0.00    -0.199 OA
BRANCH   7  10
ATOM     10  C   UNL d   1      26.116 -15.664  -2.935  0.00  0.00     0.081 A 
ATOM     11  C   UNL d   1      27.403 -15.882  -2.415  0.00  0.00     0.026 A 
ATOM     12  C   UNL d   1      27.581 -16.649  -1.255  0.00  0.00     0.008 A 
ATOM     13  C   UNL d   1      26.477 -17.207  -0.602  0.00  0.00    -0.062 A 
ATOM     14  C   UNL d   1      26.647 -18.014   0.656  0.00  0.00     0.048 C 
ATOM     15  C   UNL d   1      25.197 -16.998  -1.138  0.00  0.00     0.008 A 
ATOM     16  C   UNL d   1      25.012 -16.235  -2.302  0.00  0.00     0.026 A 
ENDBRANCH   7  10
ENDBRANCH   5   7
ENDBRANCH   3   5
ENDBRANCH   1   3
BRANCH   1  17
ATOM     17  S   UNL d   1      27.648 -10.635  -5.533  0.00  0.00    -0.090 SA
BRANCH  17  18
ATOM     18  C   UNL d   1      27.107 -11.546  -7.051  0.00  0.00     0.184 C 
BRANCH  18  19
ATOM     19  C   UNL d   1      28.157 -12.612  -7.459  0.00  0.00     0.229 C 
ATOM     20  O   UNL d   1      28.569 -12.740  -8.610  0.00  0.00    -0.273 OA
ATOM     21  N   UNL d   1      28.623 -13.438  -6.441  0.00  0.00    -0.330 N 
ATOM     22  H   UNL d   1      28.141 -13.449  -5.549  0.00  0.00     0.165 HD
BRANCH  21  23
ATOM     23  C   UNL d   1      29.566 -14.537  -6.723  0.00  0.00     0.275 C 
BRANCH  23  24
ATOM     24  O   UNL d   1      30.526 -14.013  -7.644  0.00  0.00    -0.372 OA
ATOM     25  H   UNL d   1      30.135 -14.075  -8.530  0.00  0.00     0.212 HD
ENDBRANCH  23  24
BRANCH  23  26
ATOM     26  C   UNL d   1      30.297 -15.143  -5.466  0.00  0.00     0.231 C 
ATOM     27 CL   UNL d   1      29.726 -16.835  -5.205  0.00  0.00    -0.079 Cl
ATOM     28 CL   UNL d   1      32.069 -15.191  -5.726  0.00  0.00    -0.079 Cl
ATOM     29 CL   UNL d   1      29.953 -14.201  -3.980  0.00  0.00    -0.079 Cl
ENDBRANCH  23  26
ENDBRANCH  21  23
ENDBRANCH  18  19
ENDBRANCH  17  18
ENDBRANCH   1  17
TORSDOF 10
ENDMDL
MODEL 4
REMARK VINA RESULT:    -5.568      4.974      6.328
REMARK INTER + INTRA:         -12.712
REMARK INTER:                  -8.551
REMARK INTRA:                  -4.160
REMARK CONF_INDEPENDENT:        2.983
REMARK UNBOUND:                -4.160
REMARK  10 active torsions:
REMARK  status: ('A' for Active; 'I' for Inactive)
REMARK    1  A    between atoms: C_5  and  S_6 
REMARK    2  A    between atoms: S_6  and  N_9 
REMARK    3  A    between atoms: N_9  and  N_10 
REMARK    4  A    between atoms: N_10  and  C_11 
REMARK    5  A    between atoms: C_11  and  S_13 
REMARK    6  A    between atoms: S_13  and  C_14 
REMARK    7  A    between atoms: C_14  and  C_15 
REMARK       I    between atoms: C_15  and  N_17 
REMARK    8  A    between atoms: N_17  and  C_18 
REMARK    9  A    between atoms: C_18  and  O_19 
REMARK   10  A    between atoms: C_18  and  C_20 
ROOT
ATOM      1  C   UNL d   1      26.466 -10.918  -3.120  0.00  0.00     0.154 C 
ATOM      2  S   UNL d   1      25.990  -9.316  -3.151  0.00  0.00    -0.051 SA
ENDROOT
BRANCH   1   3
ATOM      3  N   UNL d   1      25.725 -11.955  -3.683  0.00  0.00    -0.275 N 
ATOM      4  H   UNL d   1      24.758 -11.809  -3.976  0.00  0.00     0.189 HD
BRANCH   3   5
ATOM      5  N   UNL d   1      26.269 -13.342  -3.858  0.00  0.00    -0.221 N 
ATOM      6  H   UNL d   1      27.056 -13.413  -4.509  0.00  0.00     0.200 HD
BRANCH   5   7
ATOM      7  S   UNL d   1      25.155 -14.639  -3.866  0.00  0.00     0.276 S 
ATOM      8  O   UNL d   1      25.420 -15.381  -5.076  0.00  0.00    -0.199 OA
ATOM      9  O   UNL d   1      23.845 -14.075  -3.598  0.00  0.00    -0.199 OA
BRANCH   7  10
ATOM     10  C   UNL d   1      25.557 -15.713  -2.496  0.00  0.00     0.081 A 
ATOM     11  C   UNL d   1      26.818 -15.561  -1.897  0.00  0.00     0.026 A 
ATOM     12  C   UNL d   1      27.181 -16.348  -0.795  0.00  0.00     0.008 A 
ATOM     13  C   UNL d   1      26.290 -17.295  -0.279  0.00  0.00    -0.062 A 
ATOM     14  C   UNL d   1      26.655 -18.131   0.917  0.00  0.00     0.048 C 
ATOM     15  C   UNL d   1      25.039 -17.452  -0.895  0.00  0.00     0.008 A 
ATOM     16  C   UNL d   1      24.671 -16.671  -2.002  0.00  0.00     0.026 A 
ENDBRANCH   7  10
ENDBRANCH   5   7
ENDBRANCH   3   5
ENDBRANCH   1   3
BRANCH   1  17
ATOM     17  S   UNL d   1      27.956 -11.536  -2.406  0.00  0.00    -0.090 SA
BRANCH  17  18
ATOM     18  C   UNL d   1      29.206 -11.648  -3.766  0.00  0.00     0.184 C 
BRANCH  18  19
ATOM     19  C   UNL d   1      29.050 -12.975  -4.553  0.00  0.00     0.229 C 
ATOM     20  O   UNL d   1      28.822 -13.017  -5.760  0.00  0.00    -0.273 OA
ATOM     21  N   UNL d   1      29.181 -14.147  -3.813  0.00  0.00    -0.330 N 
ATOM     22  H   UNL d   1      29.177 -14.100  -2.801  0.00  0.00     0.165 HD
BRANCH  21  23
ATOM     23  C   UNL d   1      28.979 -15.468  -4.438  0.00  0.00     0.275 C 
BRANCH  23  24
ATOM     24  O   UNL d   1      27.931 -15.302  -5.396  0.00  0.00    -0.372 OA
ATOM     25  H   UNL d   1      27.412 -14.529  -5.121  0.00  0.00     0.212 HD
ENDBRANCH  23  24
BRANCH  23  26
ATOM     26  C   UNL d   1      30.250 -16.092  -5.130  0.00  0.00     0.231 C 
ATOM     27 CL   UNL d   1      30.210 -15.718  -6.895  0.00  0.00    -0.079 Cl
ATOM     28 CL   UNL d   1      31.750 -15.389  -4.449  0.00  0.00    -0.079 Cl
ATOM     29 CL   UNL d   1      30.303 -17.874  -4.937  0.00  0.00    -0.079 Cl
ENDBRANCH  23  26
ENDBRANCH  21  23
ENDBRANCH  18  19
ENDBRANCH  17  18
ENDBRANCH   1  17
TORSDOF 10
ENDMDL
MODEL 5
REMARK VINA RESULT:    -5.446      5.293      6.901
REMARK INTER + INTRA:         -12.695
REMARK INTER:                  -8.429
REMARK INTRA:                  -4.266
REMARK CONF_INDEPENDENT:        2.983
REMARK UNBOUND:                -4.266
REMARK  10 active torsions:
REMARK  status: ('A' for Active; 'I' for Inactive)
REMARK    1  A    between atoms: C_5  and  S_6 
REMARK    2  A    between atoms: S_6  and  N_9 
REMARK    3  A    between atoms: N_9  and  N_10 
REMARK    4  A    between atoms: N_10  and  C_11 
REMARK    5  A    between atoms: C_11  and  S_13 
REMARK    6  A    between atoms: S_13  and  C_14 
REMARK    7  A    between atoms: C_14  and  C_15 
REMARK       I    between atoms: C_15  and  N_17 
REMARK    8  A    between atoms: N_17  and  C_18 
REMARK    9  A    between atoms: C_18  and  O_19 
REMARK   10  A    between atoms: C_18  and  C_20 
ROOT
ATOM      1  C   UNL d   1      26.966 -11.179  -5.551  0.00  0.00     0.154 C 
ATOM      2  S   UNL d   1      27.596  -9.854  -4.748  0.00  0.00    -0.051 SA
ENDROOT
BRANCH   1   3
ATOM      3  N   UNL d   1      26.140 -12.125  -4.948  0.00  0.00    -0.275 N 
ATOM      4  H   UNL d   1      25.146 -11.939  -4.805  0.00  0.00     0.189 HD
BRANCH   3   5
ATOM      5  N   UNL d   1      26.648 -13.441  -4.438  0.00  0.00    -0.221 N 
ATOM      6  H   UNL d   1      27.585 -13.692  -4.765  0.00  0.00     0.200 HD
BRANCH   5   7
ATOM      7  S   UNL d   1      25.527 -14.721  -4.282  0.00  0.00     0.276 S 
ATOM      8  O   UNL d   1      25.822 -15.639  -5.357  0.00  0.00    -0.199 OA
ATOM      9  O   UNL d   1      24.213 -14.120  -4.143  0.00  0.00    -0.199 OA
BRANCH   7  10
ATOM     10  C   UNL d   1      25.880 -15.576  -2.753  0.00  0.00     0.081 A 
ATOM     11  C   UNL d   1      24.991 -16.585  -2.350  0.00  0.00     0.026 A 
ATOM     12  C   UNL d   1      25.231 -17.319  -1.180  0.00  0.00     0.008 A 
ATOM     13  C   UNL d   1      26.360 -17.053  -0.399  0.00  0.00    -0.062 A 
ATOM     14  C   UNL d   1      26.645 -17.845   0.847  0.00  0.00     0.048 C 
ATOM     15  C   UNL d   1      27.235 -16.031  -0.801  0.00  0.00     0.008 A 
ATOM     16  C   UNL d   1      26.997 -15.289  -1.969  0.00  0.00     0.026 A 
ENDBRANCH   7  10
ENDBRANCH   5   7
ENDBRANCH   3   5
ENDBRANCH   1   3
BRANCH   1  17
ATOM     17  S   UNL d   1      27.222 -11.570  -7.251  0.00  0.00    -0.090 SA
BRANCH  17  18
ATOM     18  C   UNL d   1      28.824 -12.489  -7.363  0.00  0.00     0.184 C 
BRANCH  18  19
ATOM     19  C   UNL d   1      28.768 -13.801  -6.537  0.00  0.00     0.229 C 
ATOM     20  O   UNL d   1      27.928 -14.677  -6.726  0.00  0.00    -0.273 OA
ATOM     21  N   UNL d   1      29.735 -13.945  -5.546  0.00  0.00    -0.330 N 
ATOM     22  H   UNL d   1      30.294 -13.144  -5.276  0.00  0.00     0.165 HD
BRANCH  21  23
ATOM     23  C   UNL d   1      29.736 -15.115  -4.648  0.00  0.00     0.275 C 
BRANCH  23  24
ATOM     24  O   UNL d   1      28.370 -15.506  -4.498  0.00  0.00    -0.372 OA
ATOM     25  H   UNL d   1      28.054 -15.784  -5.373  0.00  0.00     0.212 HD
ENDBRANCH  23  24
BRANCH  23  26
ATOM     26  C   UNL d   1      30.599 -16.341  -5.133  0.00  0.00     0.231 C 
ATOM     27 CL   UNL d   1      30.036 -17.835  -4.291  0.00  0.00    -0.079 Cl
ATOM     28 CL   UNL d   1      30.405 -16.593  -6.896  0.00  0.00    -0.079 Cl
ATOM     29 CL   UNL d   1      32.340 -16.114  -4.767  0.00  0.00    -0.079 Cl
ENDBRANCH  23  26
ENDBRANCH  21  23
ENDBRANCH  18  19
ENDBRANCH  17  18
ENDBRANCH   1  17
TORSDOF 10
ENDMDL
MODEL 6
REMARK VINA RESULT:    -5.394      4.736      7.457
REMARK INTER + INTRA:         -12.515
REMARK INTER:                  -8.377
REMARK INTRA:                  -4.138
REMARK CONF_INDEPENDENT:        2.983
REMARK UNBOUND:                -4.138
REMARK  10 active torsions:
REMARK  status: ('A' for Active; 'I' for Inactive)
REMARK    1  A    between atoms: C_5  and  S_6 
REMARK    2  A    between atoms: S_6  and  N_9 
REMARK    3  A    between atoms: N_9  and  N_10 
REMARK    4  A    between atoms: N_10  and  C_11 
REMARK    5  A    between atoms: C_11  and  S_13 
REMARK    6  A    between atoms: S_13  and  C_14 
REMARK    7  A    between atoms: C_14  and  C_15 
REMARK       I    between atoms: C_15  and  N_17 
REMARK    8  A    between atoms: N_17  and  C_18 
REMARK    9  A    between atoms: C_18  and  O_19 
REMARK   10  A    between atoms: C_18  and  C_20 
ROOT
ATOM      1  C   UNL d   1      27.887 -17.264  -0.059  0.00  0.00     0.154 C 
ATOM      2  S   UNL d   1      29.284 -17.510  -0.945  0.00  0.00    -0.051 SA
ENDROOT
BRANCH   1   3
ATOM      3  N   UNL d   1      27.461 -16.011   0.377  0.00  0.00    -0.275 N 
ATOM      4  H   UNL d   1      26.530 -15.663   0.142  0.00  0.00     0.189 HD
BRANCH   3   5
ATOM      5  N   UNL d   1      28.333 -15.086   1.172  0.00  0.00    -0.221 N 
ATOM      6  H   UNL d   1      28.953 -15.552   1.839  0.00  0.00     0.200 HD
BRANCH   5   7
ATOM      7  S   UNL d   1      27.666 -13.592   1.667  0.00  0.00     0.276 S 
ATOM      8  O   UNL d   1      26.244 -13.697   1.435  0.00  0.00    -0.199 OA
ATOM      9  O   UNL d   1      28.457 -12.546   1.045  0.00  0.00    -0.199 OA
BRANCH   7  10
ATOM     10  C   UNL d   1      27.897 -13.448   3.433  0.00  0.00     0.081 A 
ATOM     11  C   UNL d   1      28.057 -14.634   4.168  0.00  0.00     0.026 A 
ATOM     12  C   UNL d   1      28.278 -14.589   5.552  0.00  0.00     0.008 A 
ATOM     13  C   UNL d   1      28.342 -13.360   6.217  0.00  0.00    -0.062 A 
ATOM     14  C   UNL d   1      28.602 -13.293   7.696  0.00  0.00     0.048 C 
ATOM     15  C   UNL d   1      28.164 -12.181   5.477  0.00  0.00     0.008 A 
ATOM     16  C   UNL d   1      27.936 -12.219   4.092  0.00  0.00     0.026 A 
ENDBRANCH   7  10
ENDBRANCH   5   7
ENDBRANCH   3   5
ENDBRANCH   1   3
BRANCH   1  17
ATOM     17  S   UNL d   1      26.748 -18.516   0.436  0.00  0.00    -0.090 SA
BRANCH  17  18
ATOM     18  C   UNL d   1      25.171 -18.210  -0.481  0.00  0.00     0.184 C 
BRANCH  18  19
ATOM     19  C   UNL d   1      25.005 -16.704  -0.811  0.00  0.00     0.229 C 
ATOM     20  O   UNL d   1      24.302 -15.945  -0.148  0.00  0.00    -0.273 OA
ATOM     21  N   UNL d   1      25.707 -16.237  -1.919  0.00  0.00    -0.330 N 
ATOM     22  H   UNL d   1      26.124 -16.900  -2.560  0.00  0.00     0.165 HD
BRANCH  21  23
ATOM     23  C   UNL d   1      25.569 -14.839  -2.373  0.00  0.00     0.275 C 
BRANCH  23  24
ATOM     24  O   UNL d   1      25.987 -14.020  -1.279  0.00  0.00    -0.372 OA
ATOM     25  H   UNL d   1      25.498 -14.318  -0.495  0.00  0.00     0.212 HD
ENDBRANCH  23  24
BRANCH  23  26
ATOM     26  C   UNL d   1      26.381 -14.465  -3.670  0.00  0.00     0.231 C 
ATOM     27 CL   UNL d   1      25.903 -15.575  -5.011  0.00  0.00    -0.079 Cl
ATOM     28 CL   UNL d   1      26.015 -12.789  -4.184  0.00  0.00    -0.079 Cl
ATOM     29 CL   UNL d   1      28.149 -14.623  -3.416  0.00  0.00    -0.079 Cl
ENDBRANCH  23  26
ENDBRANCH  21  23
ENDBRANCH  18  19
ENDBRANCH  17  18
ENDBRANCH   1  17
TORSDOF 10
ENDMDL
MODEL 7
REMARK VINA RESULT:    -5.380      5.081      6.716
REMARK INTER + INTRA:         -12.620
REMARK INTER:                  -8.363
REMARK INTRA:                  -4.257
REMARK CONF_INDEPENDENT:        2.983
REMARK UNBOUND:                -4.257
REMARK  10 active torsions:
REMARK  status: ('A' for Active; 'I' for Inactive)
REMARK    1  A    between atoms: C_5  and  S_6 
REMARK    2  A    between atoms: S_6  and  N_9 
REMARK    3  A    between atoms: N_9  and  N_10 
REMARK    4  A    between atoms: N_10  and  C_11 
REMARK    5  A    between atoms: C_11  and  S_13 
REMARK    6  A    between atoms: S_13  and  C_14 
REMARK    7  A    between atoms: C_14  and  C_15 
REMARK       I    between atoms: C_15  and  N_17 
REMARK    8  A    between atoms: N_17  and  C_18 
REMARK    9  A    between atoms: C_18  and  O_19 
REMARK   10  A    between atoms: C_18  and  C_20 
ROOT
ATOM      1  C   UNL d   1      25.960 -10.566  -3.718  0.00  0.00     0.154 C 
ATOM      2  S   UNL d   1      26.894 -10.078  -2.420  0.00  0.00    -0.051 SA
ENDROOT
BRANCH   1   3
ATOM      3  N   UNL d   1      25.534 -11.878  -3.912  0.00  0.00    -0.275 N 
ATOM      4  H   UNL d   1      24.549 -12.091  -4.078  0.00  0.00     0.189 HD
BRANCH   3   5
ATOM      5  N   UNL d   1      26.465 -13.053  -3.853  0.00  0.00    -0.221 N 
ATOM      6  H   UNL d   1      27.415 -12.862  -4.182  0.00  0.00     0.200 HD
BRANCH   5   7
ATOM      7  S   UNL d   1      25.826 -14.595  -4.223  0.00  0.00     0.276 S 
ATOM      8  O   UNL d   1      26.702 -15.157  -5.223  0.00  0.00    -0.199 OA
ATOM      9  O   UNL d   1      24.408 -14.417  -4.477  0.00  0.00    -0.199 OA
BRANCH   7  10
ATOM     10  C   UNL d   1      25.977 -15.615  -2.764  0.00  0.00     0.081 A 
ATOM     11  C   UNL d   1      24.795 -16.109  -2.189  0.00  0.00     0.026 A 
ATOM     12  C   UNL d   1      24.846 -16.945  -1.065  0.00  0.00     0.008 A 
ATOM     13  C   UNL d   1      26.078 -17.296  -0.502  0.00  0.00    -0.062 A 
ATOM     14  C   UNL d   1      26.152 -18.211   0.690  0.00  0.00     0.048 C 
ATOM     15  C   UNL d   1      27.253 -16.784  -1.073  0.00  0.00     0.008 A 
ATOM     16  C   UNL d   1      27.208 -15.942  -2.195  0.00  0.00     0.026 A 
ENDBRANCH   7  10
ENDBRANCH   5   7
ENDBRANCH   3   5
ENDBRANCH   1   3
BRANCH   1  17
ATOM     17  S   UNL d   1      25.362  -9.521  -5.007  0.00  0.00    -0.090 SA
BRANCH  17  18
ATOM     18  C   UNL d   1      26.340  -9.917  -6.527  0.00  0.00     0.184 C 
BRANCH  18  19
ATOM     19  C   UNL d   1      27.177 -11.207  -6.326  0.00  0.00     0.229 C 
ATOM     20  O   UNL d   1      26.674 -12.323  -6.222  0.00  0.00    -0.273 OA
ATOM     21  N   UNL d   1      28.557 -11.040  -6.266  0.00  0.00    -0.330 N 
ATOM     22  H   UNL d   1      28.942 -10.109  -6.162  0.00  0.00     0.165 HD
BRANCH  21  23
ATOM     23  C   UNL d   1      29.451 -12.184  -6.004  0.00  0.00     0.275 C 
BRANCH  23  24
ATOM     24  O   UNL d   1      28.826 -12.952  -4.973  0.00  0.00    -0.372 OA
ATOM     25  H   UNL d   1      28.070 -13.410  -5.375  0.00  0.00     0.212 HD
ENDBRANCH  23  24
BRANCH  23  26
ATOM     26  C   UNL d   1      29.764 -13.100  -7.248  0.00  0.00     0.231 C 
ATOM     27 CL   UNL d   1      31.528 -13.016  -7.618  0.00  0.00    -0.079 Cl
ATOM     28 CL   UNL d   1      29.353 -14.807  -6.895  0.00  0.00    -0.079 Cl
ATOM     29 CL   UNL d   1      28.860 -12.572  -8.704  0.00  0.00    -0.079 Cl
ENDBRANCH  23  26
ENDBRANCH  21  23
ENDBRANCH  18  19
ENDBRANCH  17  18
ENDBRANCH   1  17
TORSDOF 10
ENDMDL
MODEL 8
REMARK VINA RESULT:    -5.316      2.731      4.185
REMARK INTER + INTRA:         -12.948
REMARK INTER:                  -8.299
REMARK INTRA:                  -4.649
REMARK CONF_INDEPENDENT:        2.983
REMARK UNBOUND:                -4.649
REMARK  10 active torsions:
REMARK  status: ('A' for Active; 'I' for Inactive)
REMARK    1  A    between atoms: C_5  and  S_6 
REMARK    2  A    between atoms: S_6  and  N_9 
REMARK    3  A    between atoms: N_9  and  N_10 
REMARK    4  A    between atoms: N_10  and  C_11 
REMARK    5  A    between atoms: C_11  and  S_13 
REMARK    6  A    between atoms: S_13  and  C_14 
REMARK    7  A    between atoms: C_14  and  C_15 
REMARK       I    between atoms: C_15  and  N_17 
REMARK    8  A    between atoms: N_17  and  C_18 
REMARK    9  A    between atoms: C_18  and  O_19 
REMARK   10  A    between atoms: C_18  and  C_20 
ROOT
ATOM      1  C   UNL d   1      28.959 -14.944   0.049  0.00  0.00     0.154 C 
ATOM      2  S   UNL d   1      28.921 -13.277  -0.079  0.00  0.00    -0.051 SA
ENDROOT
BRANCH   1   3
ATOM      3  N   UNL d   1      28.310 -15.656   1.055  0.00  0.00    -0.275 N 
ATOM      4  H   UNL d   1      28.666 -15.654   2.012  0.00  0.00     0.189 HD
BRANCH   3   5
ATOM      5  N   UNL d   1      27.091 -16.494   0.802  0.00  0.00    -0.221 N 
ATOM      6  H   UNL d   1      27.130 -17.435   1.202  0.00  0.00     0.200 HD
BRANCH   5   7
ATOM      7  S   UNL d   1      26.321 -16.342  -0.716  0.00  0.00     0.276 S 
ATOM      8  O   UNL d   1      27.118 -17.111  -1.642  0.00  0.00    -0.199 OA
ATOM      9  O   UNL d   1      26.074 -14.927  -0.928  0.00  0.00    -0.199 OA
BRANCH   7  10
ATOM     10  C   UNL d   1      24.729 -17.145  -0.605  0.00  0.00     0.081 A 
ATOM     11  C   UNL d   1      24.712 -18.528  -0.363  0.00  0.00     0.026 A 
ATOM     12  C   UNL d   1      23.496 -19.212  -0.228  0.00  0.00     0.008 A 
ATOM     13  C   UNL d   1      22.283 -18.523  -0.333  0.00  0.00    -0.062 A 
ATOM     14  C   UNL d   1      20.970 -19.237  -0.168  0.00  0.00     0.048 C 
ATOM     15  C   UNL d   1      22.309 -17.144  -0.592  0.00  0.00     0.008 A 
ATOM     16  C   UNL d   1      23.524 -16.454  -0.734  0.00  0.00     0.026 A 
ENDBRANCH   7  10
ENDBRANCH   5   7
ENDBRANCH   3   5
ENDBRANCH   1   3
BRANCH   1  17
ATOM     17  S   UNL d   1      29.790 -16.042  -1.054  0.00  0.00    -0.090 SA
BRANCH  17  18
ATOM     18  C   UNL d   1      30.407 -15.026  -2.471  0.00  0.00     0.184 C 
BRANCH  18  19
ATOM     19  C   UNL d   1      29.309 -14.862  -3.554  0.00  0.00     0.229 C 
ATOM     20  O   UNL d   1      29.557 -14.564  -4.720  0.00  0.00    -0.273 OA
ATOM     21  N   UNL d   1      27.998 -15.073  -3.137  0.00  0.00    -0.330 N 
ATOM     22  H   UNL d   1      27.794 -15.129  -2.146  0.00  0.00     0.165 HD
BRANCH  21  23
ATOM     23  C   UNL d   1      26.864 -14.874  -4.060  0.00  0.00     0.275 C 
BRANCH  23  24
ATOM     24  O   UNL d   1      25.942 -15.933  -3.796  0.00  0.00    -0.372 OA
ATOM     25  H   UNL d   1      25.776 -15.936  -2.839  0.00  0.00     0.212 HD
ENDBRANCH  23  24
BRANCH  23  26
ATOM     26  C   UNL d   1      26.136 -13.481  -3.948  0.00  0.00     0.231 C 
ATOM     27 CL   UNL d   1      26.532 -12.485  -5.400  0.00  0.00    -0.079 Cl
ATOM     28 CL   UNL d   1      24.359 -13.699  -3.895  0.00  0.00    -0.079 Cl
ATOM     29 CL   UNL d   1      26.654 -12.576  -2.490  0.00  0.00    -0.079 Cl
ENDBRANCH  23  26
ENDBRANCH  21  23
ENDBRANCH  18  19
ENDBRANCH  17  18
ENDBRANCH   1  17
TORSDOF 10
ENDMDL
MODEL 9
REMARK VINA RESULT:    -4.950      5.133      6.699
REMARK INTER + INTRA:         -12.380
REMARK INTER:                  -7.933
REMARK INTRA:                  -4.447
REMARK CONF_INDEPENDENT:        2.983
REMARK UNBOUND:                -4.447
REMARK  10 active torsions:
REMARK  status: ('A' for Active; 'I' for Inactive)
REMARK    1  A    between atoms: C_5  and  S_6 
REMARK    2  A    between atoms: S_6  and  N_9 
REMARK    3  A    between atoms: N_9  and  N_10 
REMARK    4  A    between atoms: N_10  and  C_11 
REMARK    5  A    between atoms: C_11  and  S_13 
REMARK    6  A    between atoms: S_13  and  C_14 
REMARK    7  A    between atoms: C_14  and  C_15 
REMARK       I    between atoms: C_15  and  N_17 
REMARK    8  A    between atoms: N_17  and  C_18 
REMARK    9  A    between atoms: C_18  and  O_19 
REMARK   10  A    between atoms: C_18  and  C_20 
ROOT
ATOM      1  C   UNL d   1      26.157 -10.747  -3.633  0.00  0.00     0.154 C 
ATOM      2  S   UNL d   1      25.708  -9.320  -4.379  0.00  0.00    -0.051 SA
ENDROOT
BRANCH   1   3
ATOM      3  N   UNL d   1      25.685 -12.000  -4.016  0.00  0.00    -0.275 N 
ATOM      4  H   UNL d   1      24.710 -12.132  -4.290  0.00  0.00     0.189 HD
BRANCH   3   5
ATOM      5  N   UNL d   1      26.545 -13.229  -4.015  0.00  0.00    -0.221 N 
ATOM      6  H   UNL d   1      27.490 -13.088  -4.380  0.00  0.00     0.200 HD
BRANCH   5   7
ATOM      7  S   UNL d   1      25.799 -14.723  -4.383  0.00  0.00     0.276 S 
ATOM      8  O   UNL d   1      26.629 -15.341  -5.391  0.00  0.00    -0.199 OA
ATOM      9  O   UNL d   1      24.395 -14.448  -4.627  0.00  0.00    -0.199 OA
BRANCH   7  10
ATOM     10  C   UNL d   1      25.891 -15.754  -2.927  0.00  0.00     0.081 A 
ATOM     11  C   UNL d   1      27.150 -15.930  -2.332  0.00  0.00     0.026 A 
ATOM     12  C   UNL d   1      27.285 -16.697  -1.166  0.00  0.00     0.008 A 
ATOM     13  C   UNL d   1      26.164 -17.297  -0.583  0.00  0.00    -0.062 A 
ATOM     14  C   UNL d   1      26.287 -18.104   0.680  0.00  0.00     0.048 C 
ATOM     15  C   UNL d   1      24.912 -17.130  -1.194  0.00  0.00     0.008 A 
ATOM     16  C   UNL d   1      24.771 -16.367  -2.365  0.00  0.00     0.026 A 
ENDBRANCH   7  10
ENDBRANCH   5   7
ENDBRANCH   3   5
ENDBRANCH   1   3
BRANCH   1  17
ATOM     17  S   UNL d   1      27.288 -10.894  -2.288  0.00  0.00    -0.090 SA
BRANCH  17  18
ATOM     18  C   UNL d   1      28.993 -10.882  -3.007  0.00  0.00     0.184 C 
BRANCH  18  19
ATOM     19  C   UNL d   1      29.087 -11.840  -4.223  0.00  0.00     0.229 C 
ATOM     20  O   UNL d   1      29.598 -12.956  -4.159  0.00  0.00    -0.273 OA
ATOM     21  N   UNL d   1      28.555 -11.369  -5.419  0.00  0.00    -0.330 N 
ATOM     22  H   UNL d   1      28.313 -10.389  -5.505  0.00  0.00     0.165 HD
BRANCH  21  23
ATOM     23  C   UNL d   1      28.653 -12.161  -6.660  0.00  0.00     0.275 C 
BRANCH  23  24
ATOM     24  O   UNL d   1      27.873 -13.339  -6.446  0.00  0.00    -0.372 OA
ATOM     25  H   UNL d   1      28.252 -13.798  -5.679  0.00  0.00     0.212 HD
ENDBRANCH  23  24
BRANCH  23  26
ATOM     26  C   UNL d   1      28.177 -11.428  -7.972  0.00  0.00     0.231 C 
ATOM     27 CL   UNL d   1      29.335 -10.099  -8.362  0.00  0.00    -0.079 Cl
ATOM     28 CL   UNL d   1      28.151 -12.564  -9.357  0.00  0.00    -0.079 Cl
ATOM     29 CL   UNL d   1      26.546 -10.710  -7.777  0.00  0.00    -0.079 Cl
ENDBRANCH  23  26
ENDBRANCH  21  23
ENDBRANCH  18  19
ENDBRANCH  17  18
ENDBRANCH   1  17
TORSDOF 10
ENDMDL
