MODEL 1
REMARK VINA RESULT:    -8.570      0.000      0.000
REMARK INTER + INTRA:         -11.479
REMARK INTER:                 -10.062
REMARK INTRA:                  -1.417
REMARK CONF_INDEPENDENT:        1.492
REMARK UNBOUND:                -1.417
REMARK  5 active torsions:
REMARK  status: ('A' for Active; 'I' for Inactive)
REMARK       I    between atoms: C_2  and  N_3 
REMARK    1  A    between atoms: C_2  and  C_14 
REMARK    2  A    between atoms: N_3  and  N_4 
REMARK    3  A    between atoms: C_5  and  C_6 
REMARK    4  A    between atoms: C_12  and  O_13 
REMARK    5  A    between atoms: C_19  and  O_20 
ROOT
ATOM      1  O   UNL d   1      21.090 -17.903  -0.938  0.00  0.00    -0.266 OA
ATOM      2  C   UNL d   1      21.379 -18.865  -0.224  0.00  0.00     0.274 C 
ATOM      3  N   UNL d   1      22.686 -19.302   0.017  0.00  0.00    -0.243 N 
ATOM      4  H   UNL d   1      22.884 -20.102   0.605  0.00  0.00     0.192 HD
ENDROOT
BRANCH   3   5
ATOM      5  N   UNL d   1      23.715 -18.642  -0.611  0.00  0.00    -0.183 NA
ATOM      6  C   UNL d   1      23.795 -17.354  -0.515  0.00  0.00     0.153 C 
BRANCH   6   7
ATOM      7  C   UNL d   1      24.891 -16.599  -1.188  0.00  0.00     0.018 A 
ATOM      8  C   UNL d   1      24.566 -15.580  -2.095  0.00  0.00     0.039 A 
ATOM      9  C   UNL d   1      25.589 -14.843  -2.705  0.00  0.00     0.035 A 
ATOM     10 CL   UNL d   1      25.200 -13.576  -3.806  0.00  0.00    -0.084 Cl
ATOM     11  C   UNL d   1      26.929 -15.114  -2.430  0.00  0.00     0.026 A 
ATOM     12  C   UNL d   1      27.257 -16.139  -1.543  0.00  0.00     0.039 A 
ATOM     13  C   UNL d   1      26.241 -16.884  -0.935  0.00  0.00     0.077 A 
BRANCH  13  14
ATOM     14  O   UNL d   1      26.580 -17.943  -0.144  0.00  0.00    -0.360 OA
ATOM     15  H   UNL d   1      25.837 -18.560  -0.069  0.00  0.00     0.217 HD
ENDBRANCH  13  14
ENDBRANCH   6   7
ENDBRANCH   3   5
BRANCH   2  16
ATOM     16  C   UNL d   1      20.277 -19.616   0.451  0.00  0.00     0.066 A 
ATOM     17  C   UNL d   1      20.280 -19.796   1.843  0.00  0.00     0.020 A 
ATOM     18  C   UNL d   1      19.212 -20.449   2.475  0.00  0.00     0.001 A 
ATOM     19  C   UNL d   1      18.134 -20.926   1.729  0.00  0.00     0.003 A 
ATOM     20  C   UNL d   1      18.110 -20.738   0.347  0.00  0.00     0.037 A 
ATOM     21  C   UNL d   1      19.173 -20.082  -0.286  0.00  0.00     0.081 A 
BRANCH  21  22
ATOM     22  O   UNL d   1      19.144 -19.934  -1.645  0.00  0.00    -0.360 OA
ATOM     23  H   UNL d   1      19.846 -19.333  -1.937  0.00  0.00     0.217 HD
ENDBRANCH  21  22
ENDBRANCH   2  16
TORSDOF 5
ENDMDL
MODEL 2
REMARK VINA RESULT:    -8.325      1.977      2.273
REMARK INTER + INTRA:         -11.267
REMARK INTER:                  -9.817
REMARK INTRA:                  -1.450
REMARK CONF_INDEPENDENT:        1.492
REMARK UNBOUND:                -1.450
REMARK  5 active torsions:
REMARK  status: ('A' for Active; 'I' for Inactive)
REMARK       I    between atoms: C_2  and  N_3 
REMARK    1  A    between atoms: C_2  and  C_14 
REMARK    2  A    between atoms: N_3  and  N_4 
REMARK    3  A    between atoms: C_5  and  C_6 
REMARK    4  A    between atoms: C_12  and  O_13 
REMARK    5  A    between atoms: C_19  and  O_20 
ROOT
ATOM      1  O   UNL d   1      22.306 -18.950  -1.645  0.00  0.00    -0.266 OA
ATOM      2  C   UNL d   1      21.896 -18.545  -0.555  0.00  0.00     0.274 C 
ATOM      3  N   UNL d   1      22.426 -17.443   0.125  0.00  0.00    -0.243 N 
ATOM      4  H   UNL d   1      22.066 -17.144   1.023  0.00  0.00     0.192 HD
ENDROOT
BRANCH   3   5
ATOM      5  N   UNL d   1      23.497 -16.790  -0.437  0.00  0.00    -0.183 NA
ATOM      6  C   UNL d   1      24.595 -17.440  -0.653  0.00  0.00     0.153 C 
BRANCH   6   7
ATOM      7  C   UNL d   1      25.782 -16.766  -1.253  0.00  0.00     0.018 A 
ATOM      8  C   UNL d   1      27.067 -17.144  -0.838  0.00  0.00     0.039 A 
ATOM      9  C   UNL d   1      28.189 -16.541  -1.422  0.00  0.00     0.035 A 
ATOM     10 CL   UNL d   1      29.774 -17.011  -0.934  0.00  0.00    -0.084 Cl
ATOM     11  C   UNL d   1      28.046 -15.561  -2.403  0.00  0.00     0.026 A 
ATOM     12  C   UNL d   1      26.769 -15.169  -2.805  0.00  0.00     0.039 A 
ATOM     13  C   UNL d   1      25.645 -15.762  -2.222  0.00  0.00     0.077 A 
BRANCH  13  14
ATOM     14  O   UNL d   1      24.405 -15.301  -2.558  0.00  0.00    -0.360 OA
ATOM     15  H   UNL d   1      23.735 -15.983  -2.398  0.00  0.00     0.217 HD
ENDBRANCH  13  14
ENDBRANCH   6   7
ENDBRANCH   3   5
BRANCH   2  16
ATOM     16  C   UNL d   1      20.747 -19.252   0.089  0.00  0.00     0.066 A 
ATOM     17  C   UNL d   1      20.655 -19.344   1.487  0.00  0.00     0.020 A 
ATOM     18  C   UNL d   1      19.544 -19.957   2.084  0.00  0.00     0.001 A 
ATOM     19  C   UNL d   1      18.517 -20.478   1.297  0.00  0.00     0.003 A 
ATOM     20  C   UNL d   1      18.588 -20.378  -0.093  0.00  0.00     0.037 A 
ATOM     21  C   UNL d   1      19.694 -19.763  -0.691  0.00  0.00     0.081 A 
BRANCH  21  22
ATOM     22  O   UNL d   1      19.758 -19.700  -2.056  0.00  0.00    -0.360 OA
ATOM     23  H   UNL d   1      20.353 -18.988  -2.336  0.00  0.00     0.217 HD
ENDBRANCH  21  22
ENDBRANCH   2  16
TORSDOF 5
ENDMDL
MODEL 3
REMARK VINA RESULT:    -6.554      4.516      9.185
REMARK INTER + INTRA:          -9.506
REMARK INTER:                  -8.045
REMARK INTRA:                  -1.460
REMARK CONF_INDEPENDENT:        1.492
REMARK UNBOUND:                -1.460
REMARK  5 active torsions:
REMARK  status: ('A' for Active; 'I' for Inactive)
REMARK       I    between atoms: C_2  and  N_3 
REMARK    1  A    between atoms: C_2  and  C_14 
REMARK    2  A    between atoms: N_3  and  N_4 
REMARK    3  A    between atoms: C_5  and  C_6 
REMARK    4  A    between atoms: C_12  and  O_13 
REMARK    5  A    between atoms: C_19  and  O_20 
ROOT
ATOM      1  O   UNL d   1      27.124 -15.419  -5.584  0.00  0.00    -0.266 OA
ATOM      2  C   UNL d   1      27.024 -14.307  -5.062  0.00  0.00     0.274 C 
ATOM      3  N   UNL d   1      26.672 -14.093  -3.725  0.00  0.00    -0.243 N 
ATOM      4  H   UNL d   1      26.593 -13.163  -3.334  0.00  0.00     0.192 HD
ENDROOT
BRANCH   3   5
ATOM      5  N   UNL d   1      26.382 -15.190  -2.950  0.00  0.00    -0.183 NA
ATOM      6  C   UNL d   1      25.324 -15.178  -2.203  0.00  0.00     0.153 C 
BRANCH   6   7
ATOM      7  C   UNL d   1      24.979 -16.345  -1.341  0.00  0.00     0.018 A 
ATOM      8  C   UNL d   1      23.655 -16.807  -1.312  0.00  0.00     0.039 A 
ATOM      9  C   UNL d   1      23.328 -17.924  -0.531  0.00  0.00     0.035 A 
ATOM     10 CL   UNL d   1      21.709 -18.513  -0.502  0.00  0.00    -0.084 Cl
ATOM     11  C   UNL d   1      24.300 -18.578   0.225  0.00  0.00     0.026 A 
ATOM     12  C   UNL d   1      25.614 -18.110   0.213  0.00  0.00     0.039 A 
ATOM     13  C   UNL d   1      25.946 -16.992  -0.559  0.00  0.00     0.077 A 
BRANCH  13  14
ATOM     14  O   UNL d   1      27.214 -16.491  -0.486  0.00  0.00    -0.360 OA
ATOM     15  H   UNL d   1      27.495 -16.158  -1.352  0.00  0.00     0.217 HD
ENDBRANCH  13  14
ENDBRANCH   6   7
ENDBRANCH   3   5
BRANCH   2  16
ATOM     16  C   UNL d   1      27.311 -13.096  -5.890  0.00  0.00     0.066 A 
ATOM     17  C   UNL d   1      28.278 -13.135  -6.907  0.00  0.00     0.020 A 
ATOM     18  C   UNL d   1      28.498 -12.012  -7.718  0.00  0.00     0.001 A 
ATOM     19  C   UNL d   1      27.758 -10.845  -7.526  0.00  0.00     0.003 A 
ATOM     20  C   UNL d   1      26.781 -10.799  -6.530  0.00  0.00     0.037 A 
ATOM     21  C   UNL d   1      26.557 -11.920  -5.722  0.00  0.00     0.081 A 
BRANCH  21  22
ATOM     22  O   UNL d   1      25.615 -11.845  -4.733  0.00  0.00    -0.360 OA
ATOM     23  H   UNL d   1      24.783 -11.492  -5.082  0.00  0.00     0.217 HD
ENDBRANCH  21  22
ENDBRANCH   2  16
TORSDOF 5
ENDMDL
MODEL 4
REMARK VINA RESULT:    -6.136      4.710      9.131
REMARK INTER + INTRA:          -9.201
REMARK INTER:                  -7.628
REMARK INTRA:                  -1.573
REMARK CONF_INDEPENDENT:        1.492
REMARK UNBOUND:                -1.573
REMARK  5 active torsions:
REMARK  status: ('A' for Active; 'I' for Inactive)
REMARK       I    between atoms: C_2  and  N_3 
REMARK    1  A    between atoms: C_2  and  C_14 
REMARK    2  A    between atoms: N_3  and  N_4 
REMARK    3  A    between atoms: C_5  and  C_6 
REMARK    4  A    between atoms: C_12  and  O_13 
REMARK    5  A    between atoms: C_19  and  O_20 
ROOT
ATOM      1  O   UNL d   1      26.758 -12.534  -2.973  0.00  0.00    -0.266 OA
ATOM      2  C   UNL d   1      25.962 -12.488  -3.913  0.00  0.00     0.274 C 
ATOM      3  N   UNL d   1      25.096 -13.529  -4.262  0.00  0.00    -0.243 N 
ATOM      4  H   UNL d   1      24.459 -13.457  -5.046  0.00  0.00     0.192 HD
ENDROOT
BRANCH   3   5
ATOM      5  N   UNL d   1      25.159 -14.695  -3.536  0.00  0.00    -0.183 NA
ATOM      6  C   UNL d   1      24.444 -14.815  -2.464  0.00  0.00     0.153 C 
BRANCH   6   7
ATOM      7  C   UNL d   1      24.491 -16.060  -1.644  0.00  0.00     0.018 A 
ATOM      8  C   UNL d   1      23.290 -16.677  -1.266  0.00  0.00     0.039 A 
ATOM      9  C   UNL d   1      23.325 -17.866  -0.525  0.00  0.00     0.035 A 
ATOM     10 CL   UNL d   1      21.856 -18.643  -0.071  0.00  0.00    -0.084 Cl
ATOM     11  C   UNL d   1      24.539 -18.440  -0.150  0.00  0.00     0.026 A 
ATOM     12  C   UNL d   1      25.735 -17.819  -0.508  0.00  0.00     0.039 A 
ATOM     13  C   UNL d   1      25.708 -16.628  -1.242  0.00  0.00     0.077 A 
BRANCH  13  14
ATOM     14  O   UNL d   1      26.883 -15.986  -1.503  0.00  0.00    -0.360 OA
ATOM     15  H   UNL d   1      26.793 -15.422  -2.286  0.00  0.00     0.217 HD
ENDBRANCH  13  14
ENDBRANCH   6   7
ENDBRANCH   3   5
BRANCH   2  16
ATOM     16  C   UNL d   1      25.889 -11.241  -4.734  0.00  0.00     0.066 A 
ATOM     17  C   UNL d   1      26.011 -11.294  -6.131  0.00  0.00     0.020 A 
ATOM     18  C   UNL d   1      25.881 -10.127  -6.898  0.00  0.00     0.001 A 
ATOM     19  C   UNL d   1      25.628  -8.901  -6.282  0.00  0.00     0.003 A 
ATOM     20  C   UNL d   1      25.487  -8.837  -4.896  0.00  0.00     0.037 A 
ATOM     21  C   UNL d   1      25.612 -10.002  -4.128  0.00  0.00     0.081 A 
BRANCH  21  22
ATOM     22  O   UNL d   1      25.500  -9.913  -2.768  0.00  0.00    -0.360 OA
ATOM     23  H   UNL d   1      25.934 -10.667  -2.341  0.00  0.00     0.217 HD
ENDBRANCH  21  22
ENDBRANCH   2  16
TORSDOF 5
ENDMDL
MODEL 5
REMARK VINA RESULT:    -5.824      6.050      9.018
REMARK INTER + INTRA:          -8.732
REMARK INTER:                  -7.316
REMARK INTRA:                  -1.416
REMARK CONF_INDEPENDENT:        1.492
REMARK UNBOUND:                -1.416
REMARK  5 active torsions:
REMARK  status: ('A' for Active; 'I' for Inactive)
REMARK       I    between atoms: C_2  and  N_3 
REMARK    1  A    between atoms: C_2  and  C_14 
REMARK    2  A    between atoms: N_3  and  N_4 
REMARK    3  A    between atoms: C_5  and  C_6 
REMARK    4  A    between atoms: C_12  and  O_13 
REMARK    5  A    between atoms: C_19  and  O_20 
ROOT
ATOM      1  O   UNL d   1      27.080 -12.685   3.568  0.00  0.00    -0.266 OA
ATOM      2  C   UNL d   1      27.922 -13.532   3.870  0.00  0.00     0.274 C 
ATOM      3  N   UNL d   1      28.333 -14.570   3.028  0.00  0.00    -0.243 N 
ATOM      4  H   UNL d   1      29.024 -15.252   3.314  0.00  0.00     0.192 HD
ENDROOT
BRANCH   3   5
ATOM      5  N   UNL d   1      27.734 -14.679   1.796  0.00  0.00    -0.183 NA
ATOM      6  C   UNL d   1      27.409 -15.849   1.348  0.00  0.00     0.153 C 
BRANCH   6   7
ATOM      7  C   UNL d   1      26.765 -16.010   0.013  0.00  0.00     0.018 A 
ATOM      8  C   UNL d   1      25.661 -16.866  -0.117  0.00  0.00     0.039 A 
ATOM      9  C   UNL d   1      25.028 -16.996  -1.360  0.00  0.00     0.035 A 
ATOM     10 CL   UNL d   1      23.659 -18.030  -1.526  0.00  0.00    -0.084 Cl
ATOM     11  C   UNL d   1      25.486 -16.294  -2.474  0.00  0.00     0.026 A 
ATOM     12  C   UNL d   1      26.595 -15.457  -2.353  0.00  0.00     0.039 A 
ATOM     13  C   UNL d   1      27.236 -15.326  -1.117  0.00  0.00     0.077 A 
BRANCH  13  14
ATOM     14  O   UNL d   1      28.374 -14.577  -1.038  0.00  0.00    -0.360 OA
ATOM     15  H   UNL d   1      28.434 -14.144  -0.173  0.00  0.00     0.217 HD
ENDBRANCH  13  14
ENDBRANCH   6   7
ENDBRANCH   3   5
BRANCH   2  16
ATOM     16  C   UNL d   1      28.573 -13.451   5.214  0.00  0.00     0.066 A 
ATOM     17  C   UNL d   1      27.938 -12.795   6.280  0.00  0.00     0.020 A 
ATOM     18  C   UNL d   1      28.528 -12.776   7.552  0.00  0.00     0.001 A 
ATOM     19  C   UNL d   1      29.750 -13.410   7.773  0.00  0.00     0.003 A 
ATOM     20  C   UNL d   1      30.383 -14.082   6.727  0.00  0.00     0.037 A 
ATOM     21  C   UNL d   1      29.794 -14.106   5.457  0.00  0.00     0.081 A 
BRANCH  21  22
ATOM     22  O   UNL d   1      30.445 -14.745   4.438  0.00  0.00    -0.360 OA
ATOM     23  H   UNL d   1      31.399 -14.584   4.491  0.00  0.00     0.217 HD
ENDBRANCH  21  22
ENDBRANCH   2  16
TORSDOF 5
ENDMDL
MODEL 6
REMARK VINA RESULT:    -5.797      5.544      8.403
REMARK INTER + INTRA:          -8.591
REMARK INTER:                  -7.289
REMARK INTRA:                  -1.303
REMARK CONF_INDEPENDENT:        1.492
REMARK UNBOUND:                -1.303
REMARK  5 active torsions:
REMARK  status: ('A' for Active; 'I' for Inactive)
REMARK       I    between atoms: C_2  and  N_3 
REMARK    1  A    between atoms: C_2  and  C_14 
REMARK    2  A    between atoms: N_3  and  N_4 
REMARK    3  A    between atoms: C_5  and  C_6 
REMARK    4  A    between atoms: C_12  and  O_13 
REMARK    5  A    between atoms: C_19  and  O_20 
ROOT
ATOM      1  O   UNL d   1      26.476 -13.017   2.611  0.00  0.00    -0.266 OA
ATOM      2  C   UNL d   1      27.406 -13.681   3.072  0.00  0.00     0.274 C 
ATOM      3  N   UNL d   1      27.971 -14.793   2.438  0.00  0.00    -0.243 N 
ATOM      4  H   UNL d   1      28.731 -15.317   2.852  0.00  0.00     0.192 HD
ENDROOT
BRANCH   3   5
ATOM      5  N   UNL d   1      27.431 -15.198   1.241  0.00  0.00    -0.183 NA
ATOM      6  C   UNL d   1      27.178 -14.316   0.328  0.00  0.00     0.153 C 
BRANCH   6   7
ATOM      7  C   UNL d   1      26.584 -14.714  -0.981  0.00  0.00     0.018 A 
ATOM      8  C   UNL d   1      26.594 -13.799  -2.044  0.00  0.00     0.039 A 
ATOM      9  C   UNL d   1      26.070 -14.177  -3.288  0.00  0.00     0.035 A 
ATOM     10 CL   UNL d   1      26.095 -13.068  -4.607  0.00  0.00    -0.084 Cl
ATOM     11  C   UNL d   1      25.530 -15.447  -3.481  0.00  0.00     0.026 A 
ATOM     12  C   UNL d   1      25.501 -16.353  -2.421  0.00  0.00     0.039 A 
ATOM     13  C   UNL d   1      26.016 -15.981  -1.175  0.00  0.00     0.077 A 
BRANCH  13  14
ATOM     14  O   UNL d   1      25.895 -16.845  -0.126  0.00  0.00    -0.360 OA
ATOM     15  H   UNL d   1      26.561 -16.649   0.552  0.00  0.00     0.217 HD
ENDBRANCH  13  14
ENDBRANCH   6   7
ENDBRANCH   3   5
BRANCH   2  16
ATOM     16  C   UNL d   1      27.997 -13.276   4.385  0.00  0.00     0.066 A 
ATOM     17  C   UNL d   1      28.060 -11.924   4.756  0.00  0.00     0.020 A 
ATOM     18  C   UNL d   1      28.560 -11.558   6.014  0.00  0.00     0.001 A 
ATOM     19  C   UNL d   1      28.998 -12.533   6.911  0.00  0.00     0.003 A 
ATOM     20  C   UNL d   1      28.924 -13.882   6.562  0.00  0.00     0.037 A 
ATOM     21  C   UNL d   1      28.421 -14.249   5.308  0.00  0.00     0.081 A 
BRANCH  21  22
ATOM     22  O   UNL d   1      28.384 -15.575   4.973  0.00  0.00    -0.360 OA
ATOM     23  H   UNL d   1      29.117 -15.796   4.379  0.00  0.00     0.217 HD
ENDBRANCH  21  22
ENDBRANCH   2  16
TORSDOF 5
ENDMDL
