MODEL 1
REMARK VINA RESULT:    -7.254      0.000      0.000
REMARK INTER + INTRA:         -11.064
REMARK INTER:                 -10.237
REMARK INTRA:                  -0.827
REMARK CONF_INDEPENDENT:        2.983
REMARK UNBOUND:                -0.827
REMARK  10 active torsions:
REMARK  status: ('A' for Active; 'I' for Inactive)
REMARK    1  A    between atoms: C_2  and  C_4 
REMARK    2  A    between atoms: C_4  and  C_5 
REMARK    3  A    between atoms: C_5  and  N_6 
REMARK    4  A    between atoms: N_6  and  C_7 
REMARK    5  A    between atoms: C_7  and  N_9 
REMARK    6  A    between atoms: N_9  and  N_10 
REMARK       I    between atoms: N_10  and  C_11 
REMARK    7  A    between atoms: C_11  and  C_13 
REMARK    8  A    between atoms: C_13  and  S_14 
REMARK    9  A    between atoms: S_14  and  C_15 
REMARK   10  A    between atoms: C_18  and  N_19 
ROOT
ATOM      1  N   UNL d   1      28.208 -14.874   1.711  0.00  0.00    -0.267 N 
ATOM      2  C   UNL d   1      27.137 -14.436   0.939  0.00  0.00     0.245 C 
ATOM      3  O   UNL d   1      26.599 -13.355   1.191  0.00  0.00    -0.271 OA
ATOM      4  H   UNL d   1      28.711 -15.748   1.558  0.00  0.00     0.190 HD
ENDROOT
BRANCH   1   5
ATOM      5  N   UNL d   1      28.687 -14.067   2.807  0.00  0.00    -0.274 N 
ATOM      6  H   UNL d   1      29.280 -13.281   2.543  0.00  0.00     0.189 HD
BRANCH   5   7
ATOM      7  C   UNL d   1      28.341 -14.375   4.119  0.00  0.00     0.186 C 
ATOM      8  S   UNL d   1      26.787 -14.100   4.710  0.00  0.00    -0.040 SA
BRANCH   7   9
ATOM      9  N   UNL d   1      29.373 -14.923   4.881  0.00  0.00    -0.366 N 
ATOM     10  H   UNL d   1      29.961 -15.645   4.483  0.00  0.00     0.161 HD
BRANCH   9  11
ATOM     11  C   UNL d   1      29.717 -14.440   6.227  0.00  0.00     0.122 C 
BRANCH  11  12
ATOM     12  C   UNL d   1      28.966 -13.195   6.716  0.00  0.00     0.023 C 
BRANCH  12  13
ATOM     13  C   UNL d   1      29.777 -12.401   7.775  0.00  0.00    -0.021 C 
ATOM     14  C   UNL d   1      28.995 -12.297   9.087  0.00  0.00     0.009 C 
ATOM     15  C   UNL d   1      31.140 -13.041   8.057  0.00  0.00     0.009 C 
ENDBRANCH  12  13
ENDBRANCH  11  12
ENDBRANCH   9  11
ENDBRANCH   7   9
ENDBRANCH   5   7
ENDBRANCH   1   5
BRANCH   2  16
ATOM     16  C   UNL d   1      26.696 -15.384  -0.215  0.00  0.00     0.184 C 
BRANCH  16  17
ATOM     17  S   UNL d   1      26.410 -17.100   0.446  0.00  0.00    -0.121 SA
BRANCH  17  18
ATOM     18  C   UNL d   1      24.722 -17.509   0.008  0.00  0.00     0.001 A 
ATOM     19  C   UNL d   1      23.755 -16.541  -0.278  0.00  0.00     0.021 A 
ATOM     20  C   UNL d   1      22.443 -16.917  -0.612  0.00  0.00     0.037 A 
ATOM     21  C   UNL d   1      22.118 -18.273  -0.757  0.00  0.00     0.102 A 
ATOM     22  C   UNL d   1      23.083 -19.253  -0.518  0.00  0.00     0.037 A 
ATOM     23  C   UNL d   1      24.379 -18.865  -0.143  0.00  0.00     0.021 A 
BRANCH  21  24
ATOM     24  N   UNL d   1      20.777 -18.654  -1.229  0.00  0.00    -0.116 N 
ATOM     25  O   UNL d   1      20.674 -19.677  -1.914  0.00  0.00    -0.532 OA
ATOM     26  O   UNL d   1      19.822 -17.930  -0.896  0.00  0.00    -0.532 OA
ENDBRANCH  21  24
ENDBRANCH  17  18
ENDBRANCH  16  17
ENDBRANCH   2  16
TORSDOF 10
ENDMDL
MODEL 2
REMARK VINA RESULT:    -7.123      4.938      9.646
REMARK INTER + INTRA:         -11.321
REMARK INTER:                 -10.106
REMARK INTRA:                  -1.215
REMARK CONF_INDEPENDENT:        2.983
REMARK UNBOUND:                -1.215
REMARK  10 active torsions:
REMARK  status: ('A' for Active; 'I' for Inactive)
REMARK    1  A    between atoms: C_2  and  C_4 
REMARK    2  A    between atoms: C_4  and  C_5 
REMARK    3  A    between atoms: C_5  and  N_6 
REMARK    4  A    between atoms: N_6  and  C_7 
REMARK    5  A    between atoms: C_7  and  N_9 
REMARK    6  A    between atoms: N_9  and  N_10 
REMARK       I    between atoms: N_10  and  C_11 
REMARK    7  A    between atoms: C_11  and  C_13 
REMARK    8  A    between atoms: C_13  and  S_14 
REMARK    9  A    between atoms: S_14  and  C_15 
REMARK   10  A    between atoms: C_18  and  N_19 
ROOT
ATOM      1  N   UNL d   1      25.206 -15.337  -1.778  0.00  0.00    -0.267 N 
ATOM      2  C   UNL d   1      25.454 -14.515  -2.873  0.00  0.00     0.245 C 
ATOM      3  O   UNL d   1      25.166 -14.898  -4.009  0.00  0.00    -0.271 OA
ATOM      4  H   UNL d   1      25.406 -15.086  -0.811  0.00  0.00     0.190 HD
ENDROOT
BRANCH   1   5
ATOM      5  N   UNL d   1      24.615 -16.639  -1.973  0.00  0.00    -0.274 N 
ATOM      6  H   UNL d   1      24.543 -16.945  -2.942  0.00  0.00     0.189 HD
BRANCH   5   7
ATOM      7  C   UNL d   1      24.184 -17.392  -0.884  0.00  0.00     0.186 C 
ATOM      8  S   UNL d   1      25.275 -18.127   0.169  0.00  0.00    -0.040 SA
BRANCH   7   9
ATOM      9  N   UNL d   1      22.798 -17.476  -0.745  0.00  0.00    -0.366 N 
ATOM     10  H   UNL d   1      22.213 -16.733  -1.106  0.00  0.00     0.161 HD
BRANCH   9  11
ATOM     11  C   UNL d   1      22.122 -18.650  -0.171  0.00  0.00     0.122 C 
BRANCH  11  12
ATOM     12  C   UNL d   1      20.779 -19.038  -0.803  0.00  0.00     0.023 C 
BRANCH  12  13
ATOM     13  C   UNL d   1      19.683 -19.295   0.265  0.00  0.00    -0.021 C 
ATOM     14  C   UNL d   1      18.803 -20.481  -0.140  0.00  0.00     0.009 C 
ATOM     15  C   UNL d   1      20.278 -19.567   1.650  0.00  0.00     0.009 C 
ENDBRANCH  12  13
ENDBRANCH  11  12
ENDBRANCH   9  11
ENDBRANCH   7   9
ENDBRANCH   5   7
ENDBRANCH   1   5
BRANCH   2  16
ATOM     16  C   UNL d   1      26.098 -13.133  -2.554  0.00  0.00     0.184 C 
BRANCH  16  17
ATOM     17  S   UNL d   1      27.379 -13.321  -1.217  0.00  0.00    -0.121 SA
BRANCH  17  18
ATOM     18  C   UNL d   1      27.156 -11.912  -0.136  0.00  0.00     0.001 A 
ATOM     19  C   UNL d   1      27.405 -10.596  -0.539  0.00  0.00     0.021 A 
ATOM     20  C   UNL d   1      27.218  -9.527   0.352  0.00  0.00     0.037 A 
ATOM     21  C   UNL d   1      26.684  -9.762   1.627  0.00  0.00     0.102 A 
ATOM     22  C   UNL d   1      26.389 -11.065   2.033  0.00  0.00     0.037 A 
ATOM     23  C   UNL d   1      26.621 -12.129   1.148  0.00  0.00     0.021 A 
BRANCH  21  24
ATOM     24  N   UNL d   1      26.374  -8.624   2.509  0.00  0.00    -0.116 N 
ATOM     25  O   UNL d   1      25.534  -7.805   2.121  0.00  0.00    -0.532 OA
ATOM     26  O   UNL d   1      26.965  -8.564   3.601  0.00  0.00    -0.532 OA
ENDBRANCH  21  24
ENDBRANCH  17  18
ENDBRANCH  16  17
ENDBRANCH   2  16
TORSDOF 10
ENDMDL
MODEL 3
REMARK VINA RESULT:    -6.662      6.227      8.707
REMARK INTER + INTRA:         -10.836
REMARK INTER:                  -9.645
REMARK INTRA:                  -1.192
REMARK CONF_INDEPENDENT:        2.983
REMARK UNBOUND:                -1.192
REMARK  10 active torsions:
REMARK  status: ('A' for Active; 'I' for Inactive)
REMARK    1  A    between atoms: C_2  and  C_4 
REMARK    2  A    between atoms: C_4  and  C_5 
REMARK    3  A    between atoms: C_5  and  N_6 
REMARK    4  A    between atoms: N_6  and  C_7 
REMARK    5  A    between atoms: C_7  and  N_9 
REMARK    6  A    between atoms: N_9  and  N_10 
REMARK       I    between atoms: N_10  and  C_11 
REMARK    7  A    between atoms: C_11  and  C_13 
REMARK    8  A    between atoms: C_13  and  S_14 
REMARK    9  A    between atoms: S_14  and  C_15 
REMARK   10  A    between atoms: C_18  and  N_19 
ROOT
ATOM      1  N   UNL d   1      26.126 -13.317  -3.574  0.00  0.00    -0.267 N 
ATOM      2  C   UNL d   1      25.381 -14.428  -3.192  0.00  0.00     0.245 C 
ATOM      3  O   UNL d   1      24.164 -14.449  -3.387  0.00  0.00    -0.271 OA
ATOM      4  H   UNL d   1      27.135 -13.230  -3.457  0.00  0.00     0.190 HD
ENDROOT
BRANCH   1   5
ATOM      5  N   UNL d   1      25.474 -12.189  -4.196  0.00  0.00    -0.274 N 
ATOM      6  H   UNL d   1      24.481 -12.310  -4.386  0.00  0.00     0.189 HD
BRANCH   5   7
ATOM      7  C   UNL d   1      26.190 -11.035  -4.502  0.00  0.00     0.186 C 
ATOM      8  S   UNL d   1      27.787 -10.830  -4.003  0.00  0.00    -0.040 SA
BRANCH   7   9
ATOM      9  N   UNL d   1      25.484 -10.090  -5.245  0.00  0.00    -0.366 N 
ATOM     10  H   UNL d   1      24.477 -10.162  -5.319  0.00  0.00     0.161 HD
BRANCH   9  11
ATOM     11  C   UNL d   1      26.124  -8.921  -5.867  0.00  0.00     0.122 C 
BRANCH  11  12
ATOM     12  C   UNL d   1      25.397  -7.580  -5.705  0.00  0.00     0.023 C 
BRANCH  12  13
ATOM     13  C   UNL d   1      23.927  -7.648  -6.197  0.00  0.00    -0.021 C 
ATOM     14  C   UNL d   1      22.958  -7.416  -5.034  0.00  0.00     0.009 C 
ATOM     15  C   UNL d   1      23.638  -6.624  -7.298  0.00  0.00     0.009 C 
ENDBRANCH  12  13
ENDBRANCH  11  12
ENDBRANCH   9  11
ENDBRANCH   7   9
ENDBRANCH   5   7
ENDBRANCH   1   5
BRANCH   2  16
ATOM     16  C   UNL d   1      26.180 -15.587  -2.526  0.00  0.00     0.184 C 
BRANCH  16  17
ATOM     17  S   UNL d   1      25.654 -15.785  -0.752  0.00  0.00    -0.121 SA
BRANCH  17  18
ATOM     18  C   UNL d   1      24.237 -16.879  -0.790  0.00  0.00     0.001 A 
ATOM     19  C   UNL d   1      24.340 -18.264  -0.629  0.00  0.00     0.021 A 
ATOM     20  C   UNL d   1      23.195 -19.076  -0.672  0.00  0.00     0.037 A 
ATOM     21  C   UNL d   1      21.925 -18.493  -0.777  0.00  0.00     0.102 A 
ATOM     22  C   UNL d   1      21.799 -17.107  -0.895  0.00  0.00     0.037 A 
ATOM     23  C   UNL d   1      22.954 -16.310  -0.895  0.00  0.00     0.021 A 
BRANCH  21  24
ATOM     24  N   UNL d   1      20.724 -19.340  -0.694  0.00  0.00    -0.116 N 
ATOM     25  O   UNL d   1      20.217 -19.518   0.418  0.00  0.00    -0.532 OA
ATOM     26  O   UNL d   1      20.281 -19.816  -1.754  0.00  0.00    -0.532 OA
ENDBRANCH  21  24
ENDBRANCH  17  18
ENDBRANCH  16  17
ENDBRANCH   2  16
TORSDOF 10
ENDMDL
MODEL 4
REMARK VINA RESULT:    -6.543      1.967      2.370
REMARK INTER + INTRA:         -11.046
REMARK INTER:                  -9.526
REMARK INTRA:                  -1.520
REMARK CONF_INDEPENDENT:        2.983
REMARK UNBOUND:                -1.520
REMARK  10 active torsions:
REMARK  status: ('A' for Active; 'I' for Inactive)
REMARK    1  A    between atoms: C_2  and  C_4 
REMARK    2  A    between atoms: C_4  and  C_5 
REMARK    3  A    between atoms: C_5  and  N_6 
REMARK    4  A    between atoms: N_6  and  C_7 
REMARK    5  A    between atoms: C_7  and  N_9 
REMARK    6  A    between atoms: N_9  and  N_10 
REMARK       I    between atoms: N_10  and  C_11 
REMARK    7  A    between atoms: C_11  and  C_13 
REMARK    8  A    between atoms: C_13  and  S_14 
REMARK    9  A    between atoms: S_14  and  C_15 
REMARK   10  A    between atoms: C_18  and  N_19 
ROOT
ATOM      1  N   UNL d   1      28.846 -15.125   1.567  0.00  0.00    -0.267 N 
ATOM      2  C   UNL d   1      27.554 -15.150   1.052  0.00  0.00     0.245 C 
ATOM      3  O   UNL d   1      26.909 -14.103   0.958  0.00  0.00    -0.271 OA
ATOM      4  H   UNL d   1      29.444 -15.945   1.665  0.00  0.00     0.190 HD
ENDROOT
BRANCH   1   5
ATOM      5  N   UNL d   1      29.431 -13.876   1.991  0.00  0.00    -0.274 N 
ATOM      6  H   UNL d   1      28.843 -13.054   1.864  0.00  0.00     0.189 HD
BRANCH   5   7
ATOM      7  C   UNL d   1      30.713 -13.840   2.532  0.00  0.00     0.186 C 
ATOM      8  S   UNL d   1      31.971 -13.024   1.763  0.00  0.00    -0.040 SA
BRANCH   7   9
ATOM      9  N   UNL d   1      30.856 -14.521   3.741  0.00  0.00    -0.366 N 
ATOM     10  H   UNL d   1      31.776 -14.821   4.040  0.00  0.00     0.161 HD
BRANCH   9  11
ATOM     11  C   UNL d   1      29.736 -14.753   4.665  0.00  0.00     0.122 C 
BRANCH  11  12
ATOM     12  C   UNL d   1      29.376 -13.593   5.603  0.00  0.00     0.023 C 
BRANCH  12  13
ATOM     13  C   UNL d   1      27.961 -13.025   5.314  0.00  0.00    -0.021 C 
ATOM     14  C   UNL d   1      28.046 -11.821   4.370  0.00  0.00     0.009 C 
ATOM     15  C   UNL d   1      27.031 -14.075   4.699  0.00  0.00     0.009 C 
ENDBRANCH  12  13
ENDBRANCH  11  12
ENDBRANCH   9  11
ENDBRANCH   7   9
ENDBRANCH   5   7
ENDBRANCH   1   5
BRANCH   2  16
ATOM     16  C   UNL d   1      27.016 -16.549   0.628  0.00  0.00     0.184 C 
BRANCH  16  17
ATOM     17  S   UNL d   1      26.222 -16.442  -1.051  0.00  0.00    -0.121 SA
BRANCH  17  18
ATOM     18  C   UNL d   1      24.591 -17.158  -0.859  0.00  0.00     0.001 A 
ATOM     19  C   UNL d   1      23.413 -16.420  -1.008  0.00  0.00     0.021 A 
ATOM     20  C   UNL d   1      22.160 -17.031  -0.842  0.00  0.00     0.037 A 
ATOM     21  C   UNL d   1      22.077 -18.413  -0.621  0.00  0.00     0.102 A 
ATOM     22  C   UNL d   1      23.242 -19.175  -0.512  0.00  0.00     0.037 A 
ATOM     23  C   UNL d   1      24.490 -18.544  -0.637  0.00  0.00     0.021 A 
BRANCH  21  24
ATOM     24  N   UNL d   1      20.759 -19.066  -0.573  0.00  0.00    -0.116 N 
ATOM     25  O   UNL d   1      20.392 -19.701  -1.567  0.00  0.00    -0.532 OA
ATOM     26  O   UNL d   1      20.098 -18.952   0.474  0.00  0.00    -0.532 OA
ENDBRANCH  21  24
ENDBRANCH  17  18
ENDBRANCH  16  17
ENDBRANCH   2  16
TORSDOF 10
ENDMDL
MODEL 5
REMARK VINA RESULT:    -6.534      4.608      8.569
REMARK INTER + INTRA:         -11.085
REMARK INTER:                  -9.517
REMARK INTRA:                  -1.568
REMARK CONF_INDEPENDENT:        2.983
REMARK UNBOUND:                -1.568
REMARK  10 active torsions:
REMARK  status: ('A' for Active; 'I' for Inactive)
REMARK    1  A    between atoms: C_2  and  C_4 
REMARK    2  A    between atoms: C_4  and  C_5 
REMARK    3  A    between atoms: C_5  and  N_6 
REMARK    4  A    between atoms: N_6  and  C_7 
REMARK    5  A    between atoms: C_7  and  N_9 
REMARK    6  A    between atoms: N_9  and  N_10 
REMARK       I    between atoms: N_10  and  C_11 
REMARK    7  A    between atoms: C_11  and  C_13 
REMARK    8  A    between atoms: C_13  and  S_14 
REMARK    9  A    between atoms: S_14  and  C_15 
REMARK   10  A    between atoms: C_18  and  N_19 
ROOT
ATOM      1  N   UNL d   1      29.479 -15.139   1.198  0.00  0.00    -0.267 N 
ATOM      2  C   UNL d   1      30.080 -14.035   1.795  0.00  0.00     0.245 C 
ATOM      3  O   UNL d   1      30.518 -13.119   1.094  0.00  0.00    -0.271 OA
ATOM      4  H   UNL d   1      29.085 -15.928   1.709  0.00  0.00     0.190 HD
ENDROOT
BRANCH   1   5
ATOM      5  N   UNL d   1      29.370 -15.213  -0.239  0.00  0.00    -0.274 N 
ATOM      6  H   UNL d   1      29.876 -14.493  -0.752  0.00  0.00     0.189 HD
BRANCH   5   7
ATOM      7  C   UNL d   1      28.615 -16.215  -0.843  0.00  0.00     0.186 C 
ATOM      8  S   UNL d   1      28.139 -16.109  -2.456  0.00  0.00    -0.040 SA
BRANCH   7   9
ATOM      9  N   UNL d   1      28.302 -17.291  -0.012  0.00  0.00    -0.366 N 
ATOM     10  H   UNL d   1      29.022 -17.957   0.237  0.00  0.00     0.161 HD
BRANCH   9  11
ATOM     11  C   UNL d   1      26.978 -17.465   0.606  0.00  0.00     0.122 C 
BRANCH  11  12
ATOM     12  C   UNL d   1      25.926 -18.199  -0.235  0.00  0.00     0.023 C 
BRANCH  12  13
ATOM     13  C   UNL d   1      24.550 -17.483  -0.205  0.00  0.00    -0.021 C 
ATOM     14  C   UNL d   1      24.498 -16.369  -1.255  0.00  0.00     0.009 C 
ATOM     15  C   UNL d   1      23.389 -18.452  -0.450  0.00  0.00     0.009 C 
ENDBRANCH  12  13
ENDBRANCH  11  12
ENDBRANCH   9  11
ENDBRANCH   7   9
ENDBRANCH   5   7
ENDBRANCH   1   5
BRANCH   2  16
ATOM     16  C   UNL d   1      30.150 -14.056   3.351  0.00  0.00     0.184 C 
BRANCH  16  17
ATOM     17  S   UNL d   1      28.432 -14.091   4.065  0.00  0.00    -0.121 SA
BRANCH  17  18
ATOM     18  C   UNL d   1      27.734 -12.479   3.716  0.00  0.00     0.001 A 
ATOM     19  C   UNL d   1      27.899 -11.379   4.563  0.00  0.00     0.021 A 
ATOM     20  C   UNL d   1      27.325 -10.137   4.243  0.00  0.00     0.037 A 
ATOM     21  C   UNL d   1      26.663  -9.965   3.019  0.00  0.00     0.102 A 
ATOM     22  C   UNL d   1      26.526 -11.042   2.141  0.00  0.00     0.037 A 
ATOM     23  C   UNL d   1      27.066 -12.289   2.492  0.00  0.00     0.021 A 
BRANCH  21  24
ATOM     24  N   UNL d   1      26.175  -8.630   2.635  0.00  0.00    -0.116 N 
ATOM     25  O   UNL d   1      25.307  -8.562   1.759  0.00  0.00    -0.532 OA
ATOM     26  O   UNL d   1      26.655  -7.649   3.230  0.00  0.00    -0.532 OA
ENDBRANCH  21  24
ENDBRANCH  17  18
ENDBRANCH  16  17
ENDBRANCH   2  16
TORSDOF 10
ENDMDL
MODEL 6
REMARK VINA RESULT:    -6.497      6.159      8.403
REMARK INTER + INTRA:         -10.806
REMARK INTER:                  -9.480
REMARK INTRA:                  -1.326
REMARK CONF_INDEPENDENT:        2.983
REMARK UNBOUND:                -1.326
REMARK  10 active torsions:
REMARK  status: ('A' for Active; 'I' for Inactive)
REMARK    1  A    between atoms: C_2  and  C_4 
REMARK    2  A    between atoms: C_4  and  C_5 
REMARK    3  A    between atoms: C_5  and  N_6 
REMARK    4  A    between atoms: N_6  and  C_7 
REMARK    5  A    between atoms: C_7  and  N_9 
REMARK    6  A    between atoms: N_9  and  N_10 
REMARK       I    between atoms: N_10  and  C_11 
REMARK    7  A    between atoms: C_11  and  C_13 
REMARK    8  A    between atoms: C_13  and  S_14 
REMARK    9  A    between atoms: S_14  and  C_15 
REMARK   10  A    between atoms: C_18  and  N_19 
ROOT
ATOM      1  N   UNL d   1      27.370 -15.025  -3.895  0.00  0.00    -0.267 N 
ATOM      2  C   UNL d   1      26.028 -14.951  -3.538  0.00  0.00     0.245 C 
ATOM      3  O   UNL d   1      25.155 -15.006  -4.407  0.00  0.00    -0.271 OA
ATOM      4  H   UNL d   1      28.146 -14.997  -3.235  0.00  0.00     0.190 HD
ENDROOT
BRANCH   1   5
ATOM      5  N   UNL d   1      27.741 -15.164  -5.283  0.00  0.00    -0.274 N 
ATOM      6  H   UNL d   1      26.965 -15.292  -5.931  0.00  0.00     0.189 HD
BRANCH   5   7
ATOM      7  C   UNL d   1      29.078 -15.124  -5.668  0.00  0.00     0.186 C 
ATOM      8  S   UNL d   1      29.549 -14.484  -7.154  0.00  0.00    -0.040 SA
BRANCH   7   9
ATOM      9  N   UNL d   1      29.971 -15.644  -4.731  0.00  0.00    -0.366 N 
ATOM     10  H   UNL d   1      30.470 -15.016  -4.112  0.00  0.00     0.161 HD
BRANCH   9  11
ATOM     11  C   UNL d   1      30.167 -17.087  -4.528  0.00  0.00     0.122 C 
BRANCH  11  12
ATOM     12  C   UNL d   1      31.241 -17.757  -5.393  0.00  0.00     0.023 C 
BRANCH  12  13
ATOM     13  C   UNL d   1      30.639 -18.806  -6.366  0.00  0.00    -0.021 C 
ATOM     14  C   UNL d   1      31.557 -19.010  -7.575  0.00  0.00     0.009 C 
ATOM     15  C   UNL d   1      30.403 -20.157  -5.685  0.00  0.00     0.009 C 
ENDBRANCH  12  13
ENDBRANCH  11  12
ENDBRANCH   9  11
ENDBRANCH   7   9
ENDBRANCH   5   7
ENDBRANCH   1   5
BRANCH   2  16
ATOM     16  C   UNL d   1      25.736 -14.796  -2.015  0.00  0.00     0.184 C 
BRANCH  16  17
ATOM     17  S   UNL d   1      26.085 -16.398  -1.135  0.00  0.00    -0.121 SA
BRANCH  17  18
ATOM     18  C   UNL d   1      24.492 -17.185  -0.919  0.00  0.00     0.001 A 
ATOM     19  C   UNL d   1      23.280 -16.507  -1.081  0.00  0.00     0.021 A 
ATOM     20  C   UNL d   1      22.057 -17.172  -0.895  0.00  0.00     0.037 A 
ATOM     21  C   UNL d   1      22.040 -18.551  -0.641  0.00  0.00     0.102 A 
ATOM     22  C   UNL d   1      23.240 -19.254  -0.518  0.00  0.00     0.037 A 
ATOM     23  C   UNL d   1      24.457 -18.569  -0.663  0.00  0.00     0.021 A 
BRANCH  21  24
ATOM     24  N   UNL d   1      20.754 -19.265  -0.572  0.00  0.00    -0.116 N 
ATOM     25  O   UNL d   1      20.213 -19.376   0.533  0.00  0.00    -0.532 OA
ATOM     26  O   UNL d   1      20.280 -19.700  -1.636  0.00  0.00    -0.532 OA
ENDBRANCH  21  24
ENDBRANCH  17  18
ENDBRANCH  16  17
ENDBRANCH   2  16
TORSDOF 10
ENDMDL
MODEL 7
REMARK VINA RESULT:    -6.443      5.408      7.182
REMARK INTER + INTRA:         -11.441
REMARK INTER:                  -9.426
REMARK INTRA:                  -2.015
REMARK CONF_INDEPENDENT:        2.983
REMARK UNBOUND:                -2.015
REMARK  10 active torsions:
REMARK  status: ('A' for Active; 'I' for Inactive)
REMARK    1  A    between atoms: C_2  and  C_4 
REMARK    2  A    between atoms: C_4  and  C_5 
REMARK    3  A    between atoms: C_5  and  N_6 
REMARK    4  A    between atoms: N_6  and  C_7 
REMARK    5  A    between atoms: C_7  and  N_9 
REMARK    6  A    between atoms: N_9  and  N_10 
REMARK       I    between atoms: N_10  and  C_11 
REMARK    7  A    between atoms: C_11  and  C_13 
REMARK    8  A    between atoms: C_13  and  S_14 
REMARK    9  A    between atoms: S_14  and  C_15 
REMARK   10  A    between atoms: C_18  and  N_19 
ROOT
ATOM      1  N   UNL d   1      25.675 -13.319  -2.630  0.00  0.00    -0.267 N 
ATOM      2  C   UNL d   1      25.749 -14.653  -2.241  0.00  0.00     0.245 C 
ATOM      3  O   UNL d   1      25.520 -15.547  -3.059  0.00  0.00    -0.271 OA
ATOM      4  H   UNL d   1      25.861 -12.527  -2.015  0.00  0.00     0.190 HD
ENDROOT
BRANCH   1   5
ATOM      5  N   UNL d   1      25.328 -12.982  -3.989  0.00  0.00    -0.274 N 
ATOM      6  H   UNL d   1      24.379 -12.639  -4.125  0.00  0.00     0.189 HD
BRANCH   5   7
ATOM      7  C   UNL d   1      26.256 -13.132  -5.016  0.00  0.00     0.186 C 
ATOM      8  S   UNL d   1      26.889 -11.802  -5.835  0.00  0.00    -0.040 SA
BRANCH   7   9
ATOM      9  N   UNL d   1      26.610 -14.453  -5.295  0.00  0.00    -0.366 N 
ATOM     10  H   UNL d   1      25.979 -15.204  -5.043  0.00  0.00     0.161 HD
BRANCH   9  11
ATOM     11  C   UNL d   1      27.832 -14.816  -6.028  0.00  0.00     0.122 C 
BRANCH  11  12
ATOM     12  C   UNL d   1      28.874 -15.633  -5.252  0.00  0.00     0.023 C 
BRANCH  12  13
ATOM     13  C   UNL d   1      28.937 -15.230  -3.755  0.00  0.00    -0.021 C 
ATOM     14  C   UNL d   1      29.586 -16.340  -2.924  0.00  0.00     0.009 C 
ATOM     15  C   UNL d   1      29.714 -13.928  -3.540  0.00  0.00     0.009 C 
ENDBRANCH  12  13
ENDBRANCH  11  12
ENDBRANCH   9  11
ENDBRANCH   7   9
ENDBRANCH   5   7
ENDBRANCH   1   5
BRANCH   2  16
ATOM     16  C   UNL d   1      26.126 -14.908  -0.751  0.00  0.00     0.184 C 
BRANCH  16  17
ATOM     17  S   UNL d   1      26.166 -16.736  -0.409  0.00  0.00    -0.121 SA
BRANCH  17  18
ATOM     18  C   UNL d   1      24.470 -17.290  -0.555  0.00  0.00     0.001 A 
ATOM     19  C   UNL d   1      23.403 -16.419  -0.794  0.00  0.00     0.021 A 
ATOM     20  C   UNL d   1      22.090 -16.907  -0.896  0.00  0.00     0.037 A 
ATOM     21  C   UNL d   1      21.850 -18.288  -0.858  0.00  0.00     0.102 A 
ATOM     22  C   UNL d   1      22.909 -19.177  -0.664  0.00  0.00     0.037 A 
ATOM     23  C   UNL d   1      24.211 -18.673  -0.520  0.00  0.00     0.021 A 
BRANCH  21  24
ATOM     24  N   UNL d   1      20.488 -18.798  -1.091  0.00  0.00    -0.116 N 
ATOM     25  O   UNL d   1      20.360 -19.796  -1.807  0.00  0.00    -0.532 OA
ATOM     26  O   UNL d   1      19.547 -18.200  -0.540  0.00  0.00    -0.532 OA
ENDBRANCH  21  24
ENDBRANCH  17  18
ENDBRANCH  16  17
ENDBRANCH   2  16
TORSDOF 10
ENDMDL
MODEL 8
REMARK VINA RESULT:    -6.408      6.228      8.470
REMARK INTER + INTRA:         -10.940
REMARK INTER:                  -9.391
REMARK INTRA:                  -1.549
REMARK CONF_INDEPENDENT:        2.983
REMARK UNBOUND:                -1.549
REMARK  10 active torsions:
REMARK  status: ('A' for Active; 'I' for Inactive)
REMARK    1  A    between atoms: C_2  and  C_4 
REMARK    2  A    between atoms: C_4  and  C_5 
REMARK    3  A    between atoms: C_5  and  N_6 
REMARK    4  A    between atoms: N_6  and  C_7 
REMARK    5  A    between atoms: C_7  and  N_9 
REMARK    6  A    between atoms: N_9  and  N_10 
REMARK       I    between atoms: N_10  and  C_11 
REMARK    7  A    between atoms: C_11  and  C_13 
REMARK    8  A    between atoms: C_13  and  S_14 
REMARK    9  A    between atoms: S_14  and  C_15 
REMARK   10  A    between atoms: C_18  and  N_19 
ROOT
ATOM      1  N   UNL d   1      27.166 -15.022  -4.045  0.00  0.00    -0.267 N 
ATOM      2  C   UNL d   1      25.856 -14.839  -3.613  0.00  0.00     0.245 C 
ATOM      3  O   UNL d   1      24.939 -14.781  -4.436  0.00  0.00    -0.271 OA
ATOM      4  H   UNL d   1      27.973 -15.091  -3.427  0.00  0.00     0.190 HD
ENDROOT
BRANCH   1   5
ATOM      5  N   UNL d   1      27.451 -15.144  -5.455  0.00  0.00    -0.274 N 
ATOM      6  H   UNL d   1      26.636 -15.136  -6.067  0.00  0.00     0.189 HD
BRANCH   5   7
ATOM      7  C   UNL d   1      28.762 -15.263  -5.906  0.00  0.00     0.186 C 
ATOM      8  S   UNL d   1      29.918 -16.130  -5.038  0.00  0.00    -0.040 SA
BRANCH   7   9
ATOM      9  N   UNL d   1      29.024 -14.620  -7.116  0.00  0.00    -0.366 N 
ATOM     10  H   UNL d   1      28.520 -14.896  -7.949  0.00  0.00     0.161 HD
BRANCH   9  11
ATOM     11  C   UNL d   1      29.947 -13.480  -7.232  0.00  0.00     0.122 C 
BRANCH  11  12
ATOM     12  C   UNL d   1      29.304 -12.090  -7.328  0.00  0.00     0.023 C 
BRANCH  12  13
ATOM     13  C   UNL d   1      27.757 -12.152  -7.220  0.00  0.00    -0.021 C 
ATOM     14  C   UNL d   1      27.311 -11.997  -5.764  0.00  0.00     0.009 C 
ATOM     15  C   UNL d   1      27.076 -11.074  -8.068  0.00  0.00     0.009 C 
ENDBRANCH  12  13
ENDBRANCH  11  12
ENDBRANCH   9  11
ENDBRANCH   7   9
ENDBRANCH   5   7
ENDBRANCH   1   5
BRANCH   2  16
ATOM     16  C   UNL d   1      25.658 -14.715  -2.073  0.00  0.00     0.184 C 
BRANCH  16  17
ATOM     17  S   UNL d   1      26.065 -16.332  -1.248  0.00  0.00    -0.121 SA
BRANCH  17  18
ATOM     18  C   UNL d   1      24.491 -17.139  -0.968  0.00  0.00     0.001 A 
ATOM     19  C   UNL d   1      23.264 -16.490  -1.133  0.00  0.00     0.021 A 
ATOM     20  C   UNL d   1      22.058 -17.170  -0.895  0.00  0.00     0.037 A 
ATOM     21  C   UNL d   1      22.073 -18.537  -0.586  0.00  0.00     0.102 A 
ATOM     22  C   UNL d   1      23.288 -19.213  -0.459  0.00  0.00     0.037 A 
ATOM     23  C   UNL d   1      24.488 -18.511  -0.656  0.00  0.00     0.021 A 
BRANCH  21  24
ATOM     24  N   UNL d   1      20.802 -19.271  -0.462  0.00  0.00    -0.116 N 
ATOM     25  O   UNL d   1      20.280 -19.700  -1.496  0.00  0.00    -0.532 OA
ATOM     26  O   UNL d   1      20.338 -19.429   0.681  0.00  0.00    -0.532 OA
ENDBRANCH  21  24
ENDBRANCH  17  18
ENDBRANCH  16  17
ENDBRANCH   2  16
TORSDOF 10
ENDMDL
MODEL 9
REMARK VINA RESULT:    -5.194      4.581      7.209
REMARK INTER + INTRA:         -10.767
REMARK INTER:                  -8.177
REMARK INTRA:                  -2.590
REMARK CONF_INDEPENDENT:        2.983
REMARK UNBOUND:                -2.590
REMARK  10 active torsions:
REMARK  status: ('A' for Active; 'I' for Inactive)
REMARK    1  A    between atoms: C_2  and  C_4 
REMARK    2  A    between atoms: C_4  and  C_5 
REMARK    3  A    between atoms: C_5  and  N_6 
REMARK    4  A    between atoms: N_6  and  C_7 
REMARK    5  A    between atoms: C_7  and  N_9 
REMARK    6  A    between atoms: N_9  and  N_10 
REMARK       I    between atoms: N_10  and  C_11 
REMARK    7  A    between atoms: C_11  and  C_13 
REMARK    8  A    between atoms: C_13  and  S_14 
REMARK    9  A    between atoms: S_14  and  C_15 
REMARK   10  A    between atoms: C_18  and  N_19 
ROOT
ATOM      1  N   UNL d   1      28.501 -14.069   0.917  0.00  0.00    -0.267 N 
ATOM      2  C   UNL d   1      27.308 -13.372   1.082  0.00  0.00     0.245 C 
ATOM      3  O   UNL d   1      26.263 -13.985   1.312  0.00  0.00    -0.271 OA
ATOM      4  H   UNL d   1      29.404 -13.632   0.736  0.00  0.00     0.190 HD
ENDROOT
BRANCH   1   5
ATOM      5  N   UNL d   1      28.515 -15.508   1.013  0.00  0.00    -0.274 N 
ATOM      6  H   UNL d   1      28.951 -15.885   1.854  0.00  0.00     0.189 HD
BRANCH   5   7
ATOM      7  C   UNL d   1      27.961 -16.293   0.005  0.00  0.00     0.186 C 
ATOM      8  S   UNL d   1      28.867 -16.782  -1.329  0.00  0.00    -0.040 SA
BRANCH   7   9
ATOM      9  N   UNL d   1      26.623 -16.633   0.199  0.00  0.00    -0.366 N 
ATOM     10  H   UNL d   1      25.942 -15.905   0.379  0.00  0.00     0.161 HD
BRANCH   9  11
ATOM     11  C   UNL d   1      26.120 -18.009   0.065  0.00  0.00     0.122 C 
BRANCH  11  12
ATOM     12  C   UNL d   1      24.605 -18.198   0.215  0.00  0.00     0.023 C 
BRANCH  12  13
ATOM     13  C   UNL d   1      23.821 -17.617  -0.992  0.00  0.00    -0.021 C 
ATOM     14  C   UNL d   1      22.789 -16.589  -0.520  0.00  0.00     0.009 C 
ATOM     15  C   UNL d   1      24.747 -16.958  -2.019  0.00  0.00     0.009 C 
ENDBRANCH  12  13
ENDBRANCH  11  12
ENDBRANCH   9  11
ENDBRANCH   7   9
ENDBRANCH   5   7
ENDBRANCH   1   5
BRANCH   2  16
ATOM     16  C   UNL d   1      27.401 -11.822   0.953  0.00  0.00     0.184 C 
BRANCH  16  17
ATOM     17  S   UNL d   1      28.255 -11.366  -0.636  0.00  0.00    -0.121 SA
BRANCH  17  18
ATOM     18  C   UNL d   1      27.643 -12.521  -1.860  0.00  0.00     0.001 A 
ATOM     19  C   UNL d   1      26.289 -12.627  -2.195  0.00  0.00     0.021 A 
ATOM     20  C   UNL d   1      25.862 -13.554  -3.160  0.00  0.00     0.037 A 
ATOM     21  C   UNL d   1      26.805 -14.314  -3.868  0.00  0.00     0.102 A 
ATOM     22  C   UNL d   1      28.164 -14.190  -3.577  0.00  0.00     0.037 A 
ATOM     23  C   UNL d   1      28.575 -13.291  -2.580  0.00  0.00     0.021 A 
BRANCH  21  24
ATOM     24  N   UNL d   1      26.359 -15.191  -4.964  0.00  0.00    -0.116 N 
ATOM     25  O   UNL d   1      27.206 -15.574  -5.777  0.00  0.00    -0.532 OA
ATOM     26  O   UNL d   1      25.157 -15.506  -4.996  0.00  0.00    -0.532 OA
ENDBRANCH  21  24
ENDBRANCH  17  18
ENDBRANCH  16  17
ENDBRANCH   2  16
TORSDOF 10
ENDMDL
