MODEL 1
REMARK VINA RESULT:    -7.625      0.000      0.000
REMARK INTER + INTRA:         -11.274
REMARK INTER:                 -10.011
REMARK INTRA:                  -1.262
REMARK CONF_INDEPENDENT:        2.386
REMARK UNBOUND:                -1.262
REMARK  8 active torsions:
REMARK  status: ('A' for Active; 'I' for Inactive)
REMARK    1  A    between atoms: N_2  and  C_4 
REMARK    2  A    between atoms: C_7  and  C_8 
REMARK    3  A    between atoms: N_9  and  N_10 
REMARK       I    between atoms: N_10  and  C_11 
REMARK    4  A    between atoms: C_11  and  C_13 
REMARK    5  A    between atoms: C_13  and  C_14 
REMARK    6  A    between atoms: C_14  and  C_15 
REMARK    7  A    between atoms: C_15  and  O_16 
REMARK    8  A    between atoms: C_15  and  C_17 
ROOT
ATOM      1  N   UNL d   1      24.859 -16.945  -1.832  0.00  0.00    -0.247 N 
ATOM      2  C   UNL d   1      24.032 -17.245  -0.753  0.00  0.00     0.237 C 
ATOM      3  O   UNL d   1      23.322 -16.406  -0.185  0.00  0.00    -0.272 OA
ATOM      4  H   UNL d   1      25.447 -17.645  -2.272  0.00  0.00     0.192 HD
ENDROOT
BRANCH   1   5
ATOM      5  N   UNL d   1      24.883 -15.645  -2.275  0.00  0.00    -0.184 NA
ATOM      6  C   UNL d   1      25.741 -15.291  -3.180  0.00  0.00     0.150 C 
BRANCH   6   7
ATOM      7  C   UNL d   1      25.815 -13.876  -3.650  0.00  0.00    -0.017 A 
ATOM      8  C   UNL d   1      26.075 -13.575  -4.987  0.00  0.00     0.015 A 
ATOM      9  C   UNL d   1      26.240 -12.235  -5.392  0.00  0.00     0.030 A 
ATOM     10  C   UNL d   1      26.084 -11.158  -4.500  0.00  0.00     0.029 A 
ATOM     11  C   UNL d   1      25.825 -11.491  -3.164  0.00  0.00     0.030 A 
ATOM     12  C   UNL d   1      25.681 -12.824  -2.742  0.00  0.00     0.015 A 
BRANCH  10  13
ATOM     13  N   UNL d   1      26.161  -9.841  -4.945  0.00  0.00    -0.390 N 
ATOM     14  C   UNL d   1      27.438  -9.247  -5.319  0.00  0.00     0.149 C 
ATOM     15  C   UNL d   1      25.056  -8.944  -4.617  0.00  0.00     0.149 C 
ENDBRANCH  10  13
ENDBRANCH   6   7
ENDBRANCH   1   5
BRANCH   2  16
ATOM     16  C   UNL d   1      24.043 -18.700  -0.299  0.00  0.00     0.107 C 
BRANCH  16  17
ATOM     17  C   UNL d   1      22.670 -19.344  -0.561  0.00  0.00     0.046 C 
BRANCH  17  18
ATOM     18  C   UNL d   1      21.504 -18.570   0.060  0.00  0.00     0.151 C 
BRANCH  18  19
ATOM     19  O   UNL d   1      21.005 -17.646  -0.906  0.00  0.00    -0.391 OA
ATOM     20  H   UNL d   1      21.668 -16.939  -0.981  0.00  0.00     0.210 HD
ENDBRANCH  18  19
BRANCH  18  21
ATOM     21  C   UNL d   1      20.409 -19.493   0.573  0.00  0.00    -0.030 A 
ATOM     22  C   UNL d   1      19.494 -20.125  -0.283  0.00  0.00     0.010 A 
ATOM     23  C   UNL d   1      18.424 -20.858   0.231  0.00  0.00     0.001 A 
ATOM     24  C   UNL d   1      18.291 -21.035   1.606  0.00  0.00     0.000 A 
ATOM     25  C   UNL d   1      19.210 -20.449   2.471  0.00  0.00     0.001 A 
ATOM     26  C   UNL d   1      20.252 -19.673   1.959  0.00  0.00     0.010 A 
ENDBRANCH  18  21
ENDBRANCH  17  18
ENDBRANCH  16  17
ENDBRANCH   2  16
TORSDOF 8
ENDMDL
MODEL 2
REMARK VINA RESULT:    -7.566      1.771      2.347
REMARK INTER + INTRA:         -11.298
REMARK INTER:                  -9.952
REMARK INTRA:                  -1.345
REMARK CONF_INDEPENDENT:        2.386
REMARK UNBOUND:                -1.345
REMARK  8 active torsions:
REMARK  status: ('A' for Active; 'I' for Inactive)
REMARK    1  A    between atoms: N_2  and  C_4 
REMARK    2  A    between atoms: C_7  and  C_8 
REMARK    3  A    between atoms: N_9  and  N_10 
REMARK       I    between atoms: N_10  and  C_11 
REMARK    4  A    between atoms: C_11  and  C_13 
REMARK    5  A    between atoms: C_13  and  C_14 
REMARK    6  A    between atoms: C_14  and  C_15 
REMARK    7  A    between atoms: C_15  and  O_16 
REMARK    8  A    between atoms: C_15  and  C_17 
ROOT
ATOM      1  N   UNL d   1      24.470 -17.151  -1.839  0.00  0.00    -0.247 N 
ATOM      2  C   UNL d   1      24.996 -17.691  -0.668  0.00  0.00     0.237 C 
ATOM      3  O   UNL d   1      26.188 -17.600  -0.352  0.00  0.00    -0.272 OA
ATOM      4  H   UNL d   1      23.491 -17.253  -2.087  0.00  0.00     0.192 HD
ENDROOT
BRANCH   1   5
ATOM      5  N   UNL d   1      25.331 -16.489  -2.679  0.00  0.00    -0.184 NA
ATOM      6  C   UNL d   1      25.133 -15.237  -2.943  0.00  0.00     0.150 C 
BRANCH   6   7
ATOM      7  C   UNL d   1      26.030 -14.504  -3.885  0.00  0.00    -0.017 A 
ATOM      8  C   UNL d   1      25.913 -13.125  -4.065  0.00  0.00     0.015 A 
ATOM      9  C   UNL d   1      26.701 -12.468  -5.032  0.00  0.00     0.030 A 
ATOM     10  C   UNL d   1      27.671 -13.144  -5.794  0.00  0.00     0.029 A 
ATOM     11  C   UNL d   1      27.764 -14.527  -5.594  0.00  0.00     0.030 A 
ATOM     12  C   UNL d   1      26.969 -15.200  -4.649  0.00  0.00     0.015 A 
BRANCH  10  13
ATOM     13  N   UNL d   1      28.499 -12.455  -6.676  0.00  0.00    -0.390 N 
ATOM     14  C   UNL d   1      28.571 -12.823  -8.084  0.00  0.00     0.149 C 
ATOM     15  C   UNL d   1      29.599 -11.677  -6.112  0.00  0.00     0.149 C 
ENDBRANCH  10  13
ENDBRANCH   6   7
ENDBRANCH   1   5
BRANCH   2  16
ATOM     16  C   UNL d   1      24.000 -18.417   0.229  0.00  0.00     0.107 C 
BRANCH  16  17
ATOM     17  C   UNL d   1      22.633 -17.711   0.177  0.00  0.00     0.046 C 
BRANCH  17  18
ATOM     18  C   UNL d   1      21.657 -18.341  -0.821  0.00  0.00     0.151 C 
BRANCH  18  19
ATOM     19  O   UNL d   1      22.405 -19.097  -1.773  0.00  0.00    -0.391 OA
ATOM     20  H   UNL d   1      22.615 -19.947  -1.350  0.00  0.00     0.210 HD
ENDBRANCH  18  19
BRANCH  18  21
ATOM     21  C   UNL d   1      20.599 -19.191  -0.134  0.00  0.00    -0.030 A 
ATOM     22  C   UNL d   1      19.518 -19.754  -0.829  0.00  0.00     0.010 A 
ATOM     23  C   UNL d   1      18.497 -20.416  -0.146  0.00  0.00     0.001 A 
ATOM     24  C   UNL d   1      18.575 -20.591   1.234  0.00  0.00     0.000 A 
ATOM     25  C   UNL d   1      19.659 -20.073   1.937  0.00  0.00     0.001 A 
ATOM     26  C   UNL d   1      20.655 -19.368   1.260  0.00  0.00     0.010 A 
ENDBRANCH  18  21
ENDBRANCH  17  18
ENDBRANCH  16  17
ENDBRANCH   2  16
TORSDOF 8
ENDMDL
MODEL 3
REMARK VINA RESULT:    -7.338      3.182      4.094
REMARK INTER + INTRA:         -10.976
REMARK INTER:                  -9.725
REMARK INTRA:                  -1.251
REMARK CONF_INDEPENDENT:        2.386
REMARK UNBOUND:                -1.251
REMARK  8 active torsions:
REMARK  status: ('A' for Active; 'I' for Inactive)
REMARK    1  A    between atoms: N_2  and  C_4 
REMARK    2  A    between atoms: C_7  and  C_8 
REMARK    3  A    between atoms: N_9  and  N_10 
REMARK       I    between atoms: N_10  and  C_11 
REMARK    4  A    between atoms: C_11  and  C_13 
REMARK    5  A    between atoms: C_13  and  C_14 
REMARK    6  A    between atoms: C_14  and  C_15 
REMARK    7  A    between atoms: C_15  and  O_16 
REMARK    8  A    between atoms: C_15  and  C_17 
ROOT
ATOM      1  N   UNL d   1      24.669 -15.668  -2.319  0.00  0.00    -0.247 N 
ATOM      2  C   UNL d   1      24.181 -16.702  -1.524  0.00  0.00     0.237 C 
ATOM      3  O   UNL d   1      24.678 -17.834  -1.499  0.00  0.00    -0.272 OA
ATOM      4  H   UNL d   1      24.235 -14.751  -2.337  0.00  0.00     0.192 HD
ENDROOT
BRANCH   1   5
ATOM      5  N   UNL d   1      25.756 -15.934  -3.116  0.00  0.00    -0.184 NA
ATOM      6  C   UNL d   1      26.543 -14.968  -3.470  0.00  0.00     0.150 C 
BRANCH   6   7
ATOM      7  C   UNL d   1      27.708 -15.224  -4.368  0.00  0.00    -0.017 A 
ATOM      8  C   UNL d   1      27.709 -14.776  -5.690  0.00  0.00     0.015 A 
ATOM      9  C   UNL d   1      28.773 -15.115  -6.551  0.00  0.00     0.030 A 
ATOM     10  C   UNL d   1      29.893 -15.842  -6.109  0.00  0.00     0.029 A 
ATOM     11  C   UNL d   1      29.863 -16.279  -4.778  0.00  0.00     0.030 A 
ATOM     12  C   UNL d   1      28.797 -15.969  -3.915  0.00  0.00     0.015 A 
BRANCH  10  13
ATOM     13  N   UNL d   1      30.972 -16.082  -6.955  0.00  0.00    -0.390 N 
ATOM     14  C   UNL d   1      31.180 -17.393  -7.555  0.00  0.00     0.149 C 
ATOM     15  C   UNL d   1      32.112 -15.171  -6.882  0.00  0.00     0.149 C 
ENDBRANCH  10  13
ENDBRANCH   6   7
ENDBRANCH   1   5
BRANCH   2  16
ATOM     16  C   UNL d   1      22.973 -16.356  -0.661  0.00  0.00     0.107 C 
BRANCH  16  17
ATOM     17  C   UNL d   1      22.413 -17.630  -0.005  0.00  0.00     0.046 C 
BRANCH  17  18
ATOM     18  C   UNL d   1      21.430 -18.395  -0.895  0.00  0.00     0.151 C 
BRANCH  18  19
ATOM     19  O   UNL d   1      22.176 -19.176  -1.828  0.00  0.00    -0.391 OA
ATOM     20  H   UNL d   1      23.057 -19.306  -1.440  0.00  0.00     0.210 HD
ENDBRANCH  18  19
BRANCH  18  21
ATOM     21  C   UNL d   1      20.466 -19.251  -0.088  0.00  0.00    -0.030 A 
ATOM     22  C   UNL d   1      19.382 -19.921  -0.674  0.00  0.00     0.010 A 
ATOM     23  C   UNL d   1      18.443 -20.588   0.115  0.00  0.00     0.001 A 
ATOM     24  C   UNL d   1      18.612 -20.660   1.495  0.00  0.00     0.000 A 
ATOM     25  C   UNL d   1      19.702 -20.034   2.093  0.00  0.00     0.001 A 
ATOM     26  C   UNL d   1      20.614 -19.325   1.309  0.00  0.00     0.010 A 
ENDBRANCH  18  21
ENDBRANCH  17  18
ENDBRANCH  16  17
ENDBRANCH   2  16
TORSDOF 8
ENDMDL
MODEL 4
REMARK VINA RESULT:    -7.071      3.810      4.464
REMARK INTER + INTRA:         -10.070
REMARK INTER:                  -9.458
REMARK INTRA:                  -0.612
REMARK CONF_INDEPENDENT:        2.386
REMARK UNBOUND:                -0.612
REMARK  8 active torsions:
REMARK  status: ('A' for Active; 'I' for Inactive)
REMARK    1  A    between atoms: N_2  and  C_4 
REMARK    2  A    between atoms: C_7  and  C_8 
REMARK    3  A    between atoms: N_9  and  N_10 
REMARK       I    between atoms: N_10  and  C_11 
REMARK    4  A    between atoms: C_11  and  C_13 
REMARK    5  A    between atoms: C_13  and  C_14 
REMARK    6  A    between atoms: C_14  and  C_15 
REMARK    7  A    between atoms: C_15  and  O_16 
REMARK    8  A    between atoms: C_15  and  C_17 
ROOT
ATOM      1  N   UNL d   1      25.228 -17.505  -1.113  0.00  0.00    -0.247 N 
ATOM      2  C   UNL d   1      23.851 -17.322  -1.208  0.00  0.00     0.237 C 
ATOM      3  O   UNL d   1      23.296 -16.231  -1.033  0.00  0.00    -0.272 OA
ATOM      4  H   UNL d   1      25.661 -18.413  -1.243  0.00  0.00     0.192 HD
ENDROOT
BRANCH   1   5
ATOM      5  N   UNL d   1      25.997 -16.410  -0.805  0.00  0.00    -0.184 NA
ATOM      6  C   UNL d   1      26.810 -16.461   0.203  0.00  0.00     0.150 C 
BRANCH   6   7
ATOM      7  C   UNL d   1      27.628 -15.271   0.584  0.00  0.00    -0.017 A 
ATOM      8  C   UNL d   1      28.301 -14.521  -0.382  0.00  0.00     0.015 A 
ATOM      9  C   UNL d   1      29.148 -13.463   0.007  0.00  0.00     0.030 A 
ATOM     10  C   UNL d   1      29.296 -13.076   1.351  0.00  0.00     0.029 A 
ATOM     11  C   UNL d   1      28.610 -13.849   2.297  0.00  0.00     0.030 A 
ATOM     12  C   UNL d   1      27.780 -14.921   1.926  0.00  0.00     0.015 A 
BRANCH  10  13
ATOM     13  N   UNL d   1      30.066 -11.970   1.698  0.00  0.00    -0.390 N 
ATOM     14  C   UNL d   1      31.468 -12.115   2.067  0.00  0.00     0.149 C 
ATOM     15  C   UNL d   1      29.367 -10.757   2.116  0.00  0.00     0.149 C 
ENDBRANCH  10  13
ENDBRANCH   6   7
ENDBRANCH   1   5
BRANCH   2  16
ATOM     16  C   UNL d   1      23.043 -18.569  -1.551  0.00  0.00     0.107 C 
BRANCH  16  17
ATOM     17  C   UNL d   1      21.991 -18.830  -0.458  0.00  0.00     0.046 C 
BRANCH  17  18
ATOM     18  C   UNL d   1      20.571 -19.004  -1.005  0.00  0.00     0.151 C 
BRANCH  18  19
ATOM     19  O   UNL d   1      20.646 -19.699  -2.249  0.00  0.00    -0.391 OA
ATOM     20  H   UNL d   1      19.870 -19.426  -2.767  0.00  0.00     0.210 HD
ENDBRANCH  18  19
BRANCH  18  21
ATOM     21  C   UNL d   1      19.656 -19.712  -0.018  0.00  0.00    -0.030 A 
ATOM     22  C   UNL d   1      19.901 -19.720   1.364  0.00  0.00     0.010 A 
ATOM     23  C   UNL d   1      19.116 -20.489   2.224  0.00  0.00     0.001 A 
ATOM     24  C   UNL d   1      18.028 -21.203   1.730  0.00  0.00     0.000 A 
ATOM     25  C   UNL d   1      17.745 -21.178   0.368  0.00  0.00     0.001 A 
ATOM     26  C   UNL d   1      18.560 -20.450  -0.500  0.00  0.00     0.010 A 
ENDBRANCH  18  21
ENDBRANCH  17  18
ENDBRANCH  16  17
ENDBRANCH   2  16
TORSDOF 8
ENDMDL
MODEL 5
REMARK VINA RESULT:    -6.756      6.059      8.591
REMARK INTER + INTRA:         -10.522
REMARK INTER:                  -9.142
REMARK INTRA:                  -1.380
REMARK CONF_INDEPENDENT:        2.386
REMARK UNBOUND:                -1.380
REMARK  8 active torsions:
REMARK  status: ('A' for Active; 'I' for Inactive)
REMARK    1  A    between atoms: N_2  and  C_4 
REMARK    2  A    between atoms: C_7  and  C_8 
REMARK    3  A    between atoms: N_9  and  N_10 
REMARK       I    between atoms: N_10  and  C_11 
REMARK    4  A    between atoms: C_11  and  C_13 
REMARK    5  A    between atoms: C_13  and  C_14 
REMARK    6  A    between atoms: C_14  and  C_15 
REMARK    7  A    between atoms: C_15  and  O_16 
REMARK    8  A    between atoms: C_15  and  C_17 
ROOT
ATOM      1  N   UNL d   1      28.882 -14.875  -5.368  0.00  0.00    -0.247 N 
ATOM      2  C   UNL d   1      27.506 -14.723  -5.222  0.00  0.00     0.237 C 
ATOM      3  O   UNL d   1      26.678 -15.481  -5.742  0.00  0.00    -0.272 OA
ATOM      4  H   UNL d   1      29.543 -14.231  -4.946  0.00  0.00     0.192 HD
ENDROOT
BRANCH   1   5
ATOM      5  N   UNL d   1      29.330 -15.922  -6.136  0.00  0.00    -0.184 NA
ATOM      6  C   UNL d   1      30.038 -16.860  -5.590  0.00  0.00     0.150 C 
BRANCH   6   7
ATOM      7  C   UNL d   1      30.572 -17.988  -6.411  0.00  0.00    -0.017 A 
ATOM      8  C   UNL d   1      31.188 -17.753  -7.641  0.00  0.00     0.015 A 
ATOM      9  C   UNL d   1      31.594 -18.837  -8.446  0.00  0.00     0.030 A 
ATOM     10  C   UNL d   1      31.466 -20.174  -8.026  0.00  0.00     0.029 A 
ATOM     11  C   UNL d   1      30.842 -20.377  -6.788  0.00  0.00     0.030 A 
ATOM     12  C   UNL d   1      30.410 -19.307  -5.985  0.00  0.00     0.015 A 
BRANCH  10  13
ATOM     13  N   UNL d   1      31.960 -21.220  -8.800  0.00  0.00    -0.390 N 
ATOM     14  C   UNL d   1      31.723 -21.269 -10.237  0.00  0.00     0.149 C 
ATOM     15  C   UNL d   1      32.319 -22.462  -8.120  0.00  0.00     0.149 C 
ENDBRANCH  10  13
ENDBRANCH   6   7
ENDBRANCH   1   5
BRANCH   2  16
ATOM     16  C   UNL d   1      27.060 -13.546  -4.363  0.00  0.00     0.107 C 
BRANCH  16  17
ATOM     17  C   UNL d   1      26.731 -14.029  -2.939  0.00  0.00     0.046 C 
BRANCH  17  18
ATOM     18  C   UNL d   1      25.307 -14.574  -2.792  0.00  0.00     0.151 C 
BRANCH  18  19
ATOM     19  O   UNL d   1      24.780 -14.824  -4.094  0.00  0.00    -0.391 OA
ATOM     20  H   UNL d   1      25.183 -15.654  -4.402  0.00  0.00     0.210 HD
ENDBRANCH  18  19
BRANCH  18  21
ATOM     21  C   UNL d   1      25.254 -15.815  -1.914  0.00  0.00    -0.030 A 
ATOM     22  C   UNL d   1      24.043 -16.387  -1.493  0.00  0.00     0.010 A 
ATOM     23  C   UNL d   1      24.032 -17.444  -0.582  0.00  0.00     0.001 A 
ATOM     24  C   UNL d   1      25.229 -17.996  -0.133  0.00  0.00     0.000 A 
ATOM     25  C   UNL d   1      26.440 -17.467  -0.568  0.00  0.00     0.001 A 
ATOM     26  C   UNL d   1      26.452 -16.378  -1.440  0.00  0.00     0.010 A 
ENDBRANCH  18  21
ENDBRANCH  17  18
ENDBRANCH  16  17
ENDBRANCH   2  16
TORSDOF 8
ENDMDL
MODEL 6
REMARK VINA RESULT:    -6.696      7.299      9.108
REMARK INTER + INTRA:         -10.404
REMARK INTER:                  -9.082
REMARK INTRA:                  -1.322
REMARK CONF_INDEPENDENT:        2.386
REMARK UNBOUND:                -1.322
REMARK  8 active torsions:
REMARK  status: ('A' for Active; 'I' for Inactive)
REMARK    1  A    between atoms: N_2  and  C_4 
REMARK    2  A    between atoms: C_7  and  C_8 
REMARK    3  A    between atoms: N_9  and  N_10 
REMARK       I    between atoms: N_10  and  C_11 
REMARK    4  A    between atoms: C_11  and  C_13 
REMARK    5  A    between atoms: C_13  and  C_14 
REMARK    6  A    between atoms: C_14  and  C_15 
REMARK    7  A    between atoms: C_15  and  O_16 
REMARK    8  A    between atoms: C_15  and  C_17 
ROOT
ATOM      1  N   UNL d   1      28.081 -14.918   1.948  0.00  0.00    -0.247 N 
ATOM      2  C   UNL d   1      27.590 -14.106   0.929  0.00  0.00     0.237 C 
ATOM      3  O   UNL d   1      27.058 -13.008   1.130  0.00  0.00    -0.272 OA
ATOM      4  H   UNL d   1      28.498 -15.824   1.761  0.00  0.00     0.192 HD
ENDROOT
BRANCH   1   5
ATOM      5  N   UNL d   1      27.957 -14.466   3.239  0.00  0.00    -0.184 NA
ATOM      6  C   UNL d   1      28.998 -14.435   4.010  0.00  0.00     0.150 C 
BRANCH   6   7
ATOM      7  C   UNL d   1      28.884 -13.987   5.429  0.00  0.00    -0.017 A 
ATOM      8  C   UNL d   1      27.914 -13.060   5.814  0.00  0.00     0.015 A 
ATOM      9  C   UNL d   1      27.886 -12.573   7.137  0.00  0.00     0.030 A 
ATOM     10  C   UNL d   1      28.769 -13.041   8.127  0.00  0.00     0.029 A 
ATOM     11  C   UNL d   1      29.732 -13.969   7.710  0.00  0.00     0.030 A 
ATOM     12  C   UNL d   1      29.786 -14.446   6.389  0.00  0.00     0.015 A 
BRANCH  10  13
ATOM     13  N   UNL d   1      28.659 -12.612   9.447  0.00  0.00    -0.390 N 
ATOM     14  C   UNL d   1      29.676 -11.758  10.047  0.00  0.00     0.149 C 
ATOM     15  C   UNL d   1      27.781 -13.366  10.338  0.00  0.00     0.149 C 
ENDBRANCH  10  13
ENDBRANCH   6   7
ENDBRANCH   1   5
BRANCH   2  16
ATOM     16  C   UNL d   1      27.749 -14.654  -0.485  0.00  0.00     0.107 C 
BRANCH  16  17
ATOM     17  C   UNL d   1      26.436 -15.310  -0.946  0.00  0.00     0.046 C 
BRANCH  17  18
ATOM     18  C   UNL d   1      26.326 -16.790  -0.569  0.00  0.00     0.151 C 
BRANCH  18  19
ATOM     19  O   UNL d   1      27.039 -17.002   0.649  0.00  0.00    -0.391 OA
ATOM     20  H   UNL d   1      27.445 -17.883   0.583  0.00  0.00     0.210 HD
ENDBRANCH  18  19
BRANCH  18  21
ATOM     21  C   UNL d   1      24.880 -17.251  -0.463  0.00  0.00    -0.030 A 
ATOM     22  C   UNL d   1      24.533 -18.576  -0.155  0.00  0.00     0.010 A 
ATOM     23  C   UNL d   1      23.202 -18.994  -0.197  0.00  0.00     0.001 A 
ATOM     24  C   UNL d   1      22.189 -18.079  -0.472  0.00  0.00     0.000 A 
ATOM     25  C   UNL d   1      22.509 -16.752  -0.742  0.00  0.00     0.001 A 
ATOM     26  C   UNL d   1      23.844 -16.345  -0.750  0.00  0.00     0.010 A 
ENDBRANCH  18  21
ENDBRANCH  17  18
ENDBRANCH  16  17
ENDBRANCH   2  16
TORSDOF 8
ENDMDL
MODEL 7
REMARK VINA RESULT:    -6.561      5.943      8.641
REMARK INTER + INTRA:         -10.422
REMARK INTER:                  -8.947
REMARK INTRA:                  -1.475
REMARK CONF_INDEPENDENT:        2.386
REMARK UNBOUND:                -1.475
REMARK  8 active torsions:
REMARK  status: ('A' for Active; 'I' for Inactive)
REMARK    1  A    between atoms: N_2  and  C_4 
REMARK    2  A    between atoms: C_7  and  C_8 
REMARK    3  A    between atoms: N_9  and  N_10 
REMARK       I    between atoms: N_10  and  C_11 
REMARK    4  A    between atoms: C_11  and  C_13 
REMARK    5  A    between atoms: C_13  and  C_14 
REMARK    6  A    between atoms: C_14  and  C_15 
REMARK    7  A    between atoms: C_15  and  O_16 
REMARK    8  A    between atoms: C_15  and  C_17 
ROOT
ATOM      1  N   UNL d   1      28.607 -14.813  -5.537  0.00  0.00    -0.247 N 
ATOM      2  C   UNL d   1      27.238 -14.693  -5.310  0.00  0.00     0.237 C 
ATOM      3  O   UNL d   1      26.418 -15.564  -5.623  0.00  0.00    -0.272 OA
ATOM      4  H   UNL d   1      29.260 -14.078  -5.288  0.00  0.00     0.192 HD
ENDROOT
BRANCH   1   5
ATOM      5  N   UNL d   1      29.055 -15.960  -6.145  0.00  0.00    -0.184 NA
ATOM      6  C   UNL d   1      29.960 -16.682  -5.563  0.00  0.00     0.150 C 
BRANCH   6   7
ATOM      7  C   UNL d   1      30.494 -17.912  -6.221  0.00  0.00    -0.017 A 
ATOM      8  C   UNL d   1      30.425 -19.153  -5.587  0.00  0.00     0.015 A 
ATOM      9  C   UNL d   1      31.024 -20.284  -6.180  0.00  0.00     0.030 A 
ATOM     10  C   UNL d   1      31.642 -20.230  -7.442  0.00  0.00     0.029 A 
ATOM     11  C   UNL d   1      31.698 -18.970  -8.052  0.00  0.00     0.030 A 
ATOM     12  C   UNL d   1      31.125 -17.829  -7.463  0.00  0.00     0.015 A 
BRANCH  10  13
ATOM     13  N   UNL d   1      32.144 -21.380  -8.045  0.00  0.00    -0.390 N 
ATOM     14  C   UNL d   1      32.280 -21.473  -9.493  0.00  0.00     0.149 C 
ATOM     15  C   UNL d   1      32.111 -22.623  -7.277  0.00  0.00     0.149 C 
ENDBRANCH  10  13
ENDBRANCH   6   7
ENDBRANCH   1   5
BRANCH   2  16
ATOM     16  C   UNL d   1      26.792 -13.401  -4.635  0.00  0.00     0.107 C 
BRANCH  16  17
ATOM     17  C   UNL d   1      26.508 -13.657  -3.145  0.00  0.00     0.046 C 
BRANCH  17  18
ATOM     18  C   UNL d   1      25.119 -14.245  -2.879  0.00  0.00     0.151 C 
BRANCH  18  19
ATOM     19  O   UNL d   1      24.466 -14.450  -4.131  0.00  0.00    -0.391 OA
ATOM     20  H   UNL d   1      24.906 -15.207  -4.553  0.00  0.00     0.210 HD
ENDBRANCH  18  19
BRANCH  18  21
ATOM     21  C   UNL d   1      25.182 -15.525  -2.060  0.00  0.00    -0.030 A 
ATOM     22  C   UNL d   1      24.031 -16.211  -1.645  0.00  0.00     0.010 A 
ATOM     23  C   UNL d   1      24.122 -17.306  -0.785  0.00  0.00     0.001 A 
ATOM     24  C   UNL d   1      25.369 -17.780  -0.385  0.00  0.00     0.000 A 
ATOM     25  C   UNL d   1      26.525 -17.138  -0.816  0.00  0.00     0.001 A 
ATOM     26  C   UNL d   1      26.432 -16.012  -1.635  0.00  0.00     0.010 A 
ENDBRANCH  18  21
ENDBRANCH  17  18
ENDBRANCH  16  17
ENDBRANCH   2  16
TORSDOF 8
ENDMDL
MODEL 8
REMARK VINA RESULT:    -6.281      2.506     10.047
REMARK INTER + INTRA:         -10.053
REMARK INTER:                  -8.667
REMARK INTRA:                  -1.386
REMARK CONF_INDEPENDENT:        2.386
REMARK UNBOUND:                -1.386
REMARK  8 active torsions:
REMARK  status: ('A' for Active; 'I' for Inactive)
REMARK    1  A    between atoms: N_2  and  C_4 
REMARK    2  A    between atoms: C_7  and  C_8 
REMARK    3  A    between atoms: N_9  and  N_10 
REMARK       I    between atoms: N_10  and  C_11 
REMARK    4  A    between atoms: C_11  and  C_13 
REMARK    5  A    between atoms: C_13  and  C_14 
REMARK    6  A    between atoms: C_14  and  C_15 
REMARK    7  A    between atoms: C_15  and  O_16 
REMARK    8  A    between atoms: C_15  and  C_17 
ROOT
ATOM      1  N   UNL d   1      25.139 -16.949  -1.326  0.00  0.00    -0.247 N 
ATOM      2  C   UNL d   1      26.373 -16.979  -0.681  0.00  0.00     0.237 C 
ATOM      3  O   UNL d   1      26.562 -17.543   0.402  0.00  0.00    -0.272 OA
ATOM      4  H   UNL d   1      25.003 -16.465  -2.207  0.00  0.00     0.192 HD
ENDROOT
BRANCH   1   5
ATOM      5  N   UNL d   1      24.084 -17.579  -0.713  0.00  0.00    -0.184 NA
ATOM      6  C   UNL d   1      23.011 -17.839  -1.390  0.00  0.00     0.150 C 
BRANCH   6   7
ATOM      7  C   UNL d   1      21.834 -18.487  -0.737  0.00  0.00    -0.017 A 
ATOM      8  C   UNL d   1      21.764 -18.617   0.650  0.00  0.00     0.015 A 
ATOM      9  C   UNL d   1      20.695 -19.320   1.242  0.00  0.00     0.030 A 
ATOM     10  C   UNL d   1      19.635 -19.851   0.483  0.00  0.00     0.029 A 
ATOM     11  C   UNL d   1      19.735 -19.706  -0.907  0.00  0.00     0.030 A 
ATOM     12  C   UNL d   1      20.807 -19.028  -1.512  0.00  0.00     0.015 A 
BRANCH  10  13
ATOM     13  N   UNL d   1      18.546 -20.459   1.099  0.00  0.00    -0.390 N 
ATOM     14  C   UNL d   1      18.394 -20.440   2.549  0.00  0.00     0.149 C 
ATOM     15  C   UNL d   1      17.814 -21.474   0.345  0.00  0.00     0.149 C 
ENDBRANCH  10  13
ENDBRANCH   6   7
ENDBRANCH   1   5
BRANCH   2  16
ATOM     16  C   UNL d   1      27.510 -16.263  -1.402  0.00  0.00     0.107 C 
BRANCH  16  17
ATOM     17  C   UNL d   1      26.973 -15.014  -2.123  0.00  0.00     0.046 C 
BRANCH  17  18
ATOM     18  C   UNL d   1      26.632 -15.256  -3.596  0.00  0.00     0.151 C 
BRANCH  18  19
ATOM     19  O   UNL d   1      25.270 -15.670  -3.685  0.00  0.00    -0.391 OA
ATOM     20  H   UNL d   1      25.190 -16.191  -4.502  0.00  0.00     0.210 HD
ENDBRANCH  18  19
BRANCH  18  21
ATOM     21  C   UNL d   1      26.909 -14.035  -4.460  0.00  0.00    -0.030 A 
ATOM     22  C   UNL d   1      26.094 -12.893  -4.431  0.00  0.00     0.010 A 
ATOM     23  C   UNL d   1      26.299 -11.846  -5.330  0.00  0.00     0.001 A 
ATOM     24  C   UNL d   1      27.367 -11.889  -6.223  0.00  0.00     0.000 A 
ATOM     25  C   UNL d   1      28.210 -12.995  -6.242  0.00  0.00     0.001 A 
ATOM     26  C   UNL d   1      27.975 -14.065  -5.376  0.00  0.00     0.010 A 
ENDBRANCH  18  21
ENDBRANCH  17  18
ENDBRANCH  16  17
ENDBRANCH   2  16
TORSDOF 8
ENDMDL
MODEL 9
REMARK VINA RESULT:    -6.190      5.433      8.037
REMARK INTER + INTRA:         -10.261
REMARK INTER:                  -8.576
REMARK INTRA:                  -1.684
REMARK CONF_INDEPENDENT:        2.386
REMARK UNBOUND:                -1.684
REMARK  8 active torsions:
REMARK  status: ('A' for Active; 'I' for Inactive)
REMARK    1  A    between atoms: N_2  and  C_4 
REMARK    2  A    between atoms: C_7  and  C_8 
REMARK    3  A    between atoms: N_9  and  N_10 
REMARK       I    between atoms: N_10  and  C_11 
REMARK    4  A    between atoms: C_11  and  C_13 
REMARK    5  A    between atoms: C_13  and  C_14 
REMARK    6  A    between atoms: C_14  and  C_15 
REMARK    7  A    between atoms: C_15  and  O_16 
REMARK    8  A    between atoms: C_15  and  C_17 
ROOT
ATOM      1  N   UNL d   1      26.871 -14.478  -5.389  0.00  0.00    -0.247 N 
ATOM      2  C   UNL d   1      27.059 -13.102  -5.284  0.00  0.00     0.237 C 
ATOM      3  O   UNL d   1      28.048 -12.514  -5.737  0.00  0.00    -0.272 OA
ATOM      4  H   UNL d   1      26.060 -14.942  -4.994  0.00  0.00     0.192 HD
ENDROOT
BRANCH   1   5
ATOM      5  N   UNL d   1      27.844 -15.208  -6.027  0.00  0.00    -0.184 NA
ATOM      6  C   UNL d   1      28.909 -15.560  -5.380  0.00  0.00     0.150 C 
BRANCH   6   7
ATOM      7  C   UNL d   1      30.000 -16.319  -6.061  0.00  0.00    -0.017 A 
ATOM      8  C   UNL d   1      30.793 -15.716  -7.039  0.00  0.00     0.015 A 
ATOM      9  C   UNL d   1      31.750 -16.477  -7.741  0.00  0.00     0.030 A 
ATOM     10  C   UNL d   1      31.994 -17.831  -7.447  0.00  0.00     0.029 A 
ATOM     11  C   UNL d   1      31.181 -18.408  -6.463  0.00  0.00     0.030 A 
ATOM     12  C   UNL d   1      30.208 -17.668  -5.771  0.00  0.00     0.015 A 
BRANCH  10  13
ATOM     13  N   UNL d   1      33.008 -18.533  -8.092  0.00  0.00    -0.390 N 
ATOM     14  C   UNL d   1      34.399 -18.111  -7.989  0.00  0.00     0.149 C 
ATOM     15  C   UNL d   1      32.635 -19.402  -9.206  0.00  0.00     0.149 C 
ENDBRANCH  10  13
ENDBRANCH   6   7
ENDBRANCH   1   5
BRANCH   2  16
ATOM     16  C   UNL d   1      25.952 -12.338  -4.566  0.00  0.00     0.107 C 
BRANCH  16  17
ATOM     17  C   UNL d   1      25.702 -12.956  -3.179  0.00  0.00     0.046 C 
BRANCH  17  18
ATOM     18  C   UNL d   1      24.661 -14.080  -3.189  0.00  0.00     0.151 C 
BRANCH  18  19
ATOM     19  O   UNL d   1      24.405 -14.449  -4.543  0.00  0.00    -0.391 OA
ATOM     20  H   UNL d   1      23.751 -13.817  -4.885  0.00  0.00     0.210 HD
ENDBRANCH  18  19
BRANCH  18  21
ATOM     21  C   UNL d   1      25.095 -15.273  -2.351  0.00  0.00    -0.030 A 
ATOM     22  C   UNL d   1      24.180 -16.064  -1.639  0.00  0.00     0.010 A 
ATOM     23  C   UNL d   1      24.624 -17.068  -0.777  0.00  0.00     0.001 A 
ATOM     24  C   UNL d   1      25.984 -17.348  -0.669  0.00  0.00     0.000 A 
ATOM     25  C   UNL d   1      26.905 -16.601  -1.397  0.00  0.00     0.001 A 
ATOM     26  C   UNL d   1      26.464 -15.563  -2.220  0.00  0.00     0.010 A 
ENDBRANCH  18  21
ENDBRANCH  17  18
ENDBRANCH  16  17
ENDBRANCH   2  16
TORSDOF 8
ENDMDL
