MODEL 1
REMARK VINA RESULT:    -9.915      0.000      0.000
REMARK INTER + INTRA:         -13.499
REMARK INTER:                 -12.600
REMARK INTRA:                  -0.899
REMARK CONF_INDEPENDENT:        2.685
REMARK UNBOUND:                -0.899
REMARK  9 active torsions:
REMARK  status: ('A' for Active; 'I' for Inactive)
REMARK    1  A    between atoms: C_2  and  N_3 
REMARK    2  A    between atoms: N_3  and  C_4 
REMARK    3  A    between atoms: N_3  and  C_6 
REMARK    4  A    between atoms: C_9  and  C_10 
REMARK    5  A    between atoms: N_11  and  N_12 
REMARK       I    between atoms: N_12  and  C_13 
REMARK    6  A    between atoms: C_13  and  C_15 
REMARK    7  A    between atoms: C_19  and  N_20 
REMARK       I    between atoms: N_20  and  C_21 
REMARK    8  A    between atoms: C_21  and  C_23 
REMARK    9  A    between atoms: C_31  and  O_32 
ROOT
ATOM      1  N   UNL d   1      25.528 -13.489  -2.240  0.00  0.00    -0.243 N 
ATOM      2  C   UNL d   1      25.318 -14.832  -2.597  0.00  0.00     0.271 C 
ATOM      3  O   UNL d   1      24.962 -15.204  -3.712  0.00  0.00    -0.266 OA
ATOM      4  H   UNL d   1      25.837 -13.228  -1.309  0.00  0.00     0.192 HD
ENDROOT
BRANCH   2   5
ATOM      5  C   UNL d   1      25.514 -15.879  -1.545  0.00  0.00     0.035 A 
ATOM      6  C   UNL d   1      26.791 -16.247  -1.111  0.00  0.00     0.017 A 
ATOM      7  C   UNL d   1      26.957 -17.362  -0.274  0.00  0.00     0.003 A 
ATOM      8  C   UNL d   1      25.844 -18.093   0.172  0.00  0.00     0.029 A 
ATOM      9  C   UNL d   1      24.561 -17.738  -0.260  0.00  0.00     0.035 A 
ATOM     10  C   UNL d   1      24.426 -16.630  -1.112  0.00  0.00     0.046 A 
BRANCH   9  11
ATOM     11  N   UNL d   1      23.438 -18.523   0.123  0.00  0.00    -0.323 N 
ATOM     12  C   UNL d   1      22.124 -18.198  -0.207  0.00  0.00     0.256 C 
ATOM     13  O   UNL d   1      21.737 -17.206  -0.809  0.00  0.00    -0.267 OA
ATOM     14  H   UNL d   1      23.619 -19.408   0.581  0.00  0.00     0.169 HD
BRANCH  12  15
ATOM     15  C   UNL d   1      21.052 -19.124   0.194  0.00  0.00     0.032 A 
ATOM     16  C   UNL d   1      20.239 -19.633  -0.831  0.00  0.00     0.017 A 
ATOM     17  C   UNL d   1      19.086 -20.344  -0.520  0.00  0.00     0.007 A 
ATOM     18  C   UNL d   1      18.778 -20.619   0.815  0.00  0.00    -0.062 A 
ATOM     19  C   UNL d   1      17.637 -21.534   1.147  0.00  0.00     0.048 C 
ATOM     20  C   UNL d   1      19.580 -20.081   1.836  0.00  0.00     0.007 A 
ATOM     21  C   UNL d   1      20.714 -19.325   1.529  0.00  0.00     0.017 A 
ENDBRANCH  12  15
ENDBRANCH   9  11
ENDBRANCH   2   5
BRANCH   1  22
ATOM     22  N   UNL d   1      25.335 -12.515  -3.199  0.00  0.00    -0.183 NA
ATOM     23  C   UNL d   1      26.058 -11.434  -3.164  0.00  0.00     0.153 C 
BRANCH  23  24
ATOM     24  C   UNL d   1      25.882 -10.359  -4.204  0.00  0.00     0.016 A 
ATOM     25  C   UNL d   1      26.075 -10.641  -5.562  0.00  0.00     0.018 A 
ATOM     26  C   UNL d   1      25.886  -9.634  -6.548  0.00  0.00     0.030 A 
ATOM     27  C   UNL d   1      25.511  -8.316  -6.226  0.00  0.00     0.032 A 
ATOM     28  C   UNL d   1      25.333  -8.062  -4.853  0.00  0.00     0.066 A 
ATOM     29  C   UNL d   1      25.512  -9.055  -3.866  0.00  0.00     0.079 A 
BRANCH  27  30
ATOM     30  N   UNL d   1      25.335  -7.311  -7.216  0.00  0.00    -0.382 N 
BRANCH  30  31
ATOM     31  C   UNL d   1      26.557  -6.858  -7.918  0.00  0.00     0.118 C 
ATOM     32  C   UNL d   1      26.640  -5.421  -8.403  0.00  0.00     0.026 C 
ENDBRANCH  30  31
BRANCH  30  33
ATOM     33  C   UNL d   1      23.937  -6.884  -7.462  0.00  0.00     0.118 C 
ATOM     34  C   UNL d   1      23.221  -6.055  -6.408  0.00  0.00     0.026 C 
ENDBRANCH  30  33
ENDBRANCH  27  30
BRANCH  29  35
ATOM     35  O   UNL d   1      25.299  -8.657  -2.569  0.00  0.00    -0.360 OA
ATOM     36  H   UNL d   1      24.399  -8.949  -2.291  0.00  0.00     0.217 HD
ENDBRANCH  29  35
ENDBRANCH  23  24
ENDBRANCH   1  22
TORSDOF 9
ENDMDL
MODEL 2
REMARK VINA RESULT:    -9.770      0.914      1.758
REMARK INTER + INTRA:         -14.067
REMARK INTER:                 -12.455
REMARK INTRA:                  -1.612
REMARK CONF_INDEPENDENT:        2.685
REMARK UNBOUND:                -1.612
REMARK  9 active torsions:
REMARK  status: ('A' for Active; 'I' for Inactive)
REMARK    1  A    between atoms: C_2  and  N_3 
REMARK    2  A    between atoms: N_3  and  C_4 
REMARK    3  A    between atoms: N_3  and  C_6 
REMARK    4  A    between atoms: C_9  and  C_10 
REMARK    5  A    between atoms: N_11  and  N_12 
REMARK       I    between atoms: N_12  and  C_13 
REMARK    6  A    between atoms: C_13  and  C_15 
REMARK    7  A    between atoms: C_19  and  N_20 
REMARK       I    between atoms: N_20  and  C_21 
REMARK    8  A    between atoms: C_21  and  C_23 
REMARK    9  A    between atoms: C_31  and  O_32 
ROOT
ATOM      1  N   UNL d   1      25.526 -13.465  -2.325  0.00  0.00    -0.243 N 
ATOM      2  C   UNL d   1      25.427 -14.804  -2.742  0.00  0.00     0.271 C 
ATOM      3  O   UNL d   1      25.178 -15.154  -3.892  0.00  0.00    -0.266 OA
ATOM      4  H   UNL d   1      25.749 -13.221  -1.365  0.00  0.00     0.192 HD
ENDROOT
BRANCH   2   5
ATOM      5  C   UNL d   1      25.613 -15.876  -1.714  0.00  0.00     0.035 A 
ATOM      6  C   UNL d   1      26.886 -16.287  -1.310  0.00  0.00     0.017 A 
ATOM      7  C   UNL d   1      27.035 -17.423  -0.498  0.00  0.00     0.003 A 
ATOM      8  C   UNL d   1      25.910 -18.132  -0.046  0.00  0.00     0.029 A 
ATOM      9  C   UNL d   1      24.630 -17.733  -0.449  0.00  0.00     0.035 A 
ATOM     10  C   UNL d   1      24.511 -16.605  -1.277  0.00  0.00     0.046 A 
BRANCH   9  11
ATOM     11  N   UNL d   1      23.492 -18.495  -0.062  0.00  0.00    -0.323 N 
ATOM     12  C   UNL d   1      22.181 -18.116  -0.342  0.00  0.00     0.256 C 
ATOM     13  O   UNL d   1      21.811 -17.091  -0.897  0.00  0.00    -0.267 OA
ATOM     14  H   UNL d   1      23.657 -19.401   0.360  0.00  0.00     0.169 HD
BRANCH  12  15
ATOM     15  C   UNL d   1      21.091 -19.020   0.057  0.00  0.00     0.032 A 
ATOM     16  C   UNL d   1      20.180 -19.394  -0.944  0.00  0.00     0.017 A 
ATOM     17  C   UNL d   1      19.014 -20.073  -0.610  0.00  0.00     0.007 A 
ATOM     18  C   UNL d   1      18.787 -20.453   0.716  0.00  0.00    -0.062 A 
ATOM     19  C   UNL d   1      17.622 -21.336   1.052  0.00  0.00     0.048 C 
ATOM     20  C   UNL d   1      19.687 -20.049   1.716  0.00  0.00     0.007 A 
ATOM     21  C   UNL d   1      20.838 -19.325   1.392  0.00  0.00     0.017 A 
ENDBRANCH  12  15
ENDBRANCH   9  11
ENDBRANCH   2   5
BRANCH   1  22
ATOM     22  N   UNL d   1      25.341 -12.469  -3.262  0.00  0.00    -0.183 NA
ATOM     23  C   UNL d   1      25.920 -11.316  -3.090  0.00  0.00     0.153 C 
BRANCH  23  24
ATOM     24  C   UNL d   1      25.751 -10.213  -4.100  0.00  0.00     0.016 A 
ATOM     25  C   UNL d   1      25.823  -8.870  -3.711  0.00  0.00     0.018 A 
ATOM     26  C   UNL d   1      25.689  -7.827  -4.668  0.00  0.00     0.030 A 
ATOM     27  C   UNL d   1      25.469  -8.074  -6.036  0.00  0.00     0.032 A 
ATOM     28  C   UNL d   1      25.394  -9.433  -6.395  0.00  0.00     0.066 A 
ATOM     29  C   UNL d   1      25.532 -10.477  -5.454  0.00  0.00     0.079 A 
BRANCH  27  30
ATOM     30  N   UNL d   1      25.324  -7.026  -6.985  0.00  0.00    -0.382 N 
BRANCH  30  31
ATOM     31  C   UNL d   1      24.144  -6.149  -6.822  0.00  0.00     0.118 C 
ATOM     32  C   UNL d   1      22.757  -6.770  -6.803  0.00  0.00     0.026 C 
ENDBRANCH  30  31
BRANCH  30  33
ATOM     33  C   UNL d   1      26.409  -6.909  -7.990  0.00  0.00     0.118 C 
ATOM     34  C   UNL d   1      27.822  -7.312  -7.602  0.00  0.00     0.026 C 
ENDBRANCH  30  33
ENDBRANCH  27  30
BRANCH  29  35
ATOM     35  O   UNL d   1      25.438 -11.752  -5.956  0.00  0.00    -0.360 OA
ATOM     36  H   UNL d   1      24.830 -12.275  -5.382  0.00  0.00     0.217 HD
ENDBRANCH  29  35
ENDBRANCH  23  24
ENDBRANCH   1  22
TORSDOF 9
ENDMDL
MODEL 3
REMARK VINA RESULT:    -9.698      1.462      1.973
REMARK INTER + INTRA:         -13.797
REMARK INTER:                 -12.382
REMARK INTRA:                  -1.414
REMARK CONF_INDEPENDENT:        2.685
REMARK UNBOUND:                -1.414
REMARK  9 active torsions:
REMARK  status: ('A' for Active; 'I' for Inactive)
REMARK    1  A    between atoms: C_2  and  N_3 
REMARK    2  A    between atoms: N_3  and  C_4 
REMARK    3  A    between atoms: N_3  and  C_6 
REMARK    4  A    between atoms: C_9  and  C_10 
REMARK    5  A    between atoms: N_11  and  N_12 
REMARK       I    between atoms: N_12  and  C_13 
REMARK    6  A    between atoms: C_13  and  C_15 
REMARK    7  A    between atoms: C_19  and  N_20 
REMARK       I    between atoms: N_20  and  C_21 
REMARK    8  A    between atoms: C_21  and  C_23 
REMARK    9  A    between atoms: C_31  and  O_32 
ROOT
ATOM      1  N   UNL d   1      25.773 -13.712  -2.349  0.00  0.00    -0.243 N 
ATOM      2  C   UNL d   1      25.489 -15.068  -2.584  0.00  0.00     0.271 C 
ATOM      3  O   UNL d   1      25.199 -15.534  -3.683  0.00  0.00    -0.266 OA
ATOM      4  H   UNL d   1      26.023 -13.373  -1.426  0.00  0.00     0.192 HD
ENDROOT
BRANCH   2   5
ATOM      5  C   UNL d   1      25.515 -16.005  -1.417  0.00  0.00     0.035 A 
ATOM      6  C   UNL d   1      26.703 -16.292  -0.738  0.00  0.00     0.017 A 
ATOM      7  C   UNL d   1      26.737 -17.318   0.219  0.00  0.00     0.003 A 
ATOM      8  C   UNL d   1      25.574 -18.037   0.539  0.00  0.00     0.029 A 
ATOM      9  C   UNL d   1      24.380 -17.763  -0.138  0.00  0.00     0.035 A 
ATOM     10  C   UNL d   1      24.379 -16.744  -1.105  0.00  0.00     0.046 A 
BRANCH   9  11
ATOM     11  N   UNL d   1      23.218 -18.542   0.123  0.00  0.00    -0.323 N 
ATOM     12  C   UNL d   1      21.983 -18.305  -0.475  0.00  0.00     0.256 C 
ATOM     13  O   UNL d   1      21.698 -17.401  -1.249  0.00  0.00    -0.267 OA
ATOM     14  H   UNL d   1      23.326 -19.363   0.707  0.00  0.00     0.169 HD
BRANCH  12  15
ATOM     15  C   UNL d   1      20.870 -19.220  -0.171  0.00  0.00     0.032 A 
ATOM     16  C   UNL d   1      19.903 -19.395  -1.173  0.00  0.00     0.017 A 
ATOM     17  C   UNL d   1      18.723 -20.075  -0.893  0.00  0.00     0.007 A 
ATOM     18  C   UNL d   1      18.535 -20.652   0.366  0.00  0.00    -0.062 A 
ATOM     19  C   UNL d   1      17.347 -21.533   0.615  0.00  0.00     0.048 C 
ATOM     20  C   UNL d   1      19.494 -20.446   1.372  0.00  0.00     0.007 A 
ATOM     21  C   UNL d   1      20.660 -19.723   1.110  0.00  0.00     0.017 A 
ENDBRANCH  12  15
ENDBRANCH   9  11
ENDBRANCH   2   5
BRANCH   1  22
ATOM     22  N   UNL d   1      25.736 -12.837  -3.416  0.00  0.00    -0.183 NA
ATOM     23  C   UNL d   1      26.764 -12.757  -4.211  0.00  0.00     0.153 C 
BRANCH  23  24
ATOM     24  C   UNL d   1      26.750 -11.825  -5.392  0.00  0.00     0.016 A 
ATOM     25  C   UNL d   1      27.530 -12.093  -6.524  0.00  0.00     0.018 A 
ATOM     26  C   UNL d   1      27.500 -11.227  -7.651  0.00  0.00     0.030 A 
ATOM     27  C   UNL d   1      26.708 -10.064  -7.695  0.00  0.00     0.032 A 
ATOM     28  C   UNL d   1      25.941  -9.818  -6.540  0.00  0.00     0.066 A 
ATOM     29  C   UNL d   1      25.959 -10.673  -5.418  0.00  0.00     0.079 A 
BRANCH  27  30
ATOM     30  N   UNL d   1      26.691  -9.196  -8.820  0.00  0.00    -0.382 N 
BRANCH  30  31
ATOM     31  C   UNL d   1      26.662  -9.844 -10.151  0.00  0.00     0.118 C 
ATOM     32  C   UNL d   1      26.158 -11.272 -10.266  0.00  0.00     0.026 C 
ENDBRANCH  30  31
BRANCH  30  33
ATOM     33  C   UNL d   1      26.648  -7.745  -8.518  0.00  0.00     0.118 C 
ATOM     34  C   UNL d   1      25.436  -6.936  -8.949  0.00  0.00     0.026 C 
ENDBRANCH  30  33
ENDBRANCH  27  30
BRANCH  29  35
ATOM     35  O   UNL d   1      25.155 -10.302  -4.368  0.00  0.00    -0.360 OA
ATOM     36  H   UNL d   1      24.770 -11.114  -3.961  0.00  0.00     0.217 HD
ENDBRANCH  29  35
ENDBRANCH  23  24
ENDBRANCH   1  22
TORSDOF 9
ENDMDL
MODEL 4
REMARK VINA RESULT:    -9.493      6.383      9.613
REMARK INTER + INTRA:         -13.789
REMARK INTER:                 -12.177
REMARK INTRA:                  -1.611
REMARK CONF_INDEPENDENT:        2.685
REMARK UNBOUND:                -1.611
REMARK  9 active torsions:
REMARK  status: ('A' for Active; 'I' for Inactive)
REMARK    1  A    between atoms: C_2  and  N_3 
REMARK    2  A    between atoms: N_3  and  C_4 
REMARK    3  A    between atoms: N_3  and  C_6 
REMARK    4  A    between atoms: C_9  and  C_10 
REMARK    5  A    between atoms: N_11  and  N_12 
REMARK       I    between atoms: N_12  and  C_13 
REMARK    6  A    between atoms: C_13  and  C_15 
REMARK    7  A    between atoms: C_19  and  N_20 
REMARK       I    between atoms: N_20  and  C_21 
REMARK    8  A    between atoms: C_21  and  C_23 
REMARK    9  A    between atoms: C_31  and  O_32 
ROOT
ATOM      1  N   UNL d   1      28.014 -15.251   1.686  0.00  0.00    -0.243 N 
ATOM      2  C   UNL d   1      27.069 -14.526   0.941  0.00  0.00     0.271 C 
ATOM      3  O   UNL d   1      26.655 -13.411   1.245  0.00  0.00    -0.266 OA
ATOM      4  H   UNL d   1      28.340 -16.166   1.388  0.00  0.00     0.192 HD
ENDROOT
BRANCH   2   5
ATOM      5  C   UNL d   1      26.509 -15.162  -0.294  0.00  0.00     0.035 A 
ATOM      6  C   UNL d   1      27.025 -14.876  -1.560  0.00  0.00     0.017 A 
ATOM      7  C   UNL d   1      26.360 -15.328  -2.711  0.00  0.00     0.003 A 
ATOM      8  C   UNL d   1      25.196 -16.106  -2.606  0.00  0.00     0.029 A 
ATOM      9  C   UNL d   1      24.666 -16.394  -1.343  0.00  0.00     0.035 A 
ATOM     10  C   UNL d   1      25.341 -15.914  -0.209  0.00  0.00     0.046 A 
BRANCH   9  11
ATOM     11  N   UNL d   1      23.443 -17.113  -1.230  0.00  0.00    -0.323 N 
ATOM     12  C   UNL d   1      23.114 -17.905  -0.133  0.00  0.00     0.256 C 
ATOM     13  O   UNL d   1      23.810 -18.139   0.845  0.00  0.00    -0.267 OA
ATOM     14  H   UNL d   1      22.745 -16.965  -1.949  0.00  0.00     0.169 HD
BRANCH  12  15
ATOM     15  C   UNL d   1      21.791 -18.550  -0.106  0.00  0.00     0.032 A 
ATOM     16  C   UNL d   1      21.307 -18.950   1.149  0.00  0.00     0.017 A 
ATOM     17  C   UNL d   1      20.169 -19.744   1.239  0.00  0.00     0.007 A 
ATOM     18  C   UNL d   1      19.463 -20.079   0.081  0.00  0.00    -0.062 A 
ATOM     19  C   UNL d   1      18.142 -20.782   0.187  0.00  0.00     0.048 C 
ATOM     20  C   UNL d   1      19.970 -19.700  -1.174  0.00  0.00     0.007 A 
ATOM     21  C   UNL d   1      21.139 -18.942  -1.272  0.00  0.00     0.017 A 
ENDBRANCH  12  15
ENDBRANCH   9  11
ENDBRANCH   2   5
BRANCH   1  22
ATOM     22  N   UNL d   1      28.525 -14.680   2.834  0.00  0.00    -0.183 NA
ATOM     23  C   UNL d   1      27.769 -14.580   3.888  0.00  0.00     0.153 C 
BRANCH  23  24
ATOM     24  C   UNL d   1      28.300 -13.977   5.160  0.00  0.00     0.016 A 
ATOM     25  C   UNL d   1      27.599 -12.956   5.814  0.00  0.00     0.018 A 
ATOM     26  C   UNL d   1      28.086 -12.401   7.029  0.00  0.00     0.030 A 
ATOM     27  C   UNL d   1      29.285 -12.827   7.632  0.00  0.00     0.032 A 
ATOM     28  C   UNL d   1      29.970 -13.848   6.947  0.00  0.00     0.066 A 
ATOM     29  C   UNL d   1      29.493 -14.411   5.744  0.00  0.00     0.079 A 
BRANCH  27  30
ATOM     30  N   UNL d   1      29.772 -12.259   8.841  0.00  0.00    -0.382 N 
BRANCH  30  31
ATOM     31  C   UNL d   1      30.565 -11.016   8.712  0.00  0.00     0.118 C 
ATOM     32  C   UNL d   1      29.843  -9.697   8.502  0.00  0.00     0.026 C 
ENDBRANCH  30  31
BRANCH  30  33
ATOM     33  C   UNL d   1      29.375 -12.956  10.089  0.00  0.00     0.118 C 
ATOM     34  C   UNL d   1      27.969 -12.758  10.630  0.00  0.00     0.026 C 
ENDBRANCH  30  33
ENDBRANCH  27  30
BRANCH  29  35
ATOM     35  O   UNL d   1      30.271 -15.400   5.195  0.00  0.00    -0.360 OA
ATOM     36  H   UNL d   1      29.895 -15.649   4.318  0.00  0.00     0.217 HD
ENDBRANCH  29  35
ENDBRANCH  23  24
ENDBRANCH   1  22
TORSDOF 9
ENDMDL
MODEL 5
REMARK VINA RESULT:    -9.370      6.384      9.915
REMARK INTER + INTRA:         -13.727
REMARK INTER:                 -12.055
REMARK INTRA:                  -1.672
REMARK CONF_INDEPENDENT:        2.685
REMARK UNBOUND:                -1.672
REMARK  9 active torsions:
REMARK  status: ('A' for Active; 'I' for Inactive)
REMARK    1  A    between atoms: C_2  and  N_3 
REMARK    2  A    between atoms: N_3  and  C_4 
REMARK    3  A    between atoms: N_3  and  C_6 
REMARK    4  A    between atoms: C_9  and  C_10 
REMARK    5  A    between atoms: N_11  and  N_12 
REMARK       I    between atoms: N_12  and  C_13 
REMARK    6  A    between atoms: C_13  and  C_15 
REMARK    7  A    between atoms: C_19  and  N_20 
REMARK       I    between atoms: N_20  and  C_21 
REMARK    8  A    between atoms: C_21  and  C_23 
REMARK    9  A    between atoms: C_31  and  O_32 
ROOT
ATOM      1  N   UNL d   1      27.862 -15.270   1.736  0.00  0.00    -0.243 N 
ATOM      2  C   UNL d   1      27.035 -14.386   1.024  0.00  0.00     0.271 C 
ATOM      3  O   UNL d   1      26.791 -13.234   1.372  0.00  0.00    -0.266 OA
ATOM      4  H   UNL d   1      28.049 -16.211   1.402  0.00  0.00     0.192 HD
ENDROOT
BRANCH   2   5
ATOM      5  C   UNL d   1      26.386 -14.884  -0.231  0.00  0.00     0.035 A 
ATOM      6  C   UNL d   1      26.804 -14.449  -1.491  0.00  0.00     0.017 A 
ATOM      7  C   UNL d   1      26.056 -14.776  -2.633  0.00  0.00     0.003 A 
ATOM      8  C   UNL d   1      24.908 -15.578  -2.531  0.00  0.00     0.029 A 
ATOM      9  C   UNL d   1      24.476 -16.016  -1.273  0.00  0.00     0.035 A 
ATOM     10  C   UNL d   1      25.233 -15.657  -0.146  0.00  0.00     0.046 A 
BRANCH   9  11
ATOM     11  N   UNL d   1      23.270 -16.760  -1.154  0.00  0.00    -0.323 N 
ATOM     12  C   UNL d   1      23.144 -17.900  -0.363  0.00  0.00     0.256 C 
ATOM     13  O   UNL d   1      24.023 -18.448   0.288  0.00  0.00    -0.267 OA
ATOM     14  H   UNL d   1      22.441 -16.384  -1.599  0.00  0.00     0.169 HD
BRANCH  12  15
ATOM     15  C   UNL d   1      21.825 -18.547  -0.272  0.00  0.00     0.032 A 
ATOM     16  C   UNL d   1      21.404 -18.951   1.004  0.00  0.00     0.017 A 
ATOM     17  C   UNL d   1      20.274 -19.747   1.148  0.00  0.00     0.007 A 
ATOM     18  C   UNL d   1      19.512 -20.082   0.026  0.00  0.00    -0.062 A 
ATOM     19  C   UNL d   1      18.200 -20.788   0.195  0.00  0.00     0.048 C 
ATOM     20  C   UNL d   1      19.956 -19.700  -1.252  0.00  0.00     0.007 A 
ATOM     21  C   UNL d   1      21.118 -18.939  -1.406  0.00  0.00     0.017 A 
ENDBRANCH  12  15
ENDBRANCH   9  11
ENDBRANCH   2   5
BRANCH   1  22
ATOM     22  N   UNL d   1      28.453 -14.825   2.901  0.00  0.00    -0.183 NA
ATOM     23  C   UNL d   1      27.706 -14.334   3.848  0.00  0.00     0.153 C 
BRANCH  23  24
ATOM     24  C   UNL d   1      28.316 -13.854   5.137  0.00  0.00     0.016 A 
ATOM     25  C   UNL d   1      27.776 -12.757   5.818  0.00  0.00     0.018 A 
ATOM     26  C   UNL d   1      28.336 -12.316   7.049  0.00  0.00     0.030 A 
ATOM     27  C   UNL d   1      29.452 -12.937   7.641  0.00  0.00     0.032 A 
ATOM     28  C   UNL d   1      29.978 -14.031   6.928  0.00  0.00     0.066 A 
ATOM     29  C   UNL d   1      29.426 -14.481   5.709  0.00  0.00     0.079 A 
BRANCH  27  30
ATOM     30  N   UNL d   1      30.014 -12.484   8.865  0.00  0.00    -0.382 N 
BRANCH  30  31
ATOM     31  C   UNL d   1      29.058 -12.148   9.944  0.00  0.00     0.118 C 
ATOM     32  C   UNL d   1      28.221 -13.256  10.561  0.00  0.00     0.026 C 
ENDBRANCH  30  31
BRANCH  30  33
ATOM     33  C   UNL d   1      31.496 -12.459   8.927  0.00  0.00     0.118 C 
ATOM     34  C   UNL d   1      32.218 -13.496   9.771  0.00  0.00     0.026 C 
ENDBRANCH  30  33
ENDBRANCH  27  30
BRANCH  29  35
ATOM     35  O   UNL d   1      30.047 -15.562   5.133  0.00  0.00    -0.360 OA
ATOM     36  H   UNL d   1      29.819 -15.585   4.174  0.00  0.00     0.217 HD
ENDBRANCH  29  35
ENDBRANCH  23  24
ENDBRANCH   1  22
TORSDOF 9
ENDMDL
MODEL 6
REMARK VINA RESULT:    -8.983      6.343      9.630
REMARK INTER + INTRA:         -13.310
REMARK INTER:                 -11.668
REMARK INTRA:                  -1.643
REMARK CONF_INDEPENDENT:        2.685
REMARK UNBOUND:                -1.643
REMARK  9 active torsions:
REMARK  status: ('A' for Active; 'I' for Inactive)
REMARK    1  A    between atoms: C_2  and  N_3 
REMARK    2  A    between atoms: N_3  and  C_4 
REMARK    3  A    between atoms: N_3  and  C_6 
REMARK    4  A    between atoms: C_9  and  C_10 
REMARK    5  A    between atoms: N_11  and  N_12 
REMARK       I    between atoms: N_12  and  C_13 
REMARK    6  A    between atoms: C_13  and  C_15 
REMARK    7  A    between atoms: C_19  and  N_20 
REMARK       I    between atoms: N_20  and  C_21 
REMARK    8  A    between atoms: C_21  and  C_23 
REMARK    9  A    between atoms: C_31  and  O_32 
ROOT
ATOM      1  N   UNL d   1      27.991 -15.280   1.757  0.00  0.00    -0.243 N 
ATOM      2  C   UNL d   1      27.141 -14.446   1.012  0.00  0.00     0.271 C 
ATOM      3  O   UNL d   1      26.848 -13.296   1.328  0.00  0.00    -0.266 OA
ATOM      4  H   UNL d   1      28.218 -16.221   1.450  0.00  0.00     0.192 HD
ENDROOT
BRANCH   2   5
ATOM      5  C   UNL d   1      26.530 -15.000  -0.238  0.00  0.00     0.035 A 
ATOM      6  C   UNL d   1      26.930 -14.560  -1.503  0.00  0.00     0.017 A 
ATOM      7  C   UNL d   1      26.209 -14.946  -2.644  0.00  0.00     0.003 A 
ATOM      8  C   UNL d   1      25.109 -15.813  -2.536  0.00  0.00     0.029 A 
ATOM      9  C   UNL d   1      24.696 -16.256  -1.274  0.00  0.00     0.035 A 
ATOM     10  C   UNL d   1      25.424 -15.838  -0.148  0.00  0.00     0.046 A 
BRANCH   9  11
ATOM     11  N   UNL d   1      23.534 -17.068  -1.149  0.00  0.00    -0.323 N 
ATOM     12  C   UNL d   1      23.349 -17.995  -0.126  0.00  0.00     0.256 C 
ATOM     13  O   UNL d   1      24.140 -18.283   0.762  0.00  0.00    -0.267 OA
ATOM     14  H   UNL d   1      22.770 -16.893  -1.790  0.00  0.00     0.169 HD
BRANCH  12  15
ATOM     15  C   UNL d   1      22.076 -18.731  -0.070  0.00  0.00     0.032 A 
ATOM     16  C   UNL d   1      21.455 -19.018  -1.295  0.00  0.00     0.017 A 
ATOM     17  C   UNL d   1      20.160 -19.523  -1.320  0.00  0.00     0.007 A 
ATOM     18  C   UNL d   1      19.506 -19.820  -0.121  0.00  0.00    -0.062 A 
ATOM     19  C   UNL d   1      18.184 -20.528  -0.145  0.00  0.00     0.048 C 
ATOM     20  C   UNL d   1      20.123 -19.503   1.101  0.00  0.00     0.007 A 
ATOM     21  C   UNL d   1      21.406 -18.950   1.131  0.00  0.00     0.017 A 
ENDBRANCH  12  15
ENDBRANCH   9  11
ENDBRANCH   2   5
BRANCH   1  22
ATOM     22  N   UNL d   1      28.547 -14.783   2.919  0.00  0.00    -0.183 NA
ATOM     23  C   UNL d   1      27.767 -14.324   3.854  0.00  0.00     0.153 C 
BRANCH  23  24
ATOM     24  C   UNL d   1      28.340 -13.789   5.139  0.00  0.00     0.016 A 
ATOM     25  C   UNL d   1      27.657 -12.814   5.875  0.00  0.00     0.018 A 
ATOM     26  C   UNL d   1      28.184 -12.325   7.101  0.00  0.00     0.030 A 
ATOM     27  C   UNL d   1      29.407 -12.775   7.636  0.00  0.00     0.032 A 
ATOM     28  C   UNL d   1      30.073 -13.749   6.869  0.00  0.00     0.066 A 
ATOM     29  C   UNL d   1      29.556 -14.246   5.653  0.00  0.00     0.079 A 
BRANCH  27  30
ATOM     30  N   UNL d   1      29.934 -12.274   8.857  0.00  0.00    -0.382 N 
BRANCH  30  31
ATOM     31  C   UNL d   1      29.750 -13.126  10.053  0.00  0.00     0.118 C 
ATOM     32  C   UNL d   1      28.440 -13.874  10.234  0.00  0.00     0.026 C 
ENDBRANCH  30  31
BRANCH  30  33
ATOM     33  C   UNL d   1      30.655 -10.981   8.768  0.00  0.00     0.118 C 
ATOM     34  C   UNL d   1      30.390 -10.067   7.583  0.00  0.00     0.026 C 
ENDBRANCH  30  33
ENDBRANCH  27  30
BRANCH  29  35
ATOM     35  O   UNL d   1      30.320 -15.196   5.021  0.00  0.00    -0.360 OA
ATOM     36  H   UNL d   1      29.758 -15.666   4.360  0.00  0.00     0.217 HD
ENDBRANCH  29  35
ENDBRANCH  23  24
ENDBRANCH   1  22
TORSDOF 9
ENDMDL
MODEL 7
REMARK VINA RESULT:    -8.925      6.008      8.861
REMARK INTER + INTRA:         -13.228
REMARK INTER:                 -11.609
REMARK INTRA:                  -1.619
REMARK CONF_INDEPENDENT:        2.685
REMARK UNBOUND:                -1.619
REMARK  9 active torsions:
REMARK  status: ('A' for Active; 'I' for Inactive)
REMARK    1  A    between atoms: C_2  and  N_3 
REMARK    2  A    between atoms: N_3  and  C_4 
REMARK    3  A    between atoms: N_3  and  C_6 
REMARK    4  A    between atoms: C_9  and  C_10 
REMARK    5  A    between atoms: N_11  and  N_12 
REMARK       I    between atoms: N_12  and  C_13 
REMARK    6  A    between atoms: C_13  and  C_15 
REMARK    7  A    between atoms: C_19  and  N_20 
REMARK       I    between atoms: N_20  and  C_21 
REMARK    8  A    between atoms: C_21  and  C_23 
REMARK    9  A    between atoms: C_31  and  O_32 
ROOT
ATOM      1  N   UNL d   1      27.739 -15.671   1.451  0.00  0.00    -0.243 N 
ATOM      2  C   UNL d   1      26.724 -15.102   0.663  0.00  0.00     0.271 C 
ATOM      3  O   UNL d   1      26.362 -13.931   0.741  0.00  0.00    -0.266 OA
ATOM      4  H   UNL d   1      28.016 -16.642   1.343  0.00  0.00     0.192 HD
ENDROOT
BRANCH   2   5
ATOM      5  C   UNL d   1      26.017 -15.984  -0.319  0.00  0.00     0.035 A 
ATOM      6  C   UNL d   1      26.199 -15.834  -1.696  0.00  0.00     0.017 A 
ATOM      7  C   UNL d   1      25.380 -16.536  -2.596  0.00  0.00     0.003 A 
ATOM      8  C   UNL d   1      24.402 -17.426  -2.126  0.00  0.00     0.029 A 
ATOM      9  C   UNL d   1      24.206 -17.580  -0.749  0.00  0.00     0.035 A 
ATOM     10  C   UNL d   1      25.026 -16.851   0.128  0.00  0.00     0.046 A 
BRANCH   9  11
ATOM     11  N   UNL d   1      23.162 -18.418  -0.267  0.00  0.00    -0.323 N 
ATOM     12  C   UNL d   1      21.809 -18.138  -0.438  0.00  0.00     0.256 C 
ATOM     13  O   UNL d   1      21.321 -17.147  -0.964  0.00  0.00    -0.267 OA
ATOM     14  H   UNL d   1      23.426 -19.307   0.143  0.00  0.00     0.169 HD
BRANCH  12  15
ATOM     15  C   UNL d   1      20.823 -19.115   0.052  0.00  0.00     0.032 A 
ATOM     16  C   UNL d   1      19.886 -19.590  -0.878  0.00  0.00     0.017 A 
ATOM     17  C   UNL d   1      18.803 -20.351  -0.453  0.00  0.00     0.007 A 
ATOM     18  C   UNL d   1      18.690 -20.708   0.893  0.00  0.00    -0.062 A 
ATOM     19  C   UNL d   1      17.626 -21.672   1.325  0.00  0.00     0.048 C 
ATOM     20  C   UNL d   1      19.615 -20.203   1.823  0.00  0.00     0.007 A 
ATOM     21  C   UNL d   1      20.680 -19.399   1.407  0.00  0.00     0.017 A 
ENDBRANCH  12  15
ENDBRANCH   9  11
ENDBRANCH   2   5
BRANCH   1  22
ATOM     22  N   UNL d   1      28.386 -14.870   2.370  0.00  0.00    -0.183 NA
ATOM     23  C   UNL d   1      27.739 -14.451   3.419  0.00  0.00     0.153 C 
BRANCH  23  24
ATOM     24  C   UNL d   1      28.420 -13.589   4.448  0.00  0.00     0.016 A 
ATOM     25  C   UNL d   1      27.729 -12.546   5.075  0.00  0.00     0.018 A 
ATOM     26  C   UNL d   1      28.362 -11.745   6.066  0.00  0.00     0.030 A 
ATOM     27  C   UNL d   1      29.699 -11.942   6.461  0.00  0.00     0.032 A 
ATOM     28  C   UNL d   1      30.369 -12.993   5.806  0.00  0.00     0.066 A 
ATOM     29  C   UNL d   1      29.748 -13.798   4.826  0.00  0.00     0.079 A 
BRANCH  27  30
ATOM     30  N   UNL d   1      30.330 -11.130   7.443  0.00  0.00    -0.382 N 
BRANCH  30  31
ATOM     31  C   UNL d   1      31.365 -10.192   6.955  0.00  0.00     0.118 C 
ATOM     32  C   UNL d   1      32.823 -10.620   6.980  0.00  0.00     0.026 C 
ENDBRANCH  30  31
BRANCH  30  33
ATOM     33  C   UNL d   1      29.829 -11.286   8.829  0.00  0.00     0.118 C 
ATOM     34  C   UNL d   1      28.844 -12.401   9.138  0.00  0.00     0.026 C 
ENDBRANCH  30  33
ENDBRANCH  27  30
BRANCH  29  35
ATOM     35  O   UNL d   1      30.530 -14.785   4.280  0.00  0.00    -0.360 OA
ATOM     36  H   UNL d   1      29.946 -15.430   3.813  0.00  0.00     0.217 HD
ENDBRANCH  29  35
ENDBRANCH  23  24
ENDBRANCH   1  22
TORSDOF 9
ENDMDL
MODEL 8
REMARK VINA RESULT:    -8.640      1.792      2.607
REMARK INTER + INTRA:         -12.295
REMARK INTER:                 -11.325
REMARK INTRA:                  -0.970
REMARK CONF_INDEPENDENT:        2.685
REMARK UNBOUND:                -0.970
REMARK  9 active torsions:
REMARK  status: ('A' for Active; 'I' for Inactive)
REMARK    1  A    between atoms: C_2  and  N_3 
REMARK    2  A    between atoms: N_3  and  C_4 
REMARK    3  A    between atoms: N_3  and  C_6 
REMARK    4  A    between atoms: C_9  and  C_10 
REMARK    5  A    between atoms: N_11  and  N_12 
REMARK       I    between atoms: N_12  and  C_13 
REMARK    6  A    between atoms: C_13  and  C_15 
REMARK    7  A    between atoms: C_19  and  N_20 
REMARK       I    between atoms: N_20  and  C_21 
REMARK    8  A    between atoms: C_21  and  C_23 
REMARK    9  A    between atoms: C_31  and  O_32 
ROOT
ATOM      1  N   UNL d   1      26.208 -15.437  -3.645  0.00  0.00    -0.243 N 
ATOM      2  C   UNL d   1      25.693 -15.128  -2.375  0.00  0.00     0.271 C 
ATOM      3  O   UNL d   1      25.237 -14.032  -2.060  0.00  0.00    -0.266 OA
ATOM      4  H   UNL d   1      26.562 -16.363  -3.866  0.00  0.00     0.192 HD
ENDROOT
BRANCH   2   5
ATOM      5  C   UNL d   1      25.722 -16.196  -1.325  0.00  0.00     0.035 A 
ATOM      6  C   UNL d   1      26.928 -16.712  -0.843  0.00  0.00     0.017 A 
ATOM      7  C   UNL d   1      26.927 -17.843  -0.011  0.00  0.00     0.003 A 
ATOM      8  C   UNL d   1      25.720 -18.441   0.383  0.00  0.00     0.029 A 
ATOM      9  C   UNL d   1      24.506 -17.936  -0.098  0.00  0.00     0.035 A 
ATOM     10  C   UNL d   1      24.536 -16.816  -0.945  0.00  0.00     0.046 A 
BRANCH   9  11
ATOM     11  N   UNL d   1      23.284 -18.586   0.231  0.00  0.00    -0.323 N 
ATOM     12  C   UNL d   1      22.036 -18.147  -0.207  0.00  0.00     0.256 C 
ATOM     13  O   UNL d   1      21.796 -17.151  -0.875  0.00  0.00    -0.267 OA
ATOM     14  H   UNL d   1      23.340 -19.462   0.737  0.00  0.00     0.169 HD
BRANCH  12  15
ATOM     15  C   UNL d   1      20.849 -18.941   0.150  0.00  0.00     0.032 A 
ATOM     16  C   UNL d   1      20.721 -19.320   1.494  0.00  0.00     0.017 A 
ATOM     17  C   UNL d   1      19.746 -20.236   1.873  0.00  0.00     0.007 A 
ATOM     18  C   UNL d   1      18.842 -20.721   0.923  0.00  0.00    -0.062 A 
ATOM     19  C   UNL d   1      17.683 -21.568   1.357  0.00  0.00     0.048 C 
ATOM     20  C   UNL d   1      18.996 -20.360  -0.426  0.00  0.00     0.007 A 
ATOM     21  C   UNL d   1      20.004 -19.476  -0.819  0.00  0.00     0.017 A 
ENDBRANCH  12  15
ENDBRANCH   9  11
ENDBRANCH   2   5
BRANCH   1  22
ATOM     22  N   UNL d   1      26.200 -14.455  -4.615  0.00  0.00    -0.183 NA
ATOM     23  C   UNL d   1      26.759 -13.307  -4.366  0.00  0.00     0.153 C 
BRANCH  23  24
ATOM     24  C   UNL d   1      26.781 -12.221  -5.407  0.00  0.00     0.016 A 
ATOM     25  C   UNL d   1      25.601 -11.567  -5.782  0.00  0.00     0.018 A 
ATOM     26  C   UNL d   1      25.621 -10.523  -6.747  0.00  0.00     0.030 A 
ATOM     27  C   UNL d   1      26.804 -10.098  -7.381  0.00  0.00     0.032 A 
ATOM     28  C   UNL d   1      27.972 -10.780  -6.990  0.00  0.00     0.066 A 
ATOM     29  C   UNL d   1      27.964 -11.813  -6.028  0.00  0.00     0.079 A 
BRANCH  27  30
ATOM     30  N   UNL d   1      26.816  -9.062  -8.354  0.00  0.00    -0.382 N 
BRANCH  30  31
ATOM     31  C   UNL d   1      26.802  -7.675  -7.839  0.00  0.00     0.118 C 
ATOM     32  C   UNL d   1      25.998  -7.358  -6.590  0.00  0.00     0.026 C 
ENDBRANCH  30  31
BRANCH  30  33
ATOM     33  C   UNL d   1      26.899  -9.503  -9.768  0.00  0.00     0.118 C 
ATOM     34  C   UNL d   1      26.836 -10.988 -10.083  0.00  0.00     0.026 C 
ENDBRANCH  30  33
ENDBRANCH  27  30
BRANCH  29  35
ATOM     35  O   UNL d   1      29.182 -12.381  -5.748  0.00  0.00    -0.360 OA
ATOM     36  H   UNL d   1      29.731 -11.727  -5.252  0.00  0.00     0.217 HD
ENDBRANCH  29  35
ENDBRANCH  23  24
ENDBRANCH   1  22
TORSDOF 9
ENDMDL
MODEL 9
REMARK VINA RESULT:    -7.344      7.174     12.094
REMARK INTER + INTRA:         -11.649
REMARK INTER:                 -10.029
REMARK INTRA:                  -1.621
REMARK CONF_INDEPENDENT:        2.685
REMARK UNBOUND:                -1.621
REMARK  9 active torsions:
REMARK  status: ('A' for Active; 'I' for Inactive)
REMARK    1  A    between atoms: C_2  and  N_3 
REMARK    2  A    between atoms: N_3  and  C_4 
REMARK    3  A    between atoms: N_3  and  C_6 
REMARK    4  A    between atoms: C_9  and  C_10 
REMARK    5  A    between atoms: N_11  and  N_12 
REMARK       I    between atoms: N_12  and  C_13 
REMARK    6  A    between atoms: C_13  and  C_15 
REMARK    7  A    between atoms: C_19  and  N_20 
REMARK       I    between atoms: N_20  and  C_21 
REMARK    8  A    between atoms: C_21  and  C_23 
REMARK    9  A    between atoms: C_31  and  O_32 
ROOT
ATOM      1  N   UNL d   1      28.249 -15.052   1.690  0.00  0.00    -0.243 N 
ATOM      2  C   UNL d   1      27.292 -14.307   0.980  0.00  0.00     0.271 C 
ATOM      3  O   UNL d   1      26.772 -13.274   1.395  0.00  0.00    -0.266 OA
ATOM      4  H   UNL d   1      28.664 -15.893   1.302  0.00  0.00     0.192 HD
ENDROOT
BRANCH   2   5
ATOM      5  C   UNL d   1      26.856 -14.815  -0.359  0.00  0.00     0.035 A 
ATOM      6  C   UNL d   1      25.596 -15.390  -0.546  0.00  0.00     0.017 A 
ATOM      7  C   UNL d   1      25.289 -16.035  -1.755  0.00  0.00     0.003 A 
ATOM      8  C   UNL d   1      26.222 -16.072  -2.803  0.00  0.00     0.029 A 
ATOM      9  C   UNL d   1      27.489 -15.505  -2.626  0.00  0.00     0.035 A 
ATOM     10  C   UNL d   1      27.777 -14.883  -1.399  0.00  0.00     0.046 A 
BRANCH   9  11
ATOM     11  N   UNL d   1      28.467 -15.610  -3.653  0.00  0.00    -0.323 N 
ATOM     12  C   UNL d   1      28.187 -15.425  -5.005  0.00  0.00     0.256 C 
ATOM     13  O   UNL d   1      27.095 -15.200  -5.508  0.00  0.00    -0.267 OA
ATOM     14  H   UNL d   1      29.432 -15.739  -3.370  0.00  0.00     0.169 HD
BRANCH  12  15
ATOM     15  C   UNL d   1      29.297 -15.499  -5.968  0.00  0.00     0.032 A 
ATOM     16  C   UNL d   1      30.028 -16.697  -6.001  0.00  0.00     0.017 A 
ATOM     17  C   UNL d   1      31.210 -16.774  -6.729  0.00  0.00     0.007 A 
ATOM     18  C   UNL d   1      31.630 -15.681  -7.491  0.00  0.00    -0.062 A 
ATOM     19  C   UNL d   1      32.804 -15.818  -8.414  0.00  0.00     0.048 C 
ATOM     20  C   UNL d   1      30.909 -14.476  -7.429  0.00  0.00     0.007 A 
ATOM     21  C   UNL d   1      29.746 -14.378  -6.661  0.00  0.00     0.017 A 
ENDBRANCH  12  15
ENDBRANCH   9  11
ENDBRANCH   2   5
BRANCH   1  22
ATOM     22  N   UNL d   1      28.646 -14.599   2.932  0.00  0.00    -0.183 NA
ATOM     23  C   UNL d   1      27.750 -14.399   3.855  0.00  0.00     0.153 C 
BRANCH  23  24
ATOM     24  C   UNL d   1      28.151 -13.921   5.224  0.00  0.00     0.016 A 
ATOM     25  C   UNL d   1      27.482 -12.851   5.832  0.00  0.00     0.018 A 
ATOM     26  C   UNL d   1      27.843 -12.413   7.135  0.00  0.00     0.030 A 
ATOM     27  C   UNL d   1      28.881 -13.009   7.877  0.00  0.00     0.032 A 
ATOM     28  C   UNL d   1      29.540 -14.075   7.236  0.00  0.00     0.066 A 
ATOM     29  C   UNL d   1      29.186 -14.522   5.945  0.00  0.00     0.079 A 
BRANCH  27  30
ATOM     30  N   UNL d   1      29.245 -12.558   9.175  0.00  0.00    -0.382 N 
BRANCH  30  31
ATOM     31  C   UNL d   1      28.498 -13.148  10.309  0.00  0.00     0.118 C 
ATOM     32  C   UNL d   1      28.716 -14.611  10.657  0.00  0.00     0.026 C 
ENDBRANCH  30  31
BRANCH  30  33
ATOM     33  C   UNL d   1      30.369 -11.593   9.234  0.00  0.00     0.118 C 
ATOM     34  C   UNL d   1      30.111 -10.136   8.888  0.00  0.00     0.026 C 
ENDBRANCH  30  33
ENDBRANCH  27  30
BRANCH  29  35
ATOM     35  O   UNL d   1      29.918 -15.575   5.454  0.00  0.00    -0.360 OA
ATOM     36  H   UNL d   1      29.676 -15.716   4.508  0.00  0.00     0.217 HD
ENDBRANCH  29  35
ENDBRANCH  23  24
ENDBRANCH   1  22
TORSDOF 9
ENDMDL
