MODEL 1
REMARK VINA RESULT:    -9.180      0.000      0.000
REMARK INTER + INTRA:         -14.490
REMARK INTER:                 -11.566
REMARK INTRA:                  -2.924
REMARK CONF_INDEPENDENT:        2.386
REMARK UNBOUND:                -2.924
REMARK  8 active torsions:
REMARK  status: ('A' for Active; 'I' for Inactive)
REMARK    1  A    between atoms: C_2  and  O_3 
REMARK    2  A    between atoms: O_3  and  C_4 
REMARK    3  A    between atoms: C_9  and  N_10 
REMARK       I    between atoms: N_10  and  C_11 
REMARK       I    between atoms: C_11  and  N_12 
REMARK       I    between atoms: C_11  and  N_24 
REMARK       I    between atoms: N_12  and  C_13 
REMARK    4  A    between atoms: C_13  and  C_15 
REMARK    5  A    between atoms: C_19  and  N_20 
REMARK    6  A    between atoms: N_24  and  C_25 
REMARK    7  A    between atoms: C_25  and  C_26 
REMARK    8  A    between atoms: C_26  and  C_27 
ROOT
ATOM      1  N   UNL d   1      28.056 -12.085  -2.923  0.00  0.00    -0.187 N 
ATOM      2  C   UNL d   1      27.949 -12.349  -1.441  0.00  0.00     0.704 C 
ATOM      3  N   UNL d   1      27.708 -13.511  -0.727  0.00  0.00    -0.027 NA
ATOM      4  C   UNL d   1      26.700 -14.666  -0.950  0.00  0.00     0.278 C 
ATOM      5  O   UNL d   1      25.606 -14.745  -1.534  0.00  0.00    -0.269 OA
ATOM      6  N   UNL d   1      27.996 -10.997  -0.755  0.00  0.00    -0.224 N 
ATOM      7  H   UNL d   1      27.843 -11.148  -3.263  0.00  0.00     0.184 HD
ATOM      8  H   UNL d   1      27.857 -10.200  -1.378  0.00  0.00     0.177 HD
ENDROOT
BRANCH   1   9
ATOM      9  C   UNL d   1      27.516 -13.031  -3.847  0.00  0.00     0.082 C 
ATOM     10  C   UNL d   1      28.038 -13.838  -4.850  0.00  0.00     0.033 C 
ATOM     11  C   UNL d   1      27.243 -14.870  -5.471  0.00  0.00     0.002 C 
ATOM     12  C   UNL d   1      25.932 -15.113  -5.085  0.00  0.00     0.003 C 
ATOM     13  C   UNL d   1      25.362 -14.114  -4.329  0.00  0.00     0.039 C 
ATOM     14  C   UNL d   1      26.171 -12.980  -3.901  0.00  0.00     0.096 C 
BRANCH  14  15
ATOM     15  O   UNL d   1      25.910 -11.535  -3.972  0.00  0.00    -0.349 OA
BRANCH  15  16
ATOM     16  C   UNL d   1      25.846 -10.298  -4.960  0.00  0.00     0.171 C 
ATOM     17  C   UNL d   1      24.791  -8.907  -5.403  0.00  0.00     0.034 C 
ENDBRANCH  15  16
ENDBRANCH  14  15
ENDBRANCH   1   9
BRANCH   6  18
ATOM     18  C   UNL d   1      27.445 -10.657   0.602  0.00  0.00     0.142 C 
BRANCH  18  19
ATOM     19  C   UNL d   1      27.112 -11.803   1.555  0.00  0.00     0.057 C 
BRANCH  19  20
ATOM     20  C   UNL d   1      27.405 -11.579   3.032  0.00  0.00    -0.048 A 
ATOM     21  C   UNL d   1      27.773 -12.601   3.802  0.00  0.00    -0.006 A 
ATOM     22  C   UNL d   1      27.989 -13.969   3.476  0.00  0.00     0.014 A 
ATOM     23  C   UNL d   1      27.867 -12.117   5.178  0.00  0.00     0.038 A 
ATOM     24  C   UNL d   1      28.169 -14.836   4.470  0.00  0.00     0.001 A 
ATOM     25  C   UNL d   1      28.295 -14.389   5.848  0.00  0.00     0.002 A 
ATOM     26  C   UNL d   1      28.157 -13.099   6.235  0.00  0.00     0.030 A 
ATOM     27  N   UNL d   1      27.654 -10.833   5.236  0.00  0.00    -0.385 N 
ATOM     28  C   UNL d   1      27.295 -10.325   3.870  0.00  0.00     0.155 A 
ATOM     29  H   UNL d   1      27.741 -10.321   6.102  0.00  0.00     0.160 HD
ENDBRANCH  19  20
ENDBRANCH  18  19
ENDBRANCH   6  18
BRANCH   4  30
ATOM     30  C   UNL d   1      26.225 -15.776  -0.105  0.00  0.00     0.105 C 
ATOM     31  C   UNL d   1      27.244 -16.614   0.233  0.00  0.00    -0.001 C 
ATOM     32  C   UNL d   1      26.928 -17.966   0.449  0.00  0.00    -0.000 C 
ATOM     33  C   UNL d   1      25.588 -18.383   0.393  0.00  0.00     0.029 C 
ATOM     34  C   UNL d   1      24.528 -17.655  -0.149  0.00  0.00     0.027 C 
ATOM     35  C   UNL d   1      24.994 -16.394  -0.556  0.00  0.00     0.028 C 
BRANCH  34  36
ATOM     36  N   UNL d   1      23.236 -17.966  -0.350  0.00  0.00    -0.390 N 
ATOM     37  C   UNL d   1      22.293 -16.868  -0.520  0.00  0.00     0.149 C 
ATOM     38  C   UNL d   1      22.657 -19.323  -0.520  0.00  0.00     0.149 C 
ENDBRANCH  34  36
ENDBRANCH   4  30
TORSDOF 8
ENDMDL
MODEL 2
REMARK VINA RESULT:    -8.939      3.085      7.354
REMARK INTER + INTRA:         -13.748
REMARK INTER:                 -11.325
REMARK INTRA:                  -2.423
REMARK CONF_INDEPENDENT:        2.386
REMARK UNBOUND:                -2.423
REMARK  8 active torsions:
REMARK  status: ('A' for Active; 'I' for Inactive)
REMARK    1  A    between atoms: C_2  and  O_3 
REMARK    2  A    between atoms: O_3  and  C_4 
REMARK    3  A    between atoms: C_9  and  N_10 
REMARK       I    between atoms: N_10  and  C_11 
REMARK       I    between atoms: C_11  and  N_12 
REMARK       I    between atoms: C_11  and  N_24 
REMARK       I    between atoms: N_12  and  C_13 
REMARK    4  A    between atoms: C_13  and  C_15 
REMARK    5  A    between atoms: C_19  and  N_20 
REMARK    6  A    between atoms: N_24  and  C_25 
REMARK    7  A    between atoms: C_25  and  C_26 
REMARK    8  A    between atoms: C_26  and  C_27 
ROOT
ATOM      1  N   UNL d   1      27.895 -15.132   1.940  0.00  0.00    -0.187 N 
ATOM      2  C   UNL d   1      27.802 -14.241   3.154  0.00  0.00     0.704 C 
ATOM      3  N   UNL d   1      27.169 -13.026   3.360  0.00  0.00    -0.027 NA
ATOM      4  C   UNL d   1      27.080 -11.751   2.484  0.00  0.00     0.278 C 
ATOM      5  O   UNL d   1      27.802 -11.276   1.590  0.00  0.00    -0.269 OA
ATOM      6  N   UNL d   1      28.720 -14.838   4.203  0.00  0.00    -0.224 N 
ATOM      7  H   UNL d   1      28.698 -15.754   1.858  0.00  0.00     0.184 HD
ATOM      8  H   UNL d   1      29.370 -15.541   3.847  0.00  0.00     0.177 HD
ENDROOT
BRANCH   1   9
ATOM      9  C   UNL d   1      27.610 -14.594   0.649  0.00  0.00     0.082 C 
ATOM     10  C   UNL d   1      26.631 -13.760   0.121  0.00  0.00     0.033 C 
ATOM     11  C   UNL d   1      26.750 -13.214  -1.209  0.00  0.00     0.002 C 
ATOM     12  C   UNL d   1      27.849 -13.483  -2.013  0.00  0.00     0.003 C 
ATOM     13  C   UNL d   1      28.626 -14.537  -1.590  0.00  0.00     0.039 C 
ATOM     14  C   UNL d   1      28.328 -15.191  -0.322  0.00  0.00     0.096 C 
BRANCH  14  15
ATOM     15  O   UNL d   1      28.191 -16.617   0.012  0.00  0.00    -0.349 OA
BRANCH  15  16
ATOM     16  C   UNL d   1      27.136 -17.774   0.252  0.00  0.00     0.171 C 
ATOM     17  C   UNL d   1      25.375 -18.122   0.102  0.00  0.00     0.034 C 
ENDBRANCH  15  16
ENDBRANCH  14  15
ENDBRANCH   1   9
BRANCH   6  18
ATOM     18  C   UNL d   1      29.366 -14.115   5.351  0.00  0.00     0.142 C 
BRANCH  18  19
ATOM     19  C   UNL d   1      28.905 -14.449   6.768  0.00  0.00     0.057 C 
BRANCH  19  20
ATOM     20  C   UNL d   1      28.828 -13.296   7.759  0.00  0.00    -0.048 A 
ATOM     21  C   UNL d   1      28.819 -13.540   9.068  0.00  0.00    -0.006 A 
ATOM     22  C   UNL d   1      28.902 -14.772   9.776  0.00  0.00     0.014 A 
ATOM     23  C   UNL d   1      28.618 -12.269   9.762  0.00  0.00     0.038 A 
ATOM     24  C   UNL d   1      28.678 -14.763  11.089  0.00  0.00     0.001 A 
ATOM     25  C   UNL d   1      28.500 -13.517  11.817  0.00  0.00     0.002 A 
ATOM     26  C   UNL d   1      28.464 -12.300  11.224  0.00  0.00     0.030 A 
ATOM     27  N   UNL d   1      28.595 -11.276   8.918  0.00  0.00    -0.385 N 
ATOM     28  C   UNL d   1      28.693 -11.809   7.518  0.00  0.00     0.155 A 
ATOM     29  H   UNL d   1      28.527 -10.318   9.230  0.00  0.00     0.160 HD
ENDBRANCH  19  20
ENDBRANCH  18  19
ENDBRANCH   6  18
BRANCH   4  30
ATOM     30  C   UNL d   1      26.653 -10.366   2.749  0.00  0.00     0.105 C 
ATOM     31  C   UNL d   1      26.455  -9.677   1.591  0.00  0.00    -0.001 C 
ATOM     32  C   UNL d   1      26.678  -8.290   1.613  0.00  0.00    -0.000 C 
ATOM     33  C   UNL d   1      27.007  -7.660   2.825  0.00  0.00     0.029 C 
ATOM     34  C   UNL d   1      27.436  -8.301   3.988  0.00  0.00     0.027 C 
ATOM     35  C   UNL d   1      27.404  -9.691   3.789  0.00  0.00     0.028 C 
BRANCH  34  36
ATOM     36  N   UNL d   1      27.867  -7.825   5.169  0.00  0.00    -0.390 N 
ATOM     37  C   UNL d   1      28.867  -8.602   5.888  0.00  0.00     0.149 C 
ATOM     38  C   UNL d   1      27.511  -6.525   5.795  0.00  0.00     0.149 C 
ENDBRANCH  34  36
ENDBRANCH   4  30
TORSDOF 8
ENDMDL
MODEL 3
REMARK VINA RESULT:    -8.879      4.232      6.695
REMARK INTER + INTRA:         -13.921
REMARK INTER:                 -11.265
REMARK INTRA:                  -2.656
REMARK CONF_INDEPENDENT:        2.386
REMARK UNBOUND:                -2.656
REMARK  8 active torsions:
REMARK  status: ('A' for Active; 'I' for Inactive)
REMARK    1  A    between atoms: C_2  and  O_3 
REMARK    2  A    between atoms: O_3  and  C_4 
REMARK    3  A    between atoms: C_9  and  N_10 
REMARK       I    between atoms: N_10  and  C_11 
REMARK       I    between atoms: C_11  and  N_12 
REMARK       I    between atoms: C_11  and  N_24 
REMARK       I    between atoms: N_12  and  C_13 
REMARK    4  A    between atoms: C_13  and  C_15 
REMARK    5  A    between atoms: C_19  and  N_20 
REMARK    6  A    between atoms: N_24  and  C_25 
REMARK    7  A    between atoms: C_25  and  C_26 
REMARK    8  A    between atoms: C_26  and  C_27 
ROOT
ATOM      1  N   UNL d   1      26.686 -11.612  -5.737  0.00  0.00    -0.187 N 
ATOM      2  C   UNL d   1      26.765 -12.706  -4.700  0.00  0.00     0.704 C 
ATOM      3  N   UNL d   1      27.662 -13.746  -4.524  0.00  0.00    -0.027 NA
ATOM      4  C   UNL d   1      28.309 -14.729  -5.531  0.00  0.00     0.278 C 
ATOM      5  O   UNL d   1      27.973 -15.149  -6.651  0.00  0.00    -0.269 OA
ATOM      6  N   UNL d   1      25.505 -12.601  -3.862  0.00  0.00    -0.224 N 
ATOM      7  H   UNL d   1      25.775 -11.201  -5.937  0.00  0.00     0.184 HD
ATOM      8  H   UNL d   1      24.773 -12.014  -4.268  0.00  0.00     0.177 HD
ENDROOT
BRANCH   1   9
ATOM      9  C   UNL d   1      27.393 -11.759  -6.969  0.00  0.00     0.082 C 
ATOM     10  C   UNL d   1      28.632 -12.265  -7.342  0.00  0.00     0.033 C 
ATOM     11  C   UNL d   1      28.969 -12.476  -8.729  0.00  0.00     0.002 C 
ATOM     12  C   UNL d   1      28.069 -12.197  -9.749  0.00  0.00     0.003 C 
ATOM     13  C   UNL d   1      26.997 -11.421  -9.372  0.00  0.00     0.039 C 
ATOM     14  C   UNL d   1      26.820 -11.064  -7.971  0.00  0.00     0.096 C 
BRANCH  14  15
ATOM     15  O   UNL d   1      26.547  -9.763  -7.341  0.00  0.00    -0.349 OA
BRANCH  15  16
ATOM     16  C   UNL d   1      25.463  -8.946  -6.524  0.00  0.00     0.171 C 
ATOM     17  C   UNL d   1      24.782  -8.786  -4.864  0.00  0.00     0.034 C 
ENDBRANCH  15  16
ENDBRANCH  14  15
ENDBRANCH   1   9
BRANCH   6  18
ATOM     18  C   UNL d   1      24.861 -13.700  -3.064  0.00  0.00     0.142 C 
BRANCH  18  19
ATOM     19  C   UNL d   1      25.312 -15.137  -3.318  0.00  0.00     0.057 C 
BRANCH  19  20
ATOM     20  C   UNL d   1      25.999 -15.858  -2.167  0.00  0.00    -0.048 A 
ATOM     21  C   UNL d   1      25.347 -16.792  -1.479  0.00  0.00    -0.006 A 
ATOM     22  C   UNL d   1      24.031 -17.308  -1.645  0.00  0.00     0.014 A 
ATOM     23  C   UNL d   1      26.202 -17.218  -0.372  0.00  0.00     0.038 A 
ATOM     24  C   UNL d   1      23.541 -18.110  -0.701  0.00  0.00     0.001 A 
ATOM     25  C   UNL d   1      24.370 -18.575   0.399  0.00  0.00     0.002 A 
ATOM     26  C   UNL d   1      25.649 -18.175   0.598  0.00  0.00     0.030 A 
ATOM     27  N   UNL d   1      27.366 -16.634  -0.432  0.00  0.00    -0.385 N 
ATOM     28  C   UNL d   1      27.376 -15.658  -1.573  0.00  0.00     0.155 A 
ATOM     29  H   UNL d   1      28.104 -16.858   0.219  0.00  0.00     0.160 HD
ENDBRANCH  19  20
ENDBRANCH  18  19
ENDBRANCH   6  18
BRANCH   4  30
ATOM     30  C   UNL d   1      29.052 -15.993  -5.381  0.00  0.00     0.105 C 
ATOM     31  C   UNL d   1      29.546 -16.131  -4.120  0.00  0.00    -0.001 C 
ATOM     32  C   UNL d   1      30.735 -16.864  -3.964  0.00  0.00    -0.000 C 
ATOM     33  C   UNL d   1      31.316 -17.488  -5.080  0.00  0.00     0.029 C 
ATOM     34  C   UNL d   1      31.007 -17.224  -6.416  0.00  0.00     0.027 C 
ATOM     35  C   UNL d   1      29.956 -16.294  -6.473  0.00  0.00     0.028 C 
BRANCH  34  36
ATOM     36  N   UNL d   1      31.542 -17.671  -7.566  0.00  0.00    -0.390 N 
ATOM     37  C   UNL d   1      32.577 -16.858  -8.191  0.00  0.00     0.149 C 
ATOM     38  C   UNL d   1      31.267 -18.967  -8.239  0.00  0.00     0.149 C 
ENDBRANCH  34  36
ENDBRANCH   4  30
TORSDOF 8
ENDMDL
MODEL 4
REMARK VINA RESULT:    -8.471      2.052      7.621
REMARK INTER + INTRA:         -14.194
REMARK INTER:                 -10.857
REMARK INTRA:                  -3.337
REMARK CONF_INDEPENDENT:        2.386
REMARK UNBOUND:                -3.337
REMARK  8 active torsions:
REMARK  status: ('A' for Active; 'I' for Inactive)
REMARK    1  A    between atoms: C_2  and  O_3 
REMARK    2  A    between atoms: O_3  and  C_4 
REMARK    3  A    between atoms: C_9  and  N_10 
REMARK       I    between atoms: N_10  and  C_11 
REMARK       I    between atoms: C_11  and  N_12 
REMARK       I    between atoms: C_11  and  N_24 
REMARK       I    between atoms: N_12  and  C_13 
REMARK    4  A    between atoms: C_13  and  C_15 
REMARK    5  A    between atoms: C_19  and  N_20 
REMARK    6  A    between atoms: N_24  and  C_25 
REMARK    7  A    between atoms: C_25  and  C_26 
REMARK    8  A    between atoms: C_26  and  C_27 
ROOT
ATOM      1  N   UNL d   1      29.639 -14.250   1.663  0.00  0.00    -0.187 N 
ATOM      2  C   UNL d   1      29.392 -14.774   0.270  0.00  0.00     0.704 C 
ATOM      3  N   UNL d   1      28.861 -14.174  -0.861  0.00  0.00    -0.027 NA
ATOM      4  C   UNL d   1      27.638 -13.243  -1.053  0.00  0.00     0.278 C 
ATOM      5  O   UNL d   1      26.589 -13.066  -0.411  0.00  0.00    -0.269 OA
ATOM      6  N   UNL d   1      29.696 -16.260   0.305  0.00  0.00    -0.224 N 
ATOM      7  H   UNL d   1      29.657 -14.916   2.434  0.00  0.00     0.184 HD
ATOM      8  H   UNL d   1      29.772 -16.655   1.243  0.00  0.00     0.177 HD
ENDROOT
BRANCH   1   9
ATOM      9  C   UNL d   1      28.958 -13.074   2.103  0.00  0.00     0.082 C 
ATOM     10  C   UNL d   1      29.338 -11.780   2.434  0.00  0.00     0.033 C 
ATOM     11  C   UNL d   1      28.359 -10.739   2.636  0.00  0.00     0.002 C 
ATOM     12  C   UNL d   1      26.999 -10.979   2.493  0.00  0.00     0.003 C 
ATOM     13  C   UNL d   1      26.651 -12.311   2.475  0.00  0.00     0.039 C 
ATOM     14  C   UNL d   1      27.691 -13.330   2.482  0.00  0.00     0.096 C 
BRANCH  14  15
ATOM     15  O   UNL d   1      27.844 -14.538   3.307  0.00  0.00    -0.349 OA
BRANCH  15  16
ATOM     16  C   UNL d   1      28.324 -15.061   4.724  0.00  0.00     0.171 C 
ATOM     17  C   UNL d   1      28.924 -14.461   6.312  0.00  0.00     0.034 C 
ENDBRANCH  15  16
ENDBRANCH  14  15
ENDBRANCH   1   9
BRANCH   6  18
ATOM     18  C   UNL d   1      29.157 -17.311  -0.625  0.00  0.00     0.142 C 
BRANCH  18  19
ATOM     19  C   UNL d   1      27.755 -17.857  -0.363  0.00  0.00     0.057 C 
BRANCH  19  20
ATOM     20  C   UNL d   1      26.588 -17.068  -0.940  0.00  0.00    -0.048 A 
ATOM     21  C   UNL d   1      25.350 -17.294  -0.506  0.00  0.00    -0.006 A 
ATOM     22  C   UNL d   1      24.873 -18.185   0.495  0.00  0.00     0.014 A 
ATOM     23  C   UNL d   1      24.435 -16.489  -1.314  0.00  0.00     0.038 A 
ATOM     24  C   UNL d   1      23.558 -18.363   0.610  0.00  0.00     0.001 A 
ATOM     25  C   UNL d   1      22.618 -17.562  -0.157  0.00  0.00     0.002 A 
ATOM     26  C   UNL d   1      22.991 -16.654  -1.090  0.00  0.00     0.030 A 
ATOM     27  N   UNL d   1      25.092 -15.733  -2.148  0.00  0.00    -0.385 N 
ATOM     28  C   UNL d   1      26.560 -16.032  -2.041  0.00  0.00     0.155 A 
ATOM     29  H   UNL d   1      24.621 -15.066  -2.742  0.00  0.00     0.160 HD
ENDBRANCH  19  20
ENDBRANCH  18  19
ENDBRANCH   6  18
BRANCH   4  30
ATOM     30  C   UNL d   1      26.884 -12.791  -2.235  0.00  0.00     0.105 C 
ATOM     31  C   UNL d   1      27.327 -13.399  -3.370  0.00  0.00    -0.001 C 
ATOM     32  C   UNL d   1      27.215 -12.686  -4.576  0.00  0.00    -0.000 C 
ATOM     33  C   UNL d   1      26.584 -11.432  -4.583  0.00  0.00     0.029 C 
ATOM     34  C   UNL d   1      26.301 -10.653  -3.460  0.00  0.00     0.027 C 
ATOM     35  C   UNL d   1      26.670 -11.359  -2.303  0.00  0.00     0.028 C 
BRANCH  34  36
ATOM     36  N   UNL d   1      25.796  -9.414  -3.331  0.00  0.00    -0.390 N 
ATOM     37  C   UNL d   1      24.907  -8.931  -4.379  0.00  0.00     0.149 C 
ATOM     38  C   UNL d   1      25.963  -8.494  -2.175  0.00  0.00     0.149 C 
ENDBRANCH  34  36
ENDBRANCH   4  30
TORSDOF 8
ENDMDL
MODEL 5
REMARK VINA RESULT:    -8.444      2.154      7.403
REMARK INTER + INTRA:         -15.010
REMARK INTER:                 -10.831
REMARK INTRA:                  -4.179
REMARK CONF_INDEPENDENT:        2.386
REMARK UNBOUND:                -4.179
REMARK  8 active torsions:
REMARK  status: ('A' for Active; 'I' for Inactive)
REMARK    1  A    between atoms: C_2  and  O_3 
REMARK    2  A    between atoms: O_3  and  C_4 
REMARK    3  A    between atoms: C_9  and  N_10 
REMARK       I    between atoms: N_10  and  C_11 
REMARK       I    between atoms: C_11  and  N_12 
REMARK       I    between atoms: C_11  and  N_24 
REMARK       I    between atoms: N_12  and  C_13 
REMARK    4  A    between atoms: C_13  and  C_15 
REMARK    5  A    between atoms: C_19  and  N_20 
REMARK    6  A    between atoms: N_24  and  C_25 
REMARK    7  A    between atoms: C_25  and  C_26 
REMARK    8  A    between atoms: C_26  and  C_27 
ROOT
ATOM      1  N   UNL d   1      29.712 -14.241   1.770  0.00  0.00    -0.187 N 
ATOM      2  C   UNL d   1      29.813 -14.739   0.349  0.00  0.00     0.704 C 
ATOM      3  N   UNL d   1      29.493 -14.145  -0.861  0.00  0.00    -0.027 NA
ATOM      4  C   UNL d   1      28.272 -13.300  -1.302  0.00  0.00     0.278 C 
ATOM      5  O   UNL d   1      27.098 -13.220  -0.901  0.00  0.00    -0.269 OA
ATOM      6  N   UNL d   1      30.216 -16.199   0.428  0.00  0.00    -0.224 N 
ATOM      7  H   UNL d   1      29.615 -14.928   2.516  0.00  0.00     0.184 HD
ATOM      8  H   UNL d   1      30.118 -16.617   1.355  0.00  0.00     0.177 HD
ENDROOT
BRANCH   1   9
ATOM      9  C   UNL d   1      28.863 -13.132   2.068  0.00  0.00     0.082 C 
ATOM     10  C   UNL d   1      29.063 -11.795   2.387  0.00  0.00     0.033 C 
ATOM     11  C   UNL d   1      27.964 -10.859   2.417  0.00  0.00     0.002 C 
ATOM     12  C   UNL d   1      26.667 -11.248   2.114  0.00  0.00     0.003 C 
ATOM     13  C   UNL d   1      26.461 -12.609   2.110  0.00  0.00     0.039 C 
ATOM     14  C   UNL d   1      27.590 -13.511   2.294  0.00  0.00     0.096 C 
BRANCH  14  15
ATOM     15  O   UNL d   1      27.756 -14.670   3.184  0.00  0.00    -0.349 OA
BRANCH  15  16
ATOM     16  C   UNL d   1      28.148 -15.098   4.659  0.00  0.00     0.171 C 
ATOM     17  C   UNL d   1      28.924 -14.451   6.149  0.00  0.00     0.034 C 
ENDBRANCH  15  16
ENDBRANCH  14  15
ENDBRANCH   1   9
BRANCH   6  18
ATOM     18  C   UNL d   1      29.973 -17.258  -0.611  0.00  0.00     0.142 C 
BRANCH  18  19
ATOM     19  C   UNL d   1      28.697 -17.172  -1.446  0.00  0.00     0.057 C 
BRANCH  19  20
ATOM     20  C   UNL d   1      27.388 -17.498  -0.741  0.00  0.00    -0.048 A 
ATOM     21  C   UNL d   1      26.246 -16.972  -1.176  0.00  0.00    -0.006 A 
ATOM     22  C   UNL d   1      25.989 -16.114  -2.283  0.00  0.00     0.014 A 
ATOM     23  C   UNL d   1      25.187 -17.358  -0.246  0.00  0.00     0.038 A 
ATOM     24  C   UNL d   1      24.779 -15.569  -2.395  0.00  0.00     0.001 A 
ATOM     25  C   UNL d   1      23.695 -15.950  -1.504  0.00  0.00     0.002 A 
ATOM     26  C   UNL d   1      23.843 -16.802  -0.461  0.00  0.00     0.030 A 
ATOM     27  N   UNL d   1      25.644 -18.162   0.672  0.00  0.00    -0.385 N 
ATOM     28  C   UNL d   1      27.126 -18.330   0.495  0.00  0.00     0.155 A 
ATOM     29  H   UNL d   1      25.036 -18.578   1.363  0.00  0.00     0.160 HD
ENDBRANCH  19  20
ENDBRANCH  18  19
ENDBRANCH   6  18
BRANCH   4  30
ATOM     30  C   UNL d   1      27.757 -12.868  -2.613  0.00  0.00     0.105 C 
ATOM     31  C   UNL d   1      26.421 -12.608  -2.561  0.00  0.00    -0.001 C 
ATOM     32  C   UNL d   1      25.673 -12.814  -3.733  0.00  0.00    -0.000 C 
ATOM     33  C   UNL d   1      26.328 -13.191  -4.916  0.00  0.00     0.029 C 
ATOM     34  C   UNL d   1      27.632 -13.681  -5.008  0.00  0.00     0.027 C 
ATOM     35  C   UNL d   1      28.225 -13.658  -3.735  0.00  0.00     0.028 C 
BRANCH  34  36
ATOM     36  N   UNL d   1      28.340 -14.160  -6.045  0.00  0.00    -0.390 N 
ATOM     37  C   UNL d   1      28.518 -13.294  -7.203  0.00  0.00     0.149 C 
ATOM     38  C   UNL d   1      29.058 -15.459  -6.116  0.00  0.00     0.149 C 
ENDBRANCH  34  36
ENDBRANCH   4  30
TORSDOF 8
ENDMDL
MODEL 6
REMARK VINA RESULT:    -7.598      2.003      7.038
REMARK INTER + INTRA:         -13.748
REMARK INTER:                  -9.984
REMARK INTRA:                  -3.764
REMARK CONF_INDEPENDENT:        2.386
REMARK UNBOUND:                -3.764
REMARK  8 active torsions:
REMARK  status: ('A' for Active; 'I' for Inactive)
REMARK    1  A    between atoms: C_2  and  O_3 
REMARK    2  A    between atoms: O_3  and  C_4 
REMARK    3  A    between atoms: C_9  and  N_10 
REMARK       I    between atoms: N_10  and  C_11 
REMARK       I    between atoms: C_11  and  N_12 
REMARK       I    between atoms: C_11  and  N_24 
REMARK       I    between atoms: N_12  and  C_13 
REMARK    4  A    between atoms: C_13  and  C_15 
REMARK    5  A    between atoms: C_19  and  N_20 
REMARK    6  A    between atoms: N_24  and  C_25 
REMARK    7  A    between atoms: C_25  and  C_26 
REMARK    8  A    between atoms: C_26  and  C_27 
ROOT
ATOM      1  N   UNL d   1      27.602 -16.349  -2.016  0.00  0.00    -0.187 N 
ATOM      2  C   UNL d   1      28.373 -15.247  -1.330  0.00  0.00     0.704 C 
ATOM      3  N   UNL d   1      28.295 -14.727  -0.049  0.00  0.00    -0.027 NA
ATOM      4  C   UNL d   1      27.081 -14.356   0.839  0.00  0.00     0.278 C 
ATOM      5  O   UNL d   1      25.905 -14.040   0.591  0.00  0.00    -0.269 OA
ATOM      6  N   UNL d   1      29.245 -14.603  -2.391  0.00  0.00    -0.224 N 
ATOM      7  H   UNL d   1      27.520 -16.321  -3.031  0.00  0.00     0.184 HD
ATOM      8  H   UNL d   1      28.997 -14.848  -3.351  0.00  0.00     0.177 HD
ENDROOT
BRANCH   1   9
ATOM      9  C   UNL d   1      26.350 -16.772  -1.476  0.00  0.00     0.082 C 
ATOM     10  C   UNL d   1      25.922 -17.840  -0.696  0.00  0.00     0.033 C 
ATOM     11  C   UNL d   1      24.598 -17.866  -0.122  0.00  0.00     0.002 C 
ATOM     12  C   UNL d   1      23.702 -16.823  -0.309  0.00  0.00     0.003 C 
ATOM     13  C   UNL d   1      24.038 -15.951  -1.319  0.00  0.00     0.039 C 
ATOM     14  C   UNL d   1      25.311 -16.102  -2.011  0.00  0.00     0.096 C 
BRANCH  14  15
ATOM     15  O   UNL d   1      25.625 -16.123  -3.447  0.00  0.00    -0.349 OA
BRANCH  15  16
ATOM     16  C   UNL d   1      26.099 -15.221  -4.661  0.00  0.00     0.171 C 
ATOM     17  C   UNL d   1      27.571 -14.806  -5.611  0.00  0.00     0.034 C 
ENDBRANCH  15  16
ENDBRANCH  14  15
ENDBRANCH   1   9
BRANCH   6  18
ATOM     18  C   UNL d   1      29.801 -13.207  -2.373  0.00  0.00     0.142 C 
BRANCH  18  19
ATOM     19  C   UNL d   1      28.836 -12.047  -2.132  0.00  0.00     0.057 C 
BRANCH  19  20
ATOM     20  C   UNL d   1      27.545 -12.046  -2.939  0.00  0.00    -0.048 A 
ATOM     21  C   UNL d   1      27.549 -11.633  -4.205  0.00  0.00    -0.006 A 
ATOM     22  C   UNL d   1      28.623 -11.182  -5.023  0.00  0.00     0.014 A 
ATOM     23  C   UNL d   1      26.168 -11.627  -4.682  0.00  0.00     0.038 A 
ATOM     24  C   UNL d   1      28.334 -10.640  -6.205  0.00  0.00     0.001 A 
ATOM     25  C   UNL d   1      26.975 -10.640  -6.723  0.00  0.00     0.002 A 
ATOM     26  C   UNL d   1      25.907 -11.101  -6.030  0.00  0.00     0.030 A 
ATOM     27  N   UNL d   1      25.360 -12.102  -3.777  0.00  0.00    -0.385 N 
ATOM     28  C   UNL d   1      26.134 -12.401  -2.525  0.00  0.00     0.155 A 
ATOM     29  H   UNL d   1      24.375 -12.228  -3.959  0.00  0.00     0.160 HD
ENDBRANCH  19  20
ENDBRANCH  18  19
ENDBRANCH   6  18
BRANCH   4  30
ATOM     30  C   UNL d   1      26.933 -13.575   2.080  0.00  0.00     0.105 C 
ATOM     31  C   UNL d   1      26.893 -12.238   1.824  0.00  0.00    -0.001 C 
ATOM     32  C   UNL d   1      27.386 -11.372   2.814  0.00  0.00    -0.000 C 
ATOM     33  C   UNL d   1      27.815 -11.897   4.044  0.00  0.00     0.029 C 
ATOM     34  C   UNL d   1      28.089 -13.240   4.307  0.00  0.00     0.027 C 
ATOM     35  C   UNL d   1      27.786 -14.006   3.170  0.00  0.00     0.028 C 
BRANCH  34  36
ATOM     36  N   UNL d   1      28.589 -13.858   5.392  0.00  0.00    -0.390 N 
ATOM     37  C   UNL d   1      29.354 -15.080   5.183  0.00  0.00     0.149 C 
ATOM     38  C   UNL d   1      28.534 -13.384   6.799  0.00  0.00     0.149 C 
ENDBRANCH  34  36
ENDBRANCH   4  30
TORSDOF 8
ENDMDL
MODEL 7
REMARK VINA RESULT:    -6.830      2.321      7.783
REMARK INTER + INTRA:         -13.767
REMARK INTER:                  -9.217
REMARK INTRA:                  -4.550
REMARK CONF_INDEPENDENT:        2.386
REMARK UNBOUND:                -4.550
REMARK  8 active torsions:
REMARK  status: ('A' for Active; 'I' for Inactive)
REMARK    1  A    between atoms: C_2  and  O_3 
REMARK    2  A    between atoms: O_3  and  C_4 
REMARK    3  A    between atoms: C_9  and  N_10 
REMARK       I    between atoms: N_10  and  C_11 
REMARK       I    between atoms: C_11  and  N_12 
REMARK       I    between atoms: C_11  and  N_24 
REMARK       I    between atoms: N_12  and  C_13 
REMARK    4  A    between atoms: C_13  and  C_15 
REMARK    5  A    between atoms: C_19  and  N_20 
REMARK    6  A    between atoms: N_24  and  C_25 
REMARK    7  A    between atoms: C_25  and  C_26 
REMARK    8  A    between atoms: C_26  and  C_27 
ROOT
ATOM      1  N   UNL d   1      29.640 -14.524   1.647  0.00  0.00    -0.187 N 
ATOM      2  C   UNL d   1      29.843 -14.974   0.221  0.00  0.00     0.704 C 
ATOM      3  N   UNL d   1      29.740 -14.297  -0.983  0.00  0.00    -0.027 NA
ATOM      4  C   UNL d   1      28.689 -13.288  -1.509  0.00  0.00     0.278 C 
ATOM      5  O   UNL d   1      27.495 -13.076  -1.235  0.00  0.00    -0.269 OA
ATOM      6  N   UNL d   1      30.055 -16.476   0.266  0.00  0.00    -0.224 N 
ATOM      7  H   UNL d   1      29.376 -15.222   2.341  0.00  0.00     0.184 HD
ATOM      8  H   UNL d   1      29.801 -16.914   1.153  0.00  0.00     0.177 HD
ENDROOT
BRANCH   1   9
ATOM      9  C   UNL d   1      28.903 -13.329   1.909  0.00  0.00     0.082 C 
ATOM     10  C   UNL d   1      29.228 -11.992   2.104  0.00  0.00     0.033 C 
ATOM     11  C   UNL d   1      28.210 -10.970   2.130  0.00  0.00     0.002 C 
ATOM     12  C   UNL d   1      26.868 -11.273   1.948  0.00  0.00     0.003 C 
ATOM     13  C   UNL d   1      26.558 -12.608   2.071  0.00  0.00     0.039 C 
ATOM     14  C   UNL d   1      27.626 -13.583   2.252  0.00  0.00     0.096 C 
BRANCH  14  15
ATOM     15  O   UNL d   1      27.768 -14.680   3.221  0.00  0.00    -0.349 OA
BRANCH  15  16
ATOM     16  C   UNL d   1      28.158 -15.013   4.720  0.00  0.00     0.171 C 
ATOM     17  C   UNL d   1      29.161 -14.392   6.081  0.00  0.00     0.034 C 
ENDBRANCH  15  16
ENDBRANCH  14  15
ENDBRANCH   1   9
BRANCH   6  18
ATOM     18  C   UNL d   1      29.807 -17.453  -0.849  0.00  0.00     0.142 C 
BRANCH  18  19
ATOM     19  C   UNL d   1      28.948 -17.002  -2.028  0.00  0.00     0.057 C 
BRANCH  19  20
ATOM     20  C   UNL d   1      27.556 -16.476  -1.706  0.00  0.00    -0.048 A 
ATOM     21  C   UNL d   1      26.863 -15.813  -2.628  0.00  0.00    -0.006 A 
ATOM     22  C   UNL d   1      27.190 -15.499  -3.978  0.00  0.00     0.014 A 
ATOM     23  C   UNL d   1      25.631 -15.330  -2.007  0.00  0.00     0.038 A 
ATOM     24  C   UNL d   1      26.402 -14.654  -4.640  0.00  0.00     0.001 A 
ATOM     25  C   UNL d   1      25.156 -14.174  -4.064  0.00  0.00     0.002 A 
ATOM     26  C   UNL d   1      24.746 -14.470  -2.808  0.00  0.00     0.030 A 
ATOM     27  N   UNL d   1      25.531 -15.756  -0.780  0.00  0.00    -0.385 N 
ATOM     28  C   UNL d   1      26.771 -16.520  -0.414  0.00  0.00     0.155 A 
ATOM     29  H   UNL d   1      24.712 -15.569  -0.219  0.00  0.00     0.160 HD
ENDBRANCH  19  20
ENDBRANCH  18  19
ENDBRANCH   6  18
BRANCH   4  30
ATOM     30  C   UNL d   1      28.384 -12.743  -2.844  0.00  0.00     0.105 C 
ATOM     31  C   UNL d   1      29.507 -12.647  -3.608  0.00  0.00    -0.001 C 
ATOM     32  C   UNL d   1      29.549 -11.627  -4.575  0.00  0.00    -0.000 C 
ATOM     33  C   UNL d   1      28.423 -10.813  -4.773  0.00  0.00     0.029 C 
ATOM     34  C   UNL d   1      27.334 -10.699  -3.908  0.00  0.00     0.027 C 
ATOM     35  C   UNL d   1      27.497 -11.596  -2.839  0.00  0.00     0.028 C 
BRANCH  34  36
ATOM     36  N   UNL d   1      26.252  -9.902  -3.926  0.00  0.00    -0.390 N 
ATOM     37  C   UNL d   1      25.530  -9.768  -5.185  0.00  0.00     0.149 C 
ATOM     38  C   UNL d   1      25.634  -9.202  -2.770  0.00  0.00     0.149 C 
ENDBRANCH  34  36
ENDBRANCH   4  30
TORSDOF 8
ENDMDL
MODEL 8
REMARK VINA RESULT:    -6.607      2.725      7.351
REMARK INTER + INTRA:         -14.057
REMARK INTER:                  -8.993
REMARK INTRA:                  -5.064
REMARK CONF_INDEPENDENT:        2.386
REMARK UNBOUND:                -5.064
REMARK  8 active torsions:
REMARK  status: ('A' for Active; 'I' for Inactive)
REMARK    1  A    between atoms: C_2  and  O_3 
REMARK    2  A    between atoms: O_3  and  C_4 
REMARK    3  A    between atoms: C_9  and  N_10 
REMARK       I    between atoms: N_10  and  C_11 
REMARK       I    between atoms: C_11  and  N_12 
REMARK       I    between atoms: C_11  and  N_24 
REMARK       I    between atoms: N_12  and  C_13 
REMARK    4  A    between atoms: C_13  and  C_15 
REMARK    5  A    between atoms: C_19  and  N_20 
REMARK    6  A    between atoms: N_24  and  C_25 
REMARK    7  A    between atoms: C_25  and  C_26 
REMARK    8  A    between atoms: C_26  and  C_27 
ROOT
ATOM      1  N   UNL d   1      29.579 -16.155   0.605  0.00  0.00    -0.187 N 
ATOM      2  C   UNL d   1      28.847 -16.989  -0.418  0.00  0.00     0.704 C 
ATOM      3  N   UNL d   1      28.976 -17.083  -1.794  0.00  0.00    -0.027 NA
ATOM      4  C   UNL d   1      29.159 -16.001  -2.887  0.00  0.00     0.278 C 
ATOM      5  O   UNL d   1      28.870 -14.794  -2.951  0.00  0.00    -0.269 OA
ATOM      6  N   UNL d   1      27.716 -17.683   0.317  0.00  0.00    -0.224 N 
ATOM      7  H   UNL d   1      29.100 -15.927   1.475  0.00  0.00     0.184 HD
ATOM      8  H   UNL d   1      27.518 -17.305   1.245  0.00  0.00     0.177 HD
ENDROOT
BRANCH   1   9
ATOM      9  C   UNL d   1      30.311 -15.005   0.181  0.00  0.00     0.082 C 
ATOM     10  C   UNL d   1      31.657 -14.681   0.061  0.00  0.00     0.033 C 
ATOM     11  C   UNL d   1      32.082 -13.483  -0.623  0.00  0.00     0.002 C 
ATOM     12  C   UNL d   1      31.170 -12.612  -1.202  0.00  0.00     0.003 C 
ATOM     13  C   UNL d   1      29.866 -12.795  -0.801  0.00  0.00     0.039 C 
ATOM     14  C   UNL d   1      29.528 -13.915   0.067  0.00  0.00     0.096 C 
BRANCH  14  15
ATOM     15  O   UNL d   1      28.734 -13.963   1.304  0.00  0.00    -0.349 OA
BRANCH  15  16
ATOM     16  C   UNL d   1      28.836 -13.933   2.885  0.00  0.00     0.171 C 
ATOM     17  C   UNL d   1      28.156 -14.728   4.351  0.00  0.00     0.034 C 
ENDBRANCH  15  16
ENDBRANCH  14  15
ENDBRANCH   1   9
BRANCH   6  18
ATOM     18  C   UNL d   1      26.438 -18.200  -0.281  0.00  0.00     0.142 C 
BRANCH  18  19
ATOM     19  C   UNL d   1      25.553 -17.223  -1.052  0.00  0.00     0.057 C 
BRANCH  19  20
ATOM     20  C   UNL d   1      25.904 -15.745  -0.949  0.00  0.00    -0.048 A 
ATOM     21  C   UNL d   1      25.879 -14.976  -2.035  0.00  0.00    -0.006 A 
ATOM     22  C   UNL d   1      25.530 -15.290  -3.379  0.00  0.00     0.014 A 
ATOM     23  C   UNL d   1      26.372 -13.652  -1.662  0.00  0.00     0.038 A 
ATOM     24  C   UNL d   1      25.771 -14.383  -4.324  0.00  0.00     0.001 A 
ATOM     25  C   UNL d   1      26.237 -13.047  -3.987  0.00  0.00     0.002 A 
ATOM     26  C   UNL d   1      26.538 -12.652  -2.728  0.00  0.00     0.030 A 
ATOM     27  N   UNL d   1      26.605 -13.586  -0.381  0.00  0.00    -0.385 N 
ATOM     28  C   UNL d   1      26.368 -14.933   0.239  0.00  0.00     0.155 A 
ATOM     29  H   UNL d   1      26.894 -12.725   0.061  0.00  0.00     0.160 HD
ENDBRANCH  19  20
ENDBRANCH  18  19
ENDBRANCH   6  18
BRANCH   4  30
ATOM     30  C   UNL d   1      29.045 -16.013  -4.356  0.00  0.00     0.105 C 
ATOM     31  C   UNL d   1      29.886 -16.929  -4.911  0.00  0.00    -0.001 C 
ATOM     32  C   UNL d   1      30.380 -16.661  -6.200  0.00  0.00    -0.000 C 
ATOM     33  C   UNL d   1      29.932 -15.523  -6.890  0.00  0.00     0.029 C 
ATOM     34  C   UNL d   1      29.256 -14.439  -6.328  0.00  0.00     0.027 C 
ATOM     35  C   UNL d   1      29.013 -14.700  -4.969  0.00  0.00     0.028 C 
BRANCH  34  36
ATOM     36  N   UNL d   1      28.860 -13.263  -6.844  0.00  0.00    -0.390 N 
ATOM     37  C   UNL d   1      28.741 -12.130  -5.935  0.00  0.00     0.149 C 
ATOM     38  C   UNL d   1      28.615 -12.949  -8.275  0.00  0.00     0.149 C 
ENDBRANCH  34  36
ENDBRANCH   4  30
TORSDOF 8
ENDMDL
