MODEL 1
REMARK VINA RESULT:    -8.833      0.000      0.000
REMARK INTER + INTRA:         -11.235
REMARK INTER:                 -10.324
REMARK INTRA:                  -0.911
REMARK CONF_INDEPENDENT:        1.492
REMARK UNBOUND:                -0.911
REMARK  5 active torsions:
REMARK  status: ('A' for Active; 'I' for Inactive)
REMARK    1  A    between atoms: C_8  and  C_9 
REMARK    2  A    between atoms: C_9  and  C_10 
REMARK    3  A    between atoms: C_10  and  N_11 
REMARK    4  A    between atoms: C_16  and  C_15 
REMARK    5  A    between atoms: C_25  and  N_26 
ROOT
ATOM      1  N   UNL d   1      27.470 -15.989  -0.315  0.00  0.00    -0.359 N 
ATOM      2  C   UNL d   1      26.668 -14.909   0.203  0.00  0.00     0.208 C 
ATOM      3  C   UNL d   1      27.783 -14.027   0.756  0.00  0.00     0.179 C 
ATOM      4  O   UNL d   1      27.735 -12.838   0.593  0.00  0.00    -0.291 OA
ATOM      5  C   UNL d   1      28.995 -14.856   1.219  0.00  0.00     0.076 C 
ATOM      6  C   UNL d   1      28.778 -15.906   0.303  0.00  0.00     0.110 C 
ENDROOT
BRANCH   1   7
ATOM      7  C   UNL d   1      26.853 -16.833  -1.396  0.00  0.00     0.129 C 
BRANCH   7   8
ATOM      8  C   UNL d   1      25.506 -16.233  -1.958  0.00  0.00     0.056 C 
BRANCH   8   9
ATOM      9  C   UNL d   1      25.553 -15.119  -2.993  0.00  0.00    -0.048 A 
ATOM     10  C   UNL d   1      26.531 -14.907  -3.895  0.00  0.00    -0.005 A 
ATOM     11  C   UNL d   1      26.133 -13.705  -4.657  0.00  0.00     0.038 A 
ATOM     12  C   UNL d   1      27.754 -15.574  -4.199  0.00  0.00     0.020 A 
ATOM     13  C   UNL d   1      27.034 -13.216  -5.722  0.00  0.00     0.030 A 
ATOM     14  N   UNL d   1      25.013 -13.243  -4.254  0.00  0.00    -0.385 N 
ATOM     15  C   UNL d   1      28.172 -13.907  -5.939  0.00  0.00     0.009 A 
ATOM     16  C   UNL d   1      28.548 -15.101  -5.179  0.00  0.00    -0.061 A 
ATOM     17  C   UNL d   1      29.841 -15.800  -5.500  0.00  0.00     0.048 C 
ATOM     18  C   UNL d   1      24.484 -14.075  -3.148  0.00  0.00     0.155 A 
ATOM     19  H   UNL d   1      24.570 -12.415  -4.653  0.00  0.00     0.160 HD
ENDBRANCH   8   9
ENDBRANCH   7   8
ENDBRANCH   1   7
BRANCH   6  20
ATOM     20  N   UNL d   1      29.679 -16.842  -0.071  0.00  0.00    -0.385 N 
ATOM     21  H   UNL d   1      29.974 -16.959  -1.029  0.00  0.00     0.157 HD
ATOM     22  H   UNL d   1      30.043 -17.474   0.629  0.00  0.00     0.157 HD
ENDBRANCH   6  20
BRANCH   5  23
ATOM     23  C   UNL d   1      30.298 -14.236   2.135  0.00  0.00     0.329 C 
ATOM     24  N   UNL d   1      30.834 -14.824   3.602  0.00  0.00     0.124 N 
ATOM     25  C   UNL d   1      30.312 -13.870   4.776  0.00  0.00     0.254 C 
ATOM     26  H   UNL d   1      31.819 -14.493   3.691  0.00  0.00     0.319 HD
ATOM     27  C   UNL d   1      29.898 -14.434   6.026  0.00  0.00     0.023 C 
ATOM     28  C   UNL d   1      29.497 -12.967   4.142  0.00  0.00     0.026 C 
ATOM     29  C   UNL d   1      28.530 -14.588   6.252  0.00  0.00    -0.001 C 
ATOM     30  C   UNL d   1      27.676 -14.159   5.257  0.00  0.00     0.001 C 
ATOM     31  C   UNL d   1      28.161 -13.278   4.288  0.00  0.00     0.017 C 
ATOM     32  S   UNL d   1      30.107 -12.474   2.532  0.00  0.00    -0.090 SA
ENDBRANCH   5  23
TORSDOF 5
ENDMDL
MODEL 2
REMARK VINA RESULT:    -8.809      2.939      4.966
REMARK INTER + INTRA:         -10.920
REMARK INTER:                 -10.301
REMARK INTRA:                  -0.619
REMARK CONF_INDEPENDENT:        1.492
REMARK UNBOUND:                -0.619
REMARK  5 active torsions:
REMARK  status: ('A' for Active; 'I' for Inactive)
REMARK    1  A    between atoms: C_8  and  C_9 
REMARK    2  A    between atoms: C_9  and  C_10 
REMARK    3  A    between atoms: C_10  and  N_11 
REMARK    4  A    between atoms: C_16  and  C_15 
REMARK    5  A    between atoms: C_25  and  N_26 
ROOT
ATOM      1  N   UNL d   1      28.296 -14.424   4.159  0.00  0.00    -0.359 N 
ATOM      2  C   UNL d   1      27.331 -13.895   5.091  0.00  0.00     0.208 C 
ATOM      3  C   UNL d   1      28.278 -13.115   5.998  0.00  0.00     0.179 C 
ATOM      4  O   UNL d   1      27.965 -12.021   6.381  0.00  0.00    -0.291 OA
ATOM      5  C   UNL d   1      29.674 -13.761   6.063  0.00  0.00     0.076 C 
ATOM      6  C   UNL d   1      29.605 -14.322   4.772  0.00  0.00     0.110 C 
ENDROOT
BRANCH   1   7
ATOM      7  C   UNL d   1      27.780 -14.825   2.805  0.00  0.00     0.129 C 
BRANCH   7   8
ATOM      8  C   UNL d   1      28.302 -13.896   1.641  0.00  0.00     0.056 C 
BRANCH   8   9
ATOM      9  C   UNL d   1      27.544 -13.843   0.323  0.00  0.00    -0.048 A 
ATOM     10  C   UNL d   1      26.788 -14.826  -0.204  0.00  0.00    -0.005 A 
ATOM     11  C   UNL d   1      26.280 -14.308  -1.491  0.00  0.00     0.038 A 
ATOM     12  C   UNL d   1      26.440 -16.140   0.226  0.00  0.00     0.020 A 
ATOM     13  C   UNL d   1      25.420 -15.186  -2.313  0.00  0.00     0.030 A 
ATOM     14  N   UNL d   1      26.687 -13.118  -1.712  0.00  0.00    -0.385 N 
ATOM     15  C   UNL d   1      25.145 -16.415  -1.831  0.00  0.00     0.009 A 
ATOM     16  C   UNL d   1      25.651 -16.911  -0.549  0.00  0.00    -0.061 A 
ATOM     17  C   UNL d   1      25.285 -18.299  -0.101  0.00  0.00     0.048 C 
ATOM     18  C   UNL d   1      27.540 -12.653  -0.593  0.00  0.00     0.155 A 
ATOM     19  H   UNL d   1      26.447 -12.589  -2.550  0.00  0.00     0.160 HD
ENDBRANCH   8   9
ENDBRANCH   7   8
ENDBRANCH   1   7
BRANCH   6  20
ATOM     20  N   UNL d   1      30.648 -14.767   4.034  0.00  0.00    -0.385 N 
ATOM     21  H   UNL d   1      31.593 -14.446   4.182  0.00  0.00     0.157 HD
ATOM     22  H   UNL d   1      30.469 -15.416   3.281  0.00  0.00     0.157 HD
ENDBRANCH   6  20
BRANCH   5  23
ATOM     23  C   UNL d   1      30.890 -13.325   7.181  0.00  0.00     0.329 C 
ATOM     24  N   UNL d   1      31.404 -14.239   8.480  0.00  0.00     0.124 N 
ATOM     25  C   UNL d   1      30.767 -13.651   9.825  0.00  0.00     0.254 C 
ATOM     26  H   UNL d   1      32.358 -13.887   8.708  0.00  0.00     0.319 HD
ATOM     27  C   UNL d   1      30.341 -14.541  10.864  0.00  0.00     0.023 C 
ATOM     28  C   UNL d   1      29.918 -12.663   9.394  0.00  0.00     0.026 C 
ATOM     29  C   UNL d   1      28.979 -14.825  10.962  0.00  0.00    -0.001 C 
ATOM     30  C   UNL d   1      28.140 -14.204  10.060  0.00  0.00     0.001 C 
ATOM     31  C   UNL d   1      28.602 -13.077   9.378  0.00  0.00     0.017 C 
ATOM     32  S   UNL d   1      30.559 -11.738   8.001  0.00  0.00    -0.090 SA
ENDBRANCH   5  23
TORSDOF 5
ENDMDL
MODEL 3
REMARK VINA RESULT:    -8.757      1.699      3.289
REMARK INTER + INTRA:         -11.324
REMARK INTER:                 -10.248
REMARK INTRA:                  -1.076
REMARK CONF_INDEPENDENT:        1.492
REMARK UNBOUND:                -1.076
REMARK  5 active torsions:
REMARK  status: ('A' for Active; 'I' for Inactive)
REMARK    1  A    between atoms: C_8  and  C_9 
REMARK    2  A    between atoms: C_9  and  C_10 
REMARK    3  A    between atoms: C_10  and  N_11 
REMARK    4  A    between atoms: C_16  and  C_15 
REMARK    5  A    between atoms: C_25  and  N_26 
ROOT
ATOM      1  N   UNL d   1      29.681 -15.129  -1.286  0.00  0.00    -0.359 N 
ATOM      2  C   UNL d   1      29.372 -13.721  -1.303  0.00  0.00     0.208 C 
ATOM      3  C   UNL d   1      30.311 -13.257  -0.193  0.00  0.00     0.179 C 
ATOM      4  O   UNL d   1      30.937 -12.242  -0.333  0.00  0.00    -0.291 OA
ATOM      5  C   UNL d   1      30.534 -14.351   0.866  0.00  0.00     0.076 C 
ATOM      6  C   UNL d   1      30.337 -15.424  -0.028  0.00  0.00     0.110 C 
ENDROOT
BRANCH   1   7
ATOM      7  C   UNL d   1      29.384 -15.902  -2.541  0.00  0.00     0.129 C 
BRANCH   7   8
ATOM      8  C   UNL d   1      28.277 -15.226  -3.439  0.00  0.00     0.056 C 
BRANCH   8   9
ATOM      9  C   UNL d   1      26.823 -15.253  -2.989  0.00  0.00    -0.048 A 
ATOM     10  C   UNL d   1      26.307 -16.006  -2.000  0.00  0.00    -0.005 A 
ATOM     11  C   UNL d   1      24.863 -15.695  -1.957  0.00  0.00     0.038 A 
ATOM     12  C   UNL d   1      26.862 -16.955  -1.090  0.00  0.00     0.020 A 
ATOM     13  C   UNL d   1      24.021 -16.394  -0.963  0.00  0.00     0.030 A 
ATOM     14  N   UNL d   1      24.544 -14.825  -2.835  0.00  0.00    -0.385 N 
ATOM     15  C   UNL d   1      24.629 -17.279  -0.146  0.00  0.00     0.009 A 
ATOM     16  C   UNL d   1      26.063 -17.571  -0.197  0.00  0.00    -0.061 A 
ATOM     17  C   UNL d   1      26.643 -18.575   0.761  0.00  0.00     0.048 C 
ATOM     18  C   UNL d   1      25.740 -14.418  -3.610  0.00  0.00     0.155 A 
ATOM     19  H   UNL d   1      23.593 -14.481  -2.966  0.00  0.00     0.160 HD
ENDBRANCH   8   9
ENDBRANCH   7   8
ENDBRANCH   1   7
BRANCH   6  20
ATOM     20  N   UNL d   1      30.713 -16.709   0.166  0.00  0.00    -0.385 N 
ATOM     21  H   UNL d   1      31.291 -17.209  -0.492  0.00  0.00     0.157 HD
ATOM     22  H   UNL d   1      30.371 -17.197   0.981  0.00  0.00     0.157 HD
ENDBRANCH   6  20
BRANCH   5  23
ATOM     23  C   UNL d   1      31.295 -14.096   2.375  0.00  0.00     0.329 C 
ATOM     24  N   UNL d   1      31.038 -14.983   3.766  0.00  0.00     0.124 N 
ATOM     25  C   UNL d   1      30.093 -14.154   4.755  0.00  0.00     0.254 C 
ATOM     26  H   UNL d   1      31.887 -14.830   4.353  0.00  0.00     0.319 HD
ATOM     27  C   UNL d   1      29.104 -14.833   5.538  0.00  0.00     0.023 C 
ATOM     28  C   UNL d   1      29.734 -13.045   4.031  0.00  0.00     0.026 C 
ATOM     29  C   UNL d   1      27.783 -14.801   5.091  0.00  0.00    -0.001 C 
ATOM     30  C   UNL d   1      27.527 -14.092   3.935  0.00  0.00     0.001 C 
ATOM     31  C   UNL d   1      28.468 -13.159   3.496  0.00  0.00     0.017 C 
ATOM     32  S   UNL d   1      31.060 -12.410   3.008  0.00  0.00    -0.090 SA
ENDBRANCH   5  23
TORSDOF 5
ENDMDL
MODEL 4
REMARK VINA RESULT:    -8.344      2.706      4.399
REMARK INTER + INTRA:         -11.093
REMARK INTER:                  -9.835
REMARK INTRA:                  -1.257
REMARK CONF_INDEPENDENT:        1.492
REMARK UNBOUND:                -1.257
REMARK  5 active torsions:
REMARK  status: ('A' for Active; 'I' for Inactive)
REMARK    1  A    between atoms: C_8  and  C_9 
REMARK    2  A    between atoms: C_9  and  C_10 
REMARK    3  A    between atoms: C_10  and  N_11 
REMARK    4  A    between atoms: C_16  and  C_15 
REMARK    5  A    between atoms: C_25  and  N_26 
ROOT
ATOM      1  N   UNL d   1      27.630 -13.561   0.767  0.00  0.00    -0.359 N 
ATOM      2  C   UNL d   1      26.554 -12.984   1.535  0.00  0.00     0.208 C 
ATOM      3  C   UNL d   1      27.130 -13.178   2.935  0.00  0.00     0.179 C 
ATOM      4  O   UNL d   1      27.030 -12.296   3.744  0.00  0.00    -0.291 OA
ATOM      5  C   UNL d   1      28.037 -14.419   3.017  0.00  0.00     0.076 C 
ATOM      6  C   UNL d   1      28.433 -14.366   1.665  0.00  0.00     0.110 C 
ENDROOT
BRANCH   1   7
ATOM      7  C   UNL d   1      27.740 -13.132  -0.670  0.00  0.00     0.129 C 
BRANCH   7   8
ATOM      8  C   UNL d   1      27.660 -14.337  -1.685  0.00  0.00     0.056 C 
BRANCH   8   9
ATOM      9  C   UNL d   1      27.475 -15.753  -1.159  0.00  0.00    -0.048 A 
ATOM     10  C   UNL d   1      26.305 -16.347  -0.856  0.00  0.00    -0.005 A 
ATOM     11  C   UNL d   1      26.645 -17.701  -0.373  0.00  0.00     0.038 A 
ATOM     12  C   UNL d   1      24.943 -15.928  -0.914  0.00  0.00     0.020 A 
ATOM     13  C   UNL d   1      25.545 -18.593   0.053  0.00  0.00     0.030 A 
ATOM     14  N   UNL d   1      27.905 -17.905  -0.393  0.00  0.00    -0.385 N 
ATOM     15  C   UNL d   1      24.287 -18.113  -0.031  0.00  0.00     0.009 A 
ATOM     16  C   UNL d   1      23.967 -16.770  -0.519  0.00  0.00    -0.061 A 
ATOM     17  C   UNL d   1      22.530 -16.331  -0.575  0.00  0.00     0.048 C 
ATOM     18  C   UNL d   1      28.609 -16.703  -0.898  0.00  0.00     0.155 A 
ATOM     19  H   UNL d   1      28.338 -18.778  -0.094  0.00  0.00     0.160 HD
ENDBRANCH   8   9
ENDBRANCH   7   8
ENDBRANCH   1   7
BRANCH   6  20
ATOM     20  N   UNL d   1      29.505 -14.985   1.118  0.00  0.00    -0.385 N 
ATOM     21  H   UNL d   1      29.824 -15.891   1.426  0.00  0.00     0.157 HD
ATOM     22  H   UNL d   1      30.027 -14.505   0.398  0.00  0.00     0.157 HD
ENDBRANCH   6  20
BRANCH   5  23
ATOM     23  C   UNL d   1      28.624 -15.094   4.473  0.00  0.00     0.329 C 
ATOM     24  N   UNL d   1      28.059 -14.760   6.008  0.00  0.00     0.124 N 
ATOM     25  C   UNL d   1      29.073 -13.762   6.739  0.00  0.00     0.254 C 
ATOM     26  H   UNL d   1      28.346 -15.575   6.593  0.00  0.00     0.319 HD
ATOM     27  C   UNL d   1      28.570 -12.730   7.595  0.00  0.00     0.023 C 
ATOM     28  C   UNL d   1      29.993 -13.445   5.771  0.00  0.00     0.026 C 
ATOM     29  C   UNL d   1      28.488 -11.436   7.081  0.00  0.00    -0.001 C 
ATOM     30  C   UNL d   1      28.924 -11.246   5.786  0.00  0.00     0.001 C 
ATOM     31  C   UNL d   1      29.750 -12.210   5.206  0.00  0.00     0.017 C 
ATOM     32  S   UNL d   1      30.405 -14.826   4.708  0.00  0.00    -0.090 SA
ENDBRANCH   5  23
TORSDOF 5
ENDMDL
MODEL 5
REMARK VINA RESULT:    -8.335      2.360      4.306
REMARK INTER + INTRA:         -11.168
REMARK INTER:                  -9.827
REMARK INTRA:                  -1.341
REMARK CONF_INDEPENDENT:        1.492
REMARK UNBOUND:                -1.341
REMARK  5 active torsions:
REMARK  status: ('A' for Active; 'I' for Inactive)
REMARK    1  A    between atoms: C_8  and  C_9 
REMARK    2  A    between atoms: C_9  and  C_10 
REMARK    3  A    between atoms: C_10  and  N_11 
REMARK    4  A    between atoms: C_16  and  C_15 
REMARK    5  A    between atoms: C_25  and  N_26 
ROOT
ATOM      1  N   UNL d   1      28.521 -12.713  -0.588  0.00  0.00    -0.359 N 
ATOM      2  C   UNL d   1      29.580 -11.823  -0.999  0.00  0.00     0.208 C 
ATOM      3  C   UNL d   1      30.654 -12.256  -0.006  0.00  0.00     0.179 C 
ATOM      4  O   UNL d   1      31.788 -12.385  -0.379  0.00  0.00    -0.291 OA
ATOM      5  C   UNL d   1      30.047 -12.752   1.319  0.00  0.00     0.076 C 
ATOM      6  C   UNL d   1      28.844 -13.203   0.737  0.00  0.00     0.110 C 
ENDROOT
BRANCH   1   7
ATOM      7  C   UNL d   1      27.452 -13.006  -1.603  0.00  0.00     0.129 C 
BRANCH   7   8
ATOM      8  C   UNL d   1      27.612 -14.422  -2.282  0.00  0.00     0.056 C 
BRANCH   8   9
ATOM      9  C   UNL d   1      27.675 -15.670  -1.414  0.00  0.00    -0.048 A 
ATOM     10  C   UNL d   1      26.625 -16.367  -0.940  0.00  0.00    -0.005 A 
ATOM     11  C   UNL d   1      27.193 -17.473  -0.142  0.00  0.00     0.038 A 
ATOM     12  C   UNL d   1      25.211 -16.226  -1.063  0.00  0.00     0.020 A 
ATOM     13  C   UNL d   1      26.264 -18.411   0.523  0.00  0.00     0.030 A 
ATOM     14  N   UNL d   1      28.470 -17.448  -0.145  0.00  0.00    -0.385 N 
ATOM     15  C   UNL d   1      24.942 -18.200   0.356  0.00  0.00     0.009 A 
ATOM     16  C   UNL d   1      24.395 -17.102  -0.444  0.00  0.00    -0.061 A 
ATOM     17  C   UNL d   1      22.904 -16.954  -0.568  0.00  0.00     0.048 C 
ATOM     18  C   UNL d   1      28.956 -16.306  -0.955  0.00  0.00     0.155 A 
ATOM     19  H   UNL d   1      29.047 -18.127   0.351  0.00  0.00     0.160 HD
ENDBRANCH   8   9
ENDBRANCH   7   8
ENDBRANCH   1   7
BRANCH   6  20
ATOM     20  N   UNL d   1      27.961 -14.067   1.288  0.00  0.00    -0.385 N 
ATOM     21  H   UNL d   1      28.223 -14.993   1.588  0.00  0.00     0.157 HD
ATOM     22  H   UNL d   1      26.993 -13.787   1.367  0.00  0.00     0.157 HD
ENDBRANCH   6  20
BRANCH   5  23
ATOM     23  C   UNL d   1      30.943 -13.050   2.743  0.00  0.00     0.329 C 
ATOM     24  N   UNL d   1      30.887 -14.440   3.666  0.00  0.00     0.124 N 
ATOM     25  C   UNL d   1      30.002 -14.172   4.971  0.00  0.00     0.254 C 
ATOM     26  H   UNL d   1      31.781 -14.453   4.202  0.00  0.00     0.319 HD
ATOM     27  C   UNL d   1      29.142 -15.200   5.477  0.00  0.00     0.023 C 
ATOM     28  C   UNL d   1      29.503 -12.906   4.789  0.00  0.00     0.026 C 
ATOM     29  C   UNL d   1      27.782 -15.120   5.177  0.00  0.00    -0.001 C 
ATOM     30  C   UNL d   1      27.365 -14.036   4.431  0.00  0.00     0.001 C 
ATOM     31  C   UNL d   1      28.198 -12.919   4.345  0.00  0.00     0.017 C 
ATOM     32  S   UNL d   1      30.675 -11.790   4.023  0.00  0.00    -0.090 SA
ENDBRANCH   5  23
TORSDOF 5
ENDMDL
MODEL 6
REMARK VINA RESULT:    -8.078      3.653      7.711
REMARK INTER + INTRA:         -11.020
REMARK INTER:                  -9.569
REMARK INTRA:                  -1.451
REMARK CONF_INDEPENDENT:        1.492
REMARK UNBOUND:                -1.451
REMARK  5 active torsions:
REMARK  status: ('A' for Active; 'I' for Inactive)
REMARK    1  A    between atoms: C_8  and  C_9 
REMARK    2  A    between atoms: C_9  and  C_10 
REMARK    3  A    between atoms: C_10  and  N_11 
REMARK    4  A    between atoms: C_16  and  C_15 
REMARK    5  A    between atoms: C_25  and  N_26 
ROOT
ATOM      1  N   UNL d   1      26.467 -13.418  -3.217  0.00  0.00    -0.359 N 
ATOM      2  C   UNL d   1      25.579 -13.963  -4.215  0.00  0.00     0.208 C 
ATOM      3  C   UNL d   1      26.621 -14.499  -5.192  0.00  0.00     0.179 C 
ATOM      4  O   UNL d   1      26.457 -15.575  -5.701  0.00  0.00    -0.291 OA
ATOM      5  C   UNL d   1      27.916 -13.668  -5.167  0.00  0.00     0.076 C 
ATOM      6  C   UNL d   1      27.776 -13.272  -3.821  0.00  0.00     0.110 C 
ENDROOT
BRANCH   1   7
ATOM      7  C   UNL d   1      25.905 -13.247  -1.833  0.00  0.00     0.129 C 
BRANCH   7   8
ATOM      8  C   UNL d   1      26.930 -13.627  -0.695  0.00  0.00     0.056 C 
BRANCH   8   9
ATOM      9  C   UNL d   1      27.191 -15.092  -0.377  0.00  0.00    -0.048 A 
ATOM     10  C   UNL d   1      26.279 -16.083  -0.369  0.00  0.00    -0.005 A 
ATOM     11  C   UNL d   1      27.009 -17.310   0.014  0.00  0.00     0.038 A 
ATOM     12  C   UNL d   1      24.879 -16.137  -0.635  0.00  0.00     0.020 A 
ATOM     13  C   UNL d   1      26.252 -18.575   0.121  0.00  0.00     0.030 A 
ATOM     14  N   UNL d   1      28.249 -17.077   0.209  0.00  0.00    -0.385 N 
ATOM     15  C   UNL d   1      24.930 -18.533  -0.145  0.00  0.00     0.009 A 
ATOM     16  C   UNL d   1      24.223 -17.309  -0.530  0.00  0.00    -0.061 A 
ATOM     17  C   UNL d   1      22.746 -17.369  -0.805  0.00  0.00     0.048 C 
ATOM     18  C   UNL d   1      28.542 -15.642  -0.015  0.00  0.00     0.155 A 
ATOM     19  H   UNL d   1      28.919 -17.795   0.484  0.00  0.00     0.160 HD
ENDBRANCH   8   9
ENDBRANCH   7   8
ENDBRANCH   1   7
BRANCH   6  20
ATOM     20  N   UNL d   1      28.751 -12.778  -3.024  0.00  0.00    -0.385 N 
ATOM     21  H   UNL d   1      28.609 -11.981  -2.423  0.00  0.00     0.157 HD
ATOM     22  H   UNL d   1      29.668 -13.200  -3.061  0.00  0.00     0.157 HD
ENDBRANCH   6  20
BRANCH   5  23
ATOM     23  C   UNL d   1      29.177 -13.806  -6.311  0.00  0.00     0.329 C 
ATOM     24  N   UNL d   1      29.492 -15.136  -7.270  0.00  0.00     0.124 N 
ATOM     25  C   UNL d   1      30.735 -15.941  -6.665  0.00  0.00     0.254 C 
ATOM     26  H   UNL d   1      30.045 -14.772  -8.076  0.00  0.00     0.319 HD
ATOM     27  C   UNL d   1      30.747 -17.373  -6.702  0.00  0.00     0.023 C 
ATOM     28  C   UNL d   1      31.016 -15.296  -5.487  0.00  0.00     0.026 C 
ATOM     29  C   UNL d   1      30.405 -18.060  -5.537  0.00  0.00    -0.001 C 
ATOM     30  C   UNL d   1      30.103 -17.300  -4.425  0.00  0.00     0.001 C 
ATOM     31  C   UNL d   1      30.510 -15.965  -4.392  0.00  0.00     0.017 C 
ATOM     32  S   UNL d   1      30.819 -13.519  -5.591  0.00  0.00    -0.090 SA
ENDBRANCH   5  23
TORSDOF 5
ENDMDL
MODEL 7
REMARK VINA RESULT:    -7.845      1.599      2.232
REMARK INTER + INTRA:         -10.647
REMARK INTER:                  -9.337
REMARK INTRA:                  -1.310
REMARK CONF_INDEPENDENT:        1.492
REMARK UNBOUND:                -1.310
REMARK  5 active torsions:
REMARK  status: ('A' for Active; 'I' for Inactive)
REMARK    1  A    between atoms: C_8  and  C_9 
REMARK    2  A    between atoms: C_9  and  C_10 
REMARK    3  A    between atoms: C_10  and  N_11 
REMARK    4  A    between atoms: C_16  and  C_15 
REMARK    5  A    between atoms: C_25  and  N_26 
ROOT
ATOM      1  N   UNL d   1      27.445 -15.660  -0.105  0.00  0.00    -0.359 N 
ATOM      2  C   UNL d   1      26.674 -14.654   0.584  0.00  0.00     0.208 C 
ATOM      3  C   UNL d   1      27.820 -13.849   1.190  0.00  0.00     0.179 C 
ATOM      4  O   UNL d   1      27.771 -12.649   1.180  0.00  0.00    -0.291 OA
ATOM      5  C   UNL d   1      29.049 -14.728   1.485  0.00  0.00     0.076 C 
ATOM      6  C   UNL d   1      28.782 -15.654   0.455  0.00  0.00     0.110 C 
ENDROOT
BRANCH   1   7
ATOM      7  C   UNL d   1      26.772 -16.360  -1.252  0.00  0.00     0.129 C 
BRANCH   7   8
ATOM      8  C   UNL d   1      27.249 -15.840  -2.663  0.00  0.00     0.056 C 
BRANCH   8   9
ATOM      9  C   UNL d   1      26.523 -14.675  -3.321  0.00  0.00    -0.048 A 
ATOM     10  C   UNL d   1      26.658 -13.372  -3.009  0.00  0.00    -0.005 A 
ATOM     11  C   UNL d   1      25.740 -12.639  -3.905  0.00  0.00     0.038 A 
ATOM     12  C   UNL d   1      27.448 -12.661  -2.058  0.00  0.00     0.020 A 
ATOM     13  C   UNL d   1      25.660 -11.168  -3.781  0.00  0.00     0.030 A 
ATOM     14  N   UNL d   1      25.118 -13.430  -4.691  0.00  0.00    -0.385 N 
ATOM     15  C   UNL d   1      26.441 -10.579  -2.852  0.00  0.00     0.009 A 
ATOM     16  C   UNL d   1      27.350 -11.320  -1.975  0.00  0.00    -0.061 A 
ATOM     17  C   UNL d   1      28.179 -10.568  -0.971  0.00  0.00     0.048 C 
ATOM     18  C   UNL d   1      25.530 -14.831  -4.436  0.00  0.00     0.155 A 
ATOM     19  H   UNL d   1      24.438 -13.116  -5.383  0.00  0.00     0.160 HD
ENDBRANCH   8   9
ENDBRANCH   7   8
ENDBRANCH   1   7
BRANCH   6  20
ATOM     20  N   UNL d   1      29.658 -16.535  -0.078  0.00  0.00    -0.385 N 
ATOM     21  H   UNL d   1      29.842 -17.436   0.336  0.00  0.00     0.157 HD
ATOM     22  H   UNL d   1      30.176 -16.266  -0.903  0.00  0.00     0.157 HD
ENDBRANCH   6  20
BRANCH   5  23
ATOM     23  C   UNL d   1      30.397 -14.229   2.407  0.00  0.00     0.329 C 
ATOM     24  N   UNL d   1      30.833 -14.816   3.908  0.00  0.00     0.124 N 
ATOM     25  C   UNL d   1      30.404 -13.762   5.032  0.00  0.00     0.254 C 
ATOM     26  H   UNL d   1      31.848 -14.598   4.008  0.00  0.00     0.319 HD
ATOM     27  C   UNL d   1      29.902 -14.224   6.292  0.00  0.00     0.023 C 
ATOM     28  C   UNL d   1      29.712 -12.796   4.346  0.00  0.00     0.026 C 
ATOM     29  C   UNL d   1      28.522 -14.207   6.492  0.00  0.00    -0.001 C 
ATOM     30  C   UNL d   1      27.744 -13.722   5.461  0.00  0.00     0.001 C 
ATOM     31  C   UNL d   1      28.347 -12.943   4.472  0.00  0.00     0.017 C 
ATOM     32  S   UNL d   1      30.407 -12.442   2.733  0.00  0.00    -0.090 SA
ENDBRANCH   5  23
TORSDOF 5
ENDMDL
MODEL 8
REMARK VINA RESULT:    -7.673      4.713     10.800
REMARK INTER + INTRA:         -10.832
REMARK INTER:                  -9.165
REMARK INTRA:                  -1.667
REMARK CONF_INDEPENDENT:        1.492
REMARK UNBOUND:                -1.667
REMARK  5 active torsions:
REMARK  status: ('A' for Active; 'I' for Inactive)
REMARK    1  A    between atoms: C_8  and  C_9 
REMARK    2  A    between atoms: C_9  and  C_10 
REMARK    3  A    between atoms: C_10  and  N_11 
REMARK    4  A    between atoms: C_16  and  C_15 
REMARK    5  A    between atoms: C_25  and  N_26 
ROOT
ATOM      1  N   UNL d   1      30.208 -10.769   7.184  0.00  0.00    -0.359 N 
ATOM      2  C   UNL d   1      28.777 -10.823   7.360  0.00  0.00     0.208 C 
ATOM      3  C   UNL d   1      28.542 -12.276   6.962  0.00  0.00     0.179 C 
ATOM      4  O   UNL d   1      27.780 -12.950   7.601  0.00  0.00    -0.291 OA
ATOM      5  C   UNL d   1      29.571 -12.763   5.925  0.00  0.00     0.076 C 
ATOM      6  C   UNL d   1      30.595 -11.895   6.358  0.00  0.00     0.110 C 
ENDROOT
BRANCH   1   7
ATOM      7  C   UNL d   1      30.944  -9.700   7.943  0.00  0.00     0.129 C 
BRANCH   7   8
ATOM      8  C   UNL d   1      31.723 -10.254   9.198  0.00  0.00     0.056 C 
BRANCH   8   9
ATOM      9  C   UNL d   1      32.044 -11.739   9.289  0.00  0.00    -0.048 A 
ATOM     10  C   UNL d   1      31.192 -12.720   9.642  0.00  0.00    -0.005 A 
ATOM     11  C   UNL d   1      31.971 -13.975   9.599  0.00  0.00     0.038 A 
ATOM     12  C   UNL d   1      29.816 -12.745  10.014  0.00  0.00     0.020 A 
ATOM     13  C   UNL d   1      31.292 -15.238   9.958  0.00  0.00     0.030 A 
ATOM     14  N   UNL d   1      33.180 -13.766   9.243  0.00  0.00    -0.385 N 
ATOM     15  C   UNL d   1      29.989 -15.168  10.301  0.00  0.00     0.009 A 
ATOM     16  C   UNL d   1      29.230 -13.916  10.333  0.00  0.00    -0.061 A 
ATOM     17  C   UNL d   1      27.780 -13.946  10.730  0.00  0.00     0.048 C 
ATOM     18  C   UNL d   1      33.396 -12.322   8.991  0.00  0.00     0.155 A 
ATOM     19  H   UNL d   1      33.876 -14.506   9.156  0.00  0.00     0.160 HD
ENDBRANCH   8   9
ENDBRANCH   7   8
ENDBRANCH   1   7
BRANCH   6  20
ATOM     20  N   UNL d   1      31.915 -12.016   6.091  0.00  0.00    -0.385 N 
ATOM     21  H   UNL d   1      32.542 -11.227   6.086  0.00  0.00     0.157 HD
ATOM     22  H   UNL d   1      32.280 -12.927   5.849  0.00  0.00     0.157 HD
ENDBRANCH   6  20
BRANCH   5  23
ATOM     23  C   UNL d   1      29.450 -14.229   5.056  0.00  0.00     0.329 C 
ATOM     24  N   UNL d   1      29.830 -14.450   3.445  0.00  0.00     0.124 N 
ATOM     25  C   UNL d   1      28.482 -14.501   2.586  0.00  0.00     0.254 C 
ATOM     26  H   UNL d   1      30.006 -15.472   3.339  0.00  0.00     0.319 HD
ATOM     27  C   UNL d   1      28.438 -13.901   1.286  0.00  0.00     0.023 C 
ATOM     28  C   UNL d   1      27.491 -14.217   3.492  0.00  0.00     0.026 C 
ATOM     29  C   UNL d   1      27.849 -12.642   1.167  0.00  0.00    -0.001 C 
ATOM     30  C   UNL d   1      27.328 -12.080   2.315  0.00  0.00     0.001 C 
ATOM     31  C   UNL d   1      27.069 -12.907   3.410  0.00  0.00     0.017 C 
ATOM     32  S   UNL d   1      27.780 -14.942   5.104  0.00  0.00    -0.090 SA
ENDBRANCH   5  23
TORSDOF 5
ENDMDL
MODEL 9
REMARK VINA RESULT:    -7.367      3.575      5.140
REMARK INTER + INTRA:         -10.685
REMARK INTER:                  -8.859
REMARK INTRA:                  -1.826
REMARK CONF_INDEPENDENT:        1.492
REMARK UNBOUND:                -1.826
REMARK  5 active torsions:
REMARK  status: ('A' for Active; 'I' for Inactive)
REMARK    1  A    between atoms: C_8  and  C_9 
REMARK    2  A    between atoms: C_9  and  C_10 
REMARK    3  A    between atoms: C_10  and  N_11 
REMARK    4  A    between atoms: C_16  and  C_15 
REMARK    5  A    between atoms: C_25  and  N_26 
ROOT
ATOM      1  N   UNL d   1      28.108 -15.125  -5.184  0.00  0.00    -0.359 N 
ATOM      2  C   UNL d   1      26.721 -15.198  -4.793  0.00  0.00     0.208 C 
ATOM      3  C   UNL d   1      26.901 -15.206  -3.278  0.00  0.00     0.179 C 
ATOM      4  O   UNL d   1      26.167 -14.549  -2.590  0.00  0.00    -0.291 OA
ATOM      5  C   UNL d   1      28.228 -15.865  -2.859  0.00  0.00     0.076 C 
ATOM      6  C   UNL d   1      28.911 -15.519  -4.044  0.00  0.00     0.110 C 
ENDROOT
BRANCH   1   7
ATOM      7  C   UNL d   1      28.396 -14.580  -6.555  0.00  0.00     0.129 C 
BRANCH   7   8
ATOM      8  C   UNL d   1      28.182 -13.020  -6.661  0.00  0.00     0.056 C 
BRANCH   8   9
ATOM      9  C   UNL d   1      27.365 -12.299  -5.598  0.00  0.00    -0.048 A 
ATOM     10  C   UNL d   1      27.736 -12.071  -4.324  0.00  0.00    -0.005 A 
ATOM     11  C   UNL d   1      26.607 -11.359  -3.689  0.00  0.00     0.038 A 
ATOM     12  C   UNL d   1      28.906 -12.376  -3.568  0.00  0.00     0.020 A 
ATOM     13  C   UNL d   1      26.723 -10.986  -2.263  0.00  0.00     0.030 A 
ATOM     14  N   UNL d   1      25.649 -11.168  -4.512  0.00  0.00    -0.385 N 
ATOM     15  C   UNL d   1      27.864 -11.317  -1.624  0.00  0.00     0.009 A 
ATOM     16  C   UNL d   1      28.976 -12.017  -2.270  0.00  0.00    -0.061 A 
ATOM     17  C   UNL d   1      30.207 -12.340  -1.469  0.00  0.00     0.048 C 
ATOM     18  C   UNL d   1      25.995 -11.731  -5.838  0.00  0.00     0.155 A 
ATOM     19  H   UNL d   1      24.780 -10.697  -4.263  0.00  0.00     0.160 HD
ENDBRANCH   8   9
ENDBRANCH   7   8
ENDBRANCH   1   7
BRANCH   6  20
ATOM     20  N   UNL d   1      30.252 -15.503  -4.221  0.00  0.00    -0.385 N 
ATOM     21  H   UNL d   1      30.790 -14.650  -4.208  0.00  0.00     0.157 HD
ATOM     22  H   UNL d   1      30.727 -16.374  -4.411  0.00  0.00     0.157 HD
ENDBRANCH   6  20
BRANCH   5  23
ATOM     23  C   UNL d   1      28.632 -16.294  -1.255  0.00  0.00     0.329 C 
ATOM     24  N   UNL d   1      28.278 -17.744  -0.508  0.00  0.00     0.124 N 
ATOM     25  C   UNL d   1      27.032 -17.542   0.474  0.00  0.00     0.254 C 
ATOM     26  H   UNL d   1      28.959 -17.825   0.277  0.00  0.00     0.319 HD
ATOM     27  C   UNL d   1      26.048 -18.575   0.605  0.00  0.00     0.023 C 
ATOM     28  C   UNL d   1      26.626 -16.251   0.246  0.00  0.00     0.026 C 
ATOM     29  C   UNL d   1      24.851 -18.429  -0.096  0.00  0.00    -0.001 C 
ATOM     30  C   UNL d   1      24.697 -17.282  -0.847  0.00  0.00     0.001 C 
ATOM     31  C   UNL d   1      25.524 -16.189  -0.582  0.00  0.00     0.017 C 
ATOM     32  S   UNL d   1      27.988 -15.120  -0.028  0.00  0.00    -0.090 SA
ENDBRANCH   5  23
TORSDOF 5
ENDMDL
