MODEL 1
REMARK VINA RESULT:   -10.040      0.000      0.000
REMARK INTER + INTRA:         -14.884
REMARK INTER:                 -12.725
REMARK INTRA:                  -2.159
REMARK CONF_INDEPENDENT:        2.685
REMARK UNBOUND:                -2.159
REMARK  9 active torsions:
REMARK  status: ('A' for Active; 'I' for Inactive)
REMARK    1  A    between atoms: O_2  and  C_3 
REMARK    2  A    between atoms: C_5  and  C_6 
REMARK    3  A    between atoms: C_8  and  C_9 
REMARK       I    between atoms: C_9  and  N_11 
REMARK    4  A    between atoms: N_11  and  N_12 
REMARK    5  A    between atoms: C_13  and  C_14 
REMARK    6  A    between atoms: C_19  and  O_20 
REMARK    7  A    between atoms: C_25  and  O_26 
REMARK    8  A    between atoms: O_26  and  C_27 
REMARK    9  A    between atoms: C_27  and  C_28 
ROOT
ATOM      1  C   UNL d   1      26.520 -15.680  -0.003  0.00  0.00     0.087 A 
ATOM      2  C   UNL d   1      25.559 -15.391  -0.885  0.00  0.00     0.046 A 
ATOM      3  C   UNL d   1      25.226 -16.669  -1.550  0.00  0.00     0.249 A 
ATOM      4  N   UNL d   1      26.198 -17.609  -0.906  0.00  0.00    -0.173 NA
ATOM      5  N   UNL d   1      26.904 -16.991  -0.052  0.00  0.00    -0.154 NA
ENDROOT
BRANCH   1   6
ATOM      6  C   UNL d   1      27.059 -14.673   0.910  0.00  0.00    -0.003 A 
ATOM      7  C   UNL d   1      26.670 -13.321   0.860  0.00  0.00     0.053 A 
ATOM      8  C   UNL d   1      26.941 -12.435   1.930  0.00  0.00     0.102 A 
ATOM      9  C   UNL d   1      27.663 -12.952   3.045  0.00  0.00     0.102 A 
ATOM     10  C   UNL d   1      28.133 -14.272   3.026  0.00  0.00     0.040 A 
ATOM     11  C   UNL d   1      27.844 -15.123   1.973  0.00  0.00     0.017 A 
BRANCH   8  12
ATOM     12  O   UNL d   1      26.190 -11.272   1.863  0.00  0.00    -0.353 OA
ATOM     13  C   UNL d   1      26.491 -10.116   2.657  0.00  0.00     0.210 C 
ENDBRANCH   8  12
BRANCH   9  14
ATOM     14  O   UNL d   1      27.978 -12.390   4.272  0.00  0.00    -0.344 OA
BRANCH  14  15
ATOM     15  C   UNL d   1      28.470 -13.369   5.134  0.00  0.00     0.214 C 
BRANCH  15  16
ATOM     16  C   UNL d   1      28.763 -13.066   6.563  0.00  0.00    -0.034 A 
ATOM     17  C   UNL d   1      29.250 -14.075   7.386  0.00  0.00     0.009 A 
ATOM     18  C   UNL d   1      29.385 -13.832   8.743  0.00  0.00     0.001 A 
ATOM     19  C   UNL d   1      29.081 -12.572   9.263  0.00  0.00     0.000 A 
ATOM     20  C   UNL d   1      28.531 -11.581   8.454  0.00  0.00     0.001 A 
ATOM     21  C   UNL d   1      28.340 -11.840   7.108  0.00  0.00     0.009 A 
ENDBRANCH  15  16
ENDBRANCH  14  15
ENDBRANCH   9  14
ENDBRANCH   1   6
BRANCH   3  22
ATOM     22  C   UNL d   1      23.790 -17.204  -1.320  0.00  0.00     0.268 C 
ATOM     23  O   UNL d   1      22.841 -16.437  -1.239  0.00  0.00    -0.269 OA
ATOM     24  N   UNL d   1      23.686 -18.593  -1.127  0.00  0.00    -0.245 N 
ATOM     25  H   UNL d   1      24.462 -19.223  -1.269  0.00  0.00     0.192 HD
BRANCH  24  26
ATOM     26  N   UNL d   1      22.448 -19.118  -0.900  0.00  0.00    -0.184 NA
ATOM     27  C   UNL d   1      21.871 -18.885   0.236  0.00  0.00     0.152 C 
BRANCH  27  28
ATOM     28  C   UNL d   1      20.563 -19.502   0.565  0.00  0.00     0.016 A 
ATOM     29  C   UNL d   1      20.236 -19.771   1.901  0.00  0.00     0.016 A 
ATOM     30  C   UNL d   1      19.048 -20.449   2.204  0.00  0.00     0.001 A 
ATOM     31  C   UNL d   1      18.163 -20.804   1.185  0.00  0.00     0.003 A 
ATOM     32  C   UNL d   1      18.476 -20.518  -0.145  0.00  0.00     0.037 A 
ATOM     33  C   UNL d   1      19.679 -19.884  -0.452  0.00  0.00     0.077 A 
BRANCH  33  34
ATOM     34  O   UNL d   1      20.026 -19.700  -1.760  0.00  0.00    -0.360 OA
ATOM     35  H   UNL d   1      20.934 -19.368  -1.825  0.00  0.00     0.217 HD
ENDBRANCH  33  34
ENDBRANCH  27  28
ENDBRANCH  24  26
ENDBRANCH   3  22
TORSDOF 9
ENDMDL
MODEL 2
REMARK VINA RESULT:    -9.354      5.431     10.573
REMARK INTER + INTRA:         -13.785
REMARK INTER:                 -12.039
REMARK INTRA:                  -1.746
REMARK CONF_INDEPENDENT:        2.685
REMARK UNBOUND:                -1.746
REMARK  9 active torsions:
REMARK  status: ('A' for Active; 'I' for Inactive)
REMARK    1  A    between atoms: O_2  and  C_3 
REMARK    2  A    between atoms: C_5  and  C_6 
REMARK    3  A    between atoms: C_8  and  C_9 
REMARK       I    between atoms: C_9  and  N_11 
REMARK    4  A    between atoms: N_11  and  N_12 
REMARK    5  A    between atoms: C_13  and  C_14 
REMARK    6  A    between atoms: C_19  and  O_20 
REMARK    7  A    between atoms: C_25  and  O_26 
REMARK    8  A    between atoms: O_26  and  C_27 
REMARK    9  A    between atoms: C_27  and  C_28 
ROOT
ATOM      1  C   UNL d   1      26.338 -15.402  -2.566  0.00  0.00     0.087 A 
ATOM      2  C   UNL d   1      26.139 -14.977  -3.816  0.00  0.00     0.046 A 
ATOM      3  C   UNL d   1      27.344 -14.197  -4.172  0.00  0.00     0.249 A 
ATOM      4  N   UNL d   1      28.131 -14.256  -2.900  0.00  0.00    -0.173 NA
ATOM      5  N   UNL d   1      27.509 -14.941  -2.031  0.00  0.00    -0.154 NA
ENDROOT
BRANCH   1   6
ATOM      6  C   UNL d   1      25.386 -16.281  -1.888  0.00  0.00    -0.003 A 
ATOM      7  C   UNL d   1      25.792 -17.280  -0.982  0.00  0.00     0.053 A 
ATOM      8  C   UNL d   1      24.870 -17.895  -0.103  0.00  0.00     0.102 A 
ATOM      9  C   UNL d   1      23.504 -17.498  -0.197  0.00  0.00     0.102 A 
ATOM     10  C   UNL d   1      23.106 -16.581  -1.177  0.00  0.00     0.040 A 
ATOM     11  C   UNL d   1      24.029 -15.983  -2.019  0.00  0.00     0.017 A 
BRANCH   8  12
ATOM     12  O   UNL d   1      25.493 -18.574   0.934  0.00  0.00    -0.353 OA
ATOM     13  C   UNL d   1      26.917 -18.576   1.104  0.00  0.00     0.210 C 
ENDBRANCH   8  12
BRANCH   9  14
ATOM     14  O   UNL d   1      22.402 -17.816   0.581  0.00  0.00    -0.344 OA
BRANCH  14  15
ATOM     15  C   UNL d   1      21.859 -19.032   0.167  0.00  0.00     0.214 C 
BRANCH  15  16
ATOM     16  C   UNL d   1      20.530 -19.493   0.656  0.00  0.00    -0.034 A 
ATOM     17  C   UNL d   1      20.299 -19.577   2.024  0.00  0.00     0.009 A 
ATOM     18  C   UNL d   1      19.117 -20.140   2.475  0.00  0.00     0.001 A 
ATOM     19  C   UNL d   1      18.152 -20.572   1.562  0.00  0.00     0.000 A 
ATOM     20  C   UNL d   1      18.407 -20.551   0.193  0.00  0.00     0.001 A 
ATOM     21  C   UNL d   1      19.612 -20.042  -0.259  0.00  0.00     0.009 A 
ENDBRANCH  15  16
ENDBRANCH  14  15
ENDBRANCH   9  14
ENDBRANCH   1   6
BRANCH   3  22
ATOM     22  C   UNL d   1      28.212 -14.768  -5.322  0.00  0.00     0.268 C 
ATOM     23  O   UNL d   1      27.778 -14.828  -6.464  0.00  0.00    -0.269 OA
ATOM     24  N   UNL d   1      29.464 -15.280  -4.938  0.00  0.00    -0.245 N 
ATOM     25  H   UNL d   1      29.841 -15.159  -4.009  0.00  0.00     0.192 HD
BRANCH  24  26
ATOM     26  N   UNL d   1      30.263 -15.814  -5.905  0.00  0.00    -0.184 NA
ATOM     27  C   UNL d   1      30.172 -17.082  -6.158  0.00  0.00     0.152 C 
BRANCH  27  28
ATOM     28  C   UNL d   1      31.077 -17.728  -7.140  0.00  0.00     0.016 A 
ATOM     29  C   UNL d   1      31.991 -16.950  -7.862  0.00  0.00     0.016 A 
ATOM     30  C   UNL d   1      32.770 -17.543  -8.865  0.00  0.00     0.001 A 
ATOM     31  C   UNL d   1      32.682 -18.915  -9.102  0.00  0.00     0.003 A 
ATOM     32  C   UNL d   1      31.788 -19.696  -8.369  0.00  0.00     0.037 A 
ATOM     33  C   UNL d   1      30.979 -19.100  -7.403  0.00  0.00     0.077 A 
BRANCH  33  34
ATOM     34  O   UNL d   1      30.035 -19.850  -6.762  0.00  0.00    -0.360 OA
ATOM     35  H   UNL d   1      29.277 -20.010  -7.345  0.00  0.00     0.217 HD
ENDBRANCH  33  34
ENDBRANCH  27  28
ENDBRANCH  24  26
ENDBRANCH   3  22
TORSDOF 9
ENDMDL
MODEL 3
REMARK VINA RESULT:    -9.063      1.049      1.931
REMARK INTER + INTRA:         -14.282
REMARK INTER:                 -11.748
REMARK INTRA:                  -2.535
REMARK CONF_INDEPENDENT:        2.685
REMARK UNBOUND:                -2.535
REMARK  9 active torsions:
REMARK  status: ('A' for Active; 'I' for Inactive)
REMARK    1  A    between atoms: O_2  and  C_3 
REMARK    2  A    between atoms: C_5  and  C_6 
REMARK    3  A    between atoms: C_8  and  C_9 
REMARK       I    between atoms: C_9  and  N_11 
REMARK    4  A    between atoms: N_11  and  N_12 
REMARK    5  A    between atoms: C_13  and  C_14 
REMARK    6  A    between atoms: C_19  and  O_20 
REMARK    7  A    between atoms: C_25  and  O_26 
REMARK    8  A    between atoms: O_26  and  C_27 
REMARK    9  A    between atoms: C_27  and  C_28 
ROOT
ATOM      1  C   UNL d   1      26.576 -15.579   0.232  0.00  0.00     0.087 A 
ATOM      2  C   UNL d   1      25.621 -15.338  -0.670  0.00  0.00     0.046 A 
ATOM      3  C   UNL d   1      25.384 -16.625  -1.358  0.00  0.00     0.249 A 
ATOM      4  N   UNL d   1      26.396 -17.512  -0.700  0.00  0.00    -0.173 NA
ATOM      5  N   UNL d   1      27.042 -16.863   0.179  0.00  0.00    -0.154 NA
ENDROOT
BRANCH   1   6
ATOM      6  C   UNL d   1      27.030 -14.553   1.170  0.00  0.00    -0.003 A 
ATOM      7  C   UNL d   1      28.197 -14.698   1.944  0.00  0.00     0.053 A 
ATOM      8  C   UNL d   1      28.794 -13.591   2.592  0.00  0.00     0.102 A 
ATOM      9  C   UNL d   1      28.146 -12.328   2.469  0.00  0.00     0.102 A 
ATOM     10  C   UNL d   1      26.929 -12.227   1.782  0.00  0.00     0.040 A 
ATOM     11  C   UNL d   1      26.370 -13.323   1.146  0.00  0.00     0.017 A 
BRANCH   8  12
ATOM     12  O   UNL d   1      30.095 -13.848   2.997  0.00  0.00    -0.353 OA
ATOM     13  C   UNL d   1      30.405 -14.774   4.047  0.00  0.00     0.210 C 
ENDBRANCH   8  12
BRANCH   9  14
ATOM     14  O   UNL d   1      28.529 -11.058   2.874  0.00  0.00    -0.344 OA
BRANCH  14  15
ATOM     15  C   UNL d   1      27.908 -10.734   4.079  0.00  0.00     0.214 C 
BRANCH  15  16
ATOM     16  C   UNL d   1      28.300 -11.396   5.355  0.00  0.00    -0.034 A 
ATOM     17  C   UNL d   1      27.916 -12.711   5.585  0.00  0.00     0.009 A 
ATOM     18  C   UNL d   1      28.155 -13.277   6.826  0.00  0.00     0.001 A 
ATOM     19  C   UNL d   1      28.819 -12.544   7.814  0.00  0.00     0.000 A 
ATOM     20  C   UNL d   1      29.145 -11.206   7.611  0.00  0.00     0.001 A 
ATOM     21  C   UNL d   1      28.854 -10.620   6.391  0.00  0.00     0.009 A 
ENDBRANCH  15  16
ENDBRANCH  14  15
ENDBRANCH   9  14
ENDBRANCH   1   6
BRANCH   3  22
ATOM     22  C   UNL d   1      23.978 -17.250  -1.170  0.00  0.00     0.268 C 
ATOM     23  O   UNL d   1      22.970 -16.565  -1.266  0.00  0.00    -0.269 OA
ATOM     24  N   UNL d   1      23.964 -18.607  -0.802  0.00  0.00    -0.245 N 
ATOM     25  H   UNL d   1      24.795 -19.180  -0.798  0.00  0.00     0.192 HD
BRANCH  24  26
ATOM     26  N   UNL d   1      22.755 -19.206  -0.603  0.00  0.00    -0.184 NA
ATOM     27  C   UNL d   1      21.944 -18.696   0.269  0.00  0.00     0.152 C 
BRANCH  27  28
ATOM     28  C   UNL d   1      20.652 -19.357   0.584  0.00  0.00     0.016 A 
ATOM     29  C   UNL d   1      20.287 -19.571   1.919  0.00  0.00     0.016 A 
ATOM     30  C   UNL d   1      19.121 -20.289   2.215  0.00  0.00     0.001 A 
ATOM     31  C   UNL d   1      18.292 -20.736   1.185  0.00  0.00     0.003 A 
ATOM     32  C   UNL d   1      18.643 -20.504  -0.146  0.00  0.00     0.037 A 
ATOM     33  C   UNL d   1      19.827 -19.831  -0.443  0.00  0.00     0.077 A 
BRANCH  33  34
ATOM     34  O   UNL d   1      20.215 -19.698  -1.745  0.00  0.00    -0.360 OA
ATOM     35  H   UNL d   1      21.166 -19.522  -1.798  0.00  0.00     0.217 HD
ENDBRANCH  33  34
ENDBRANCH  27  28
ENDBRANCH  24  26
ENDBRANCH   3  22
TORSDOF 9
ENDMDL
MODEL 4
REMARK VINA RESULT:    -8.985      5.505      7.788
REMARK INTER + INTRA:         -14.114
REMARK INTER:                 -11.670
REMARK INTRA:                  -2.445
REMARK CONF_INDEPENDENT:        2.685
REMARK UNBOUND:                -2.445
REMARK  9 active torsions:
REMARK  status: ('A' for Active; 'I' for Inactive)
REMARK    1  A    between atoms: O_2  and  C_3 
REMARK    2  A    between atoms: C_5  and  C_6 
REMARK    3  A    between atoms: C_8  and  C_9 
REMARK       I    between atoms: C_9  and  N_11 
REMARK    4  A    between atoms: N_11  and  N_12 
REMARK    5  A    between atoms: C_13  and  C_14 
REMARK    6  A    between atoms: C_19  and  O_20 
REMARK    7  A    between atoms: C_25  and  O_26 
REMARK    8  A    between atoms: O_26  and  C_27 
REMARK    9  A    between atoms: C_27  and  C_28 
ROOT
ATOM      1  C   UNL d   1      26.248 -15.241  -1.780  0.00  0.00     0.087 A 
ATOM      2  C   UNL d   1      26.185 -16.569  -1.907  0.00  0.00     0.046 A 
ATOM      3  C   UNL d   1      25.772 -17.080  -0.582  0.00  0.00     0.249 A 
ATOM      4  N   UNL d   1      25.696 -15.818   0.220  0.00  0.00    -0.173 NA
ATOM      5  N   UNL d   1      25.984 -14.818  -0.507  0.00  0.00    -0.154 NA
ENDROOT
BRANCH   1   6
ATOM      6  C   UNL d   1      26.552 -14.370  -2.915  0.00  0.00    -0.003 A 
ATOM      7  C   UNL d   1      27.222 -14.832  -4.064  0.00  0.00     0.053 A 
ATOM      8  C   UNL d   1      27.224 -14.085  -5.266  0.00  0.00     0.102 A 
ATOM      9  C   UNL d   1      26.559 -12.825  -5.259  0.00  0.00     0.102 A 
ATOM     10  C   UNL d   1      25.991 -12.338  -4.076  0.00  0.00     0.040 A 
ATOM     11  C   UNL d   1      25.991 -13.092  -2.915  0.00  0.00     0.017 A 
BRANCH   8  12
ATOM     12  O   UNL d   1      27.614 -14.840  -6.362  0.00  0.00    -0.353 OA
ATOM     13  C   UNL d   1      28.687 -14.442  -7.227  0.00  0.00     0.210 C 
ENDBRANCH   8  12
BRANCH   9  14
ATOM     14  O   UNL d   1      26.285 -11.928  -6.280  0.00  0.00    -0.344 OA
BRANCH  14  15
ATOM     15  C   UNL d   1      26.761 -10.661  -5.944  0.00  0.00     0.214 C 
BRANCH  15  16
ATOM     16  C   UNL d   1      25.834  -9.566  -5.545  0.00  0.00    -0.034 A 
ATOM     17  C   UNL d   1      25.064  -8.939  -6.517  0.00  0.00     0.009 A 
ATOM     18  C   UNL d   1      24.311  -7.830  -6.170  0.00  0.00     0.001 A 
ATOM     19  C   UNL d   1      24.293  -7.381  -4.846  0.00  0.00     0.000 A 
ATOM     20  C   UNL d   1      25.114  -7.965  -3.885  0.00  0.00     0.001 A 
ATOM     21  C   UNL d   1      25.912  -9.038  -4.243  0.00  0.00     0.009 A 
ENDBRANCH  15  16
ENDBRANCH  14  15
ENDBRANCH   9  14
ENDBRANCH   1   6
BRANCH   3  22
ATOM     22  C   UNL d   1      24.395 -17.790  -0.523  0.00  0.00     0.268 C 
ATOM     23  O   UNL d   1      24.275 -18.954  -0.877  0.00  0.00    -0.269 OA
ATOM     24  N   UNL d   1      23.314 -16.982  -0.129  0.00  0.00    -0.245 N 
ATOM     25  H   UNL d   1      23.435 -16.046   0.230  0.00  0.00     0.192 HD
BRANCH  24  26
ATOM     26  N   UNL d   1      22.075 -17.548  -0.079  0.00  0.00    -0.184 NA
ATOM     27  C   UNL d   1      21.906 -18.617   0.634  0.00  0.00     0.152 C 
BRANCH  27  28
ATOM     28  C   UNL d   1      20.599 -19.319   0.655  0.00  0.00     0.016 A 
ATOM     29  C   UNL d   1      20.010 -19.656   1.880  0.00  0.00     0.016 A 
ATOM     30  C   UNL d   1      18.830 -20.412   1.899  0.00  0.00     0.001 A 
ATOM     31  C   UNL d   1      18.209 -20.776   0.703  0.00  0.00     0.003 A 
ATOM     32  C   UNL d   1      18.784 -20.422  -0.519  0.00  0.00     0.037 A 
ATOM     33  C   UNL d   1      19.982 -19.710  -0.540  0.00  0.00     0.077 A 
BRANCH  33  34
ATOM     34  O   UNL d   1      20.591 -19.457  -1.736  0.00  0.00    -0.360 OA
ATOM     35  H   UNL d   1      21.350 -18.867  -1.611  0.00  0.00     0.217 HD
ENDBRANCH  33  34
ENDBRANCH  27  28
ENDBRANCH  24  26
ENDBRANCH   3  22
TORSDOF 9
ENDMDL
MODEL 5
REMARK VINA RESULT:    -8.931      5.405      8.631
REMARK INTER + INTRA:         -14.051
REMARK INTER:                 -11.616
REMARK INTRA:                  -2.436
REMARK CONF_INDEPENDENT:        2.685
REMARK UNBOUND:                -2.436
REMARK  9 active torsions:
REMARK  status: ('A' for Active; 'I' for Inactive)
REMARK    1  A    between atoms: O_2  and  C_3 
REMARK    2  A    between atoms: C_5  and  C_6 
REMARK    3  A    between atoms: C_8  and  C_9 
REMARK       I    between atoms: C_9  and  N_11 
REMARK    4  A    between atoms: N_11  and  N_12 
REMARK    5  A    between atoms: C_13  and  C_14 
REMARK    6  A    between atoms: C_19  and  O_20 
REMARK    7  A    between atoms: C_25  and  O_26 
REMARK    8  A    between atoms: O_26  and  C_27 
REMARK    9  A    between atoms: C_27  and  C_28 
ROOT
ATOM      1  C   UNL d   1      26.635 -15.889  -1.680  0.00  0.00     0.087 A 
ATOM      2  C   UNL d   1      26.598 -17.175  -1.321  0.00  0.00     0.046 A 
ATOM      3  C   UNL d   1      25.840 -17.217  -0.053  0.00  0.00     0.249 A 
ATOM      4  N   UNL d   1      25.561 -15.764   0.183  0.00  0.00    -0.173 NA
ATOM      5  N   UNL d   1      26.041 -15.067  -0.763  0.00  0.00    -0.154 NA
ENDROOT
BRANCH   1   6
ATOM      6  C   UNL d   1      27.240 -15.455  -2.939  0.00  0.00    -0.003 A 
ATOM      7  C   UNL d   1      28.582 -15.729  -3.267  0.00  0.00     0.053 A 
ATOM      8  C   UNL d   1      29.058 -15.595  -4.593  0.00  0.00     0.102 A 
ATOM      9  C   UNL d   1      28.140 -15.129  -5.578  0.00  0.00     0.102 A 
ATOM     10  C   UNL d   1      26.840 -14.761  -5.208  0.00  0.00     0.040 A 
ATOM     11  C   UNL d   1      26.394 -14.912  -3.906  0.00  0.00     0.017 A 
BRANCH   8  12
ATOM     12  O   UNL d   1      30.272 -16.236  -4.790  0.00  0.00    -0.353 OA
ATOM     13  C   UNL d   1      30.522 -17.569  -4.324  0.00  0.00     0.210 C 
ENDBRANCH   8  12
BRANCH   9  14
ATOM     14  O   UNL d   1      28.258 -15.005  -6.954  0.00  0.00    -0.344 OA
BRANCH  14  15
ATOM     15  C   UNL d   1      28.956 -13.841  -7.271  0.00  0.00     0.214 C 
BRANCH  15  16
ATOM     16  C   UNL d   1      28.259 -12.645  -7.821  0.00  0.00    -0.034 A 
ATOM     17  C   UNL d   1      27.539 -11.822  -6.963  0.00  0.00     0.009 A 
ATOM     18  C   UNL d   1      26.776 -10.796  -7.495  0.00  0.00     0.001 A 
ATOM     19  C   UNL d   1      26.772 -10.566  -8.873  0.00  0.00     0.000 A 
ATOM     20  C   UNL d   1      27.438 -11.428  -9.741  0.00  0.00     0.001 A 
ATOM     21  C   UNL d   1      28.155 -12.490  -9.216  0.00  0.00     0.009 A 
ENDBRANCH  15  16
ENDBRANCH  14  15
ENDBRANCH   9  14
ENDBRANCH   1   6
BRANCH   3  22
ATOM     22  C   UNL d   1      24.493 -17.983  -0.088  0.00  0.00     0.268 C 
ATOM     23  O   UNL d   1      24.468 -19.203  -0.159  0.00  0.00    -0.269 OA
ATOM     24  N   UNL d   1      23.340 -17.178  -0.123  0.00  0.00    -0.245 N 
ATOM     25  H   UNL d   1      23.369 -16.177   0.010  0.00  0.00     0.192 HD
BRANCH  24  26
ATOM     26  N   UNL d   1      22.126 -17.797  -0.175  0.00  0.00    -0.184 NA
ATOM     27  C   UNL d   1      21.781 -18.575   0.802  0.00  0.00     0.152 C 
BRANCH  27  28
ATOM     28  C   UNL d   1      20.509 -19.337   0.754  0.00  0.00     0.016 A 
ATOM     29  C   UNL d   1      19.916 -19.778   1.944  0.00  0.00     0.016 A 
ATOM     30  C   UNL d   1      18.774 -20.587   1.894  0.00  0.00     0.001 A 
ATOM     31  C   UNL d   1      18.191 -20.904   0.666  0.00  0.00     0.003 A 
ATOM     32  C   UNL d   1      18.768 -20.448  -0.520  0.00  0.00     0.037 A 
ATOM     33  C   UNL d   1      19.931 -19.681  -0.474  0.00  0.00     0.077 A 
BRANCH  33  34
ATOM     34  O   UNL d   1      20.546 -19.325  -1.640  0.00  0.00    -0.360 OA
ATOM     35  H   UNL d   1      20.605 -18.361  -1.711  0.00  0.00     0.217 HD
ENDBRANCH  33  34
ENDBRANCH  27  28
ENDBRANCH  24  26
ENDBRANCH   3  22
TORSDOF 9
ENDMDL
MODEL 6
REMARK VINA RESULT:    -8.820      5.416      7.548
REMARK INTER + INTRA:         -14.264
REMARK INTER:                 -11.505
REMARK INTRA:                  -2.759
REMARK CONF_INDEPENDENT:        2.685
REMARK UNBOUND:                -2.759
REMARK  9 active torsions:
REMARK  status: ('A' for Active; 'I' for Inactive)
REMARK    1  A    between atoms: O_2  and  C_3 
REMARK    2  A    between atoms: C_5  and  C_6 
REMARK    3  A    between atoms: C_8  and  C_9 
REMARK       I    between atoms: C_9  and  N_11 
REMARK    4  A    between atoms: N_11  and  N_12 
REMARK    5  A    between atoms: C_13  and  C_14 
REMARK    6  A    between atoms: C_19  and  O_20 
REMARK    7  A    between atoms: C_25  and  O_26 
REMARK    8  A    between atoms: O_26  and  C_27 
REMARK    9  A    between atoms: C_27  and  C_28 
ROOT
ATOM      1  C   UNL d   1      25.616 -14.916  -2.106  0.00  0.00     0.087 A 
ATOM      2  C   UNL d   1      25.358 -16.082  -2.705  0.00  0.00     0.046 A 
ATOM      3  C   UNL d   1      25.292 -17.085  -1.620  0.00  0.00     0.249 A 
ATOM      4  N   UNL d   1      25.609 -16.252  -0.417  0.00  0.00    -0.173 NA
ATOM      5  N   UNL d   1      25.790 -15.042  -0.756  0.00  0.00    -0.154 NA
ENDROOT
BRANCH   1   6
ATOM      6  C   UNL d   1      25.677 -13.661  -2.854  0.00  0.00    -0.003 A 
ATOM      7  C   UNL d   1      26.334 -12.518  -2.361  0.00  0.00     0.053 A 
ATOM      8  C   UNL d   1      26.663 -11.433  -3.208  0.00  0.00     0.102 A 
ATOM      9  C   UNL d   1      26.265 -11.521  -4.574  0.00  0.00     0.102 A 
ATOM     10  C   UNL d   1      25.519 -12.620  -5.018  0.00  0.00     0.040 A 
ATOM     11  C   UNL d   1      25.219 -13.674  -4.173  0.00  0.00     0.017 A 
BRANCH   8  12
ATOM     12  O   UNL d   1      27.600 -10.581  -2.644  0.00  0.00    -0.353 OA
ATOM     13  C   UNL d   1      27.227  -9.451  -1.843  0.00  0.00     0.210 C 
ENDBRANCH   8  12
BRANCH   9  14
ATOM     14  O   UNL d   1      26.533 -10.702  -5.660  0.00  0.00    -0.344 OA
BRANCH  14  15
ATOM     15  C   UNL d   1      25.357 -10.099  -6.105  0.00  0.00     0.214 C 
BRANCH  15  16
ATOM     16  C   UNL d   1      24.886  -8.806  -5.535  0.00  0.00    -0.034 A 
ATOM     17  C   UNL d   1      23.999  -8.024  -6.265  0.00  0.00     0.009 A 
ATOM     18  C   UNL d   1      23.675  -6.760  -5.801  0.00  0.00     0.001 A 
ATOM     19  C   UNL d   1      24.199  -6.302  -4.589  0.00  0.00     0.000 A 
ATOM     20  C   UNL d   1      25.139  -7.054  -3.890  0.00  0.00     0.001 A 
ATOM     21  C   UNL d   1      25.509  -8.294  -4.382  0.00  0.00     0.009 A 
ENDBRANCH  15  16
ENDBRANCH  14  15
ENDBRANCH   9  14
ENDBRANCH   1   6
BRANCH   3  22
ATOM     22  C   UNL d   1      23.918 -17.768  -1.405  0.00  0.00     0.268 C 
ATOM     23  O   UNL d   1      23.570 -18.709  -2.104  0.00  0.00    -0.269 OA
ATOM     24  N   UNL d   1      23.095 -17.177  -0.431  0.00  0.00    -0.245 N 
ATOM     25  H   UNL d   1      23.419 -16.449   0.189  0.00  0.00     0.192 HD
BRANCH  24  26
ATOM     26  N   UNL d   1      21.865 -17.723  -0.212  0.00  0.00    -0.184 NA
ATOM     27  C   UNL d   1      21.772 -18.761   0.559  0.00  0.00     0.152 C 
BRANCH  27  28
ATOM     28  C   UNL d   1      20.470 -19.444   0.762  0.00  0.00     0.016 A 
ATOM     29  C   UNL d   1      20.020 -19.712   2.061  0.00  0.00     0.016 A 
ATOM     30  C   UNL d   1      18.845 -20.451   2.251  0.00  0.00     0.001 A 
ATOM     31  C   UNL d   1      18.091 -20.865   1.152  0.00  0.00     0.003 A 
ATOM     32  C   UNL d   1      18.526 -20.580  -0.143  0.00  0.00     0.037 A 
ATOM     33  C   UNL d   1      19.720 -19.885  -0.335  0.00  0.00     0.077 A 
BRANCH  33  34
ATOM     34  O   UNL d   1      20.192 -19.700  -1.602  0.00  0.00    -0.360 OA
ATOM     35  H   UNL d   1      21.030 -19.214  -1.583  0.00  0.00     0.217 HD
ENDBRANCH  33  34
ENDBRANCH  27  28
ENDBRANCH  24  26
ENDBRANCH   3  22
TORSDOF 9
ENDMDL
MODEL 7
REMARK VINA RESULT:    -8.769      5.372      8.396
REMARK INTER + INTRA:         -13.728
REMARK INTER:                 -11.454
REMARK INTRA:                  -2.274
REMARK CONF_INDEPENDENT:        2.685
REMARK UNBOUND:                -2.274
REMARK  9 active torsions:
REMARK  status: ('A' for Active; 'I' for Inactive)
REMARK    1  A    between atoms: O_2  and  C_3 
REMARK    2  A    between atoms: C_5  and  C_6 
REMARK    3  A    between atoms: C_8  and  C_9 
REMARK       I    between atoms: C_9  and  N_11 
REMARK    4  A    between atoms: N_11  and  N_12 
REMARK    5  A    between atoms: C_13  and  C_14 
REMARK    6  A    between atoms: C_19  and  O_20 
REMARK    7  A    between atoms: C_25  and  O_26 
REMARK    8  A    between atoms: O_26  and  C_27 
REMARK    9  A    between atoms: C_27  and  C_28 
ROOT
ATOM      1  C   UNL d   1      25.707 -15.038  -2.017  0.00  0.00     0.087 A 
ATOM      2  C   UNL d   1      25.421 -16.205  -2.601  0.00  0.00     0.046 A 
ATOM      3  C   UNL d   1      25.326 -17.191  -1.503  0.00  0.00     0.249 A 
ATOM      4  N   UNL d   1      25.660 -16.350  -0.309  0.00  0.00    -0.173 NA
ATOM      5  N   UNL d   1      25.873 -15.150  -0.665  0.00  0.00    -0.154 NA
ENDROOT
BRANCH   1   6
ATOM      6  C   UNL d   1      25.804 -13.795  -2.781  0.00  0.00    -0.003 A 
ATOM      7  C   UNL d   1      26.203 -12.577  -2.198  0.00  0.00     0.053 A 
ATOM      8  C   UNL d   1      26.600 -11.475  -2.992  0.00  0.00     0.102 A 
ATOM      9  C   UNL d   1      26.539 -11.628  -4.407  0.00  0.00     0.102 A 
ATOM     10  C   UNL d   1      26.037 -12.810  -4.965  0.00  0.00     0.040 A 
ATOM     11  C   UNL d   1      25.666 -13.880  -4.168  0.00  0.00     0.017 A 
BRANCH   8  12
ATOM     12  O   UNL d   1      27.285 -10.513  -2.264  0.00  0.00    -0.353 OA
ATOM     13  C   UNL d   1      26.682  -9.272  -1.874  0.00  0.00     0.210 C 
ENDBRANCH   8  12
BRANCH   9  14
ATOM     14  O   UNL d   1      26.959 -10.799  -5.437  0.00  0.00    -0.344 OA
BRANCH  14  15
ATOM     15  C   UNL d   1      26.286 -11.121  -6.614  0.00  0.00     0.214 C 
BRANCH  15  16
ATOM     16  C   UNL d   1      27.024 -11.397  -7.878  0.00  0.00    -0.034 A 
ATOM     17  C   UNL d   1      26.464 -11.013  -9.091  0.00  0.00     0.009 A 
ATOM     18  C   UNL d   1      27.081 -11.397 -10.270  0.00  0.00     0.001 A 
ATOM     19  C   UNL d   1      28.276 -12.119 -10.233  0.00  0.00     0.000 A 
ATOM     20  C   UNL d   1      28.804 -12.562  -9.024  0.00  0.00     0.001 A 
ATOM     21  C   UNL d   1      28.158 -12.230  -7.845  0.00  0.00     0.009 A 
ENDBRANCH  15  16
ENDBRANCH  14  15
ENDBRANCH   9  14
ENDBRANCH   1   6
BRANCH   3  22
ATOM     22  C   UNL d   1      23.934 -17.836  -1.284  0.00  0.00     0.268 C 
ATOM     23  O   UNL d   1      23.556 -18.764  -1.984  0.00  0.00    -0.269 OA
ATOM     24  N   UNL d   1      23.131 -17.223  -0.305  0.00  0.00    -0.245 N 
ATOM     25  H   UNL d   1      23.478 -16.506   0.316  0.00  0.00     0.192 HD
BRANCH  24  26
ATOM     26  N   UNL d   1      21.887 -17.735  -0.082  0.00  0.00    -0.184 NA
ATOM     27  C   UNL d   1      21.780 -18.853   0.564  0.00  0.00     0.152 C 
BRANCH  27  28
ATOM     28  C   UNL d   1      20.456 -19.495   0.759  0.00  0.00     0.016 A 
ATOM     29  C   UNL d   1      20.000 -19.771   2.054  0.00  0.00     0.016 A 
ATOM     30  C   UNL d   1      18.800 -20.472   2.235  0.00  0.00     0.001 A 
ATOM     31  C   UNL d   1      18.030 -20.841   1.131  0.00  0.00     0.003 A 
ATOM     32  C   UNL d   1      18.472 -20.548  -0.160  0.00  0.00     0.037 A 
ATOM     33  C   UNL d   1      19.688 -19.891  -0.343  0.00  0.00     0.077 A 
BRANCH  33  34
ATOM     34  O   UNL d   1      20.163 -19.699  -1.609  0.00  0.00    -0.360 OA
ATOM     35  H   UNL d   1      21.128 -19.606  -1.597  0.00  0.00     0.217 HD
ENDBRANCH  33  34
ENDBRANCH  27  28
ENDBRANCH  24  26
ENDBRANCH   3  22
TORSDOF 9
ENDMDL
MODEL 8
REMARK VINA RESULT:    -8.589      5.556     10.848
REMARK INTER + INTRA:         -13.684
REMARK INTER:                 -11.274
REMARK INTRA:                  -2.410
REMARK CONF_INDEPENDENT:        2.685
REMARK UNBOUND:                -2.410
REMARK  9 active torsions:
REMARK  status: ('A' for Active; 'I' for Inactive)
REMARK    1  A    between atoms: O_2  and  C_3 
REMARK    2  A    between atoms: C_5  and  C_6 
REMARK    3  A    between atoms: C_8  and  C_9 
REMARK       I    between atoms: C_9  and  N_11 
REMARK    4  A    between atoms: N_11  and  N_12 
REMARK    5  A    between atoms: C_13  and  C_14 
REMARK    6  A    between atoms: C_19  and  O_20 
REMARK    7  A    between atoms: C_25  and  O_26 
REMARK    8  A    between atoms: O_26  and  C_27 
REMARK    9  A    between atoms: C_27  and  C_28 
ROOT
ATOM      1  C   UNL d   1      26.148 -13.977  -3.067  0.00  0.00     0.087 A 
ATOM      2  C   UNL d   1      26.769 -12.989  -2.417  0.00  0.00     0.046 A 
ATOM      3  C   UNL d   1      27.161 -12.010  -3.453  0.00  0.00     0.249 A 
ATOM      4  N   UNL d   1      26.692 -12.688  -4.704  0.00  0.00    -0.173 NA
ATOM      5  N   UNL d   1      26.139 -13.795  -4.421  0.00  0.00    -0.154 NA
ENDROOT
BRANCH   1   6
ATOM      6  C   UNL d   1      25.542 -15.105  -2.360  0.00  0.00    -0.003 A 
ATOM      7  C   UNL d   1      26.282 -15.956  -1.518  0.00  0.00     0.053 A 
ATOM      8  C   UNL d   1      25.642 -16.826  -0.603  0.00  0.00     0.102 A 
ATOM      9  C   UNL d   1      24.217 -16.842  -0.596  0.00  0.00     0.102 A 
ATOM     10  C   UNL d   1      23.502 -16.065  -1.517  0.00  0.00     0.040 A 
ATOM     11  C   UNL d   1      24.151 -15.213  -2.394  0.00  0.00     0.017 A 
BRANCH   8  12
ATOM     12  O   UNL d   1      26.507 -17.309   0.367  0.00  0.00    -0.353 OA
ATOM     13  C   UNL d   1      26.701 -18.712   0.595  0.00  0.00     0.210 C 
ENDBRANCH   8  12
BRANCH   9  14
ATOM     14  O   UNL d   1      23.312 -17.478   0.240  0.00  0.00    -0.344 OA
BRANCH  14  15
ATOM     15  C   UNL d   1      22.857 -18.654  -0.355  0.00  0.00     0.214 C 
BRANCH  15  16
ATOM     16  C   UNL d   1      21.484 -19.171  -0.098  0.00  0.00    -0.034 A 
ATOM     17  C   UNL d   1      20.605 -19.325  -1.162  0.00  0.00     0.009 A 
ATOM     18  C   UNL d   1      19.288 -19.668  -0.905  0.00  0.00     0.001 A 
ATOM     19  C   UNL d   1      18.867 -19.902   0.407  0.00  0.00     0.000 A 
ATOM     20  C   UNL d   1      19.727 -19.684   1.480  0.00  0.00     0.001 A 
ATOM     21  C   UNL d   1      21.029 -19.285   1.229  0.00  0.00     0.009 A 
ENDBRANCH  15  16
ENDBRANCH  14  15
ENDBRANCH   9  14
ENDBRANCH   1   6
BRANCH   3  22
ATOM     22  C   UNL d   1      26.492 -10.615  -3.363  0.00  0.00     0.268 C 
ATOM     23  O   UNL d   1      26.851  -9.802  -2.524  0.00  0.00    -0.269 OA
ATOM     24  N   UNL d   1      25.410 -10.406  -4.237  0.00  0.00    -0.245 N 
ATOM     25  H   UNL d   1      25.170 -11.054  -4.973  0.00  0.00     0.192 HD
BRANCH  24  26
ATOM     26  N   UNL d   1      24.769  -9.203  -4.188  0.00  0.00    -0.184 NA
ATOM     27  C   UNL d   1      24.399  -8.648  -5.298  0.00  0.00     0.152 C 
BRANCH  27  28
ATOM     28  C   UNL d   1      23.774  -7.302  -5.305  0.00  0.00     0.016 A 
ATOM     29  C   UNL d   1      22.893  -6.949  -6.335  0.00  0.00     0.016 A 
ATOM     30  C   UNL d   1      22.386  -5.645  -6.401  0.00  0.00     0.001 A 
ATOM     31  C   UNL d   1      22.709  -4.716  -5.410  0.00  0.00     0.003 A 
ATOM     32  C   UNL d   1      23.570  -5.073  -4.370  0.00  0.00     0.037 A 
ATOM     33  C   UNL d   1      24.111  -6.356  -4.330  0.00  0.00     0.077 A 
BRANCH  33  34
ATOM     34  O   UNL d   1      25.032  -6.666  -3.370  0.00  0.00    -0.360 OA
ATOM     35  H   UNL d   1      24.770  -7.471  -2.897  0.00  0.00     0.217 HD
ENDBRANCH  33  34
ENDBRANCH  27  28
ENDBRANCH  24  26
ENDBRANCH   3  22
TORSDOF 9
ENDMDL
MODEL 9
REMARK VINA RESULT:    -8.428      5.371      7.471
REMARK INTER + INTRA:         -14.150
REMARK INTER:                 -11.113
REMARK INTRA:                  -3.037
REMARK CONF_INDEPENDENT:        2.685
REMARK UNBOUND:                -3.037
REMARK  9 active torsions:
REMARK  status: ('A' for Active; 'I' for Inactive)
REMARK    1  A    between atoms: O_2  and  C_3 
REMARK    2  A    between atoms: C_5  and  C_6 
REMARK    3  A    between atoms: C_8  and  C_9 
REMARK       I    between atoms: C_9  and  N_11 
REMARK    4  A    between atoms: N_11  and  N_12 
REMARK    5  A    between atoms: C_13  and  C_14 
REMARK    6  A    between atoms: C_19  and  O_20 
REMARK    7  A    between atoms: C_25  and  O_26 
REMARK    8  A    between atoms: O_26  and  C_27 
REMARK    9  A    between atoms: C_27  and  C_28 
ROOT
ATOM      1  C   UNL d   1      25.758 -15.166  -1.812  0.00  0.00     0.087 A 
ATOM      2  C   UNL d   1      25.501 -16.326  -2.422  0.00  0.00     0.046 A 
ATOM      3  C   UNL d   1      25.360 -17.325  -1.340  0.00  0.00     0.249 A 
ATOM      4  N   UNL d   1      25.638 -16.497  -0.124  0.00  0.00    -0.173 NA
ATOM      5  N   UNL d   1      25.863 -15.293  -0.455  0.00  0.00    -0.154 NA
ENDROOT
BRANCH   1   6
ATOM      6  C   UNL d   1      25.885 -13.914  -2.558  0.00  0.00    -0.003 A 
ATOM      7  C   UNL d   1      26.814 -12.916  -2.208  0.00  0.00     0.053 A 
ATOM      8  C   UNL d   1      27.151 -11.874  -3.105  0.00  0.00     0.102 A 
ATOM      9  C   UNL d   1      26.480 -11.847  -4.362  0.00  0.00     0.102 A 
ATOM     10  C   UNL d   1      25.482 -12.787  -4.646  0.00  0.00     0.040 A 
ATOM     11  C   UNL d   1      25.179 -13.804  -3.757  0.00  0.00     0.017 A 
BRANCH   8  12
ATOM     12  O   UNL d   1      28.314 -11.213  -2.742  0.00  0.00    -0.353 OA
ATOM     13  C   UNL d   1      29.617 -11.704  -3.086  0.00  0.00     0.210 C 
ENDBRANCH   8  12
BRANCH   9  14
ATOM     14  O   UNL d   1      26.663 -11.048  -5.480  0.00  0.00    -0.344 OA
BRANCH  14  15
ATOM     15  C   UNL d   1      27.032 -11.832  -6.573  0.00  0.00     0.214 C 
BRANCH  15  16
ATOM     16  C   UNL d   1      28.134 -12.829  -6.474  0.00  0.00    -0.034 A 
ATOM     17  C   UNL d   1      29.405 -12.483  -6.916  0.00  0.00     0.009 A 
ATOM     18  C   UNL d   1      30.392 -13.454  -6.957  0.00  0.00     0.001 A 
ATOM     19  C   UNL d   1      30.120 -14.750  -6.512  0.00  0.00     0.000 A 
ATOM     20  C   UNL d   1      28.832 -15.116  -6.130  0.00  0.00     0.001 A 
ATOM     21  C   UNL d   1      27.829 -14.162  -6.144  0.00  0.00     0.009 A 
ENDBRANCH  15  16
ENDBRANCH  14  15
ENDBRANCH   9  14
ENDBRANCH   1   6
BRANCH   3  22
ATOM     22  C   UNL d   1      23.961 -17.975  -1.191  0.00  0.00     0.268 C 
ATOM     23  O   UNL d   1      23.627 -18.913  -1.901  0.00  0.00    -0.269 OA
ATOM     24  N   UNL d   1      23.103 -17.358  -0.263  0.00  0.00    -0.245 N 
ATOM     25  H   UNL d   1      23.412 -16.633   0.368  0.00  0.00     0.192 HD
BRANCH  24  26
ATOM     26  N   UNL d   1      21.851 -17.875  -0.104  0.00  0.00    -0.184 NA
ATOM     27  C   UNL d   1      21.707 -18.950   0.605  0.00  0.00     0.152 C 
BRANCH  27  28
ATOM     28  C   UNL d   1      20.379 -19.599   0.739  0.00  0.00     0.016 A 
ATOM     29  C   UNL d   1      19.906 -19.960   2.007  0.00  0.00     0.016 A 
ATOM     30  C   UNL d   1      18.703 -20.668   2.125  0.00  0.00     0.001 A 
ATOM     31  C   UNL d   1      17.946 -20.960   0.989  0.00  0.00     0.003 A 
ATOM     32  C   UNL d   1      18.405 -20.582  -0.274  0.00  0.00     0.037 A 
ATOM     33  C   UNL d   1      19.625 -19.918  -0.396  0.00  0.00     0.077 A 
BRANCH  33  34
ATOM     34  O   UNL d   1      20.117 -19.644  -1.640  0.00  0.00    -0.360 OA
ATOM     35  H   UNL d   1      21.004 -19.260  -1.576  0.00  0.00     0.217 HD
ENDBRANCH  33  34
ENDBRANCH  27  28
ENDBRANCH  24  26
ENDBRANCH   3  22
TORSDOF 9
ENDMDL
