MODEL 1
REMARK VINA RESULT:   -28.440      0.000      0.000
REMARK INTER + INTRA:         -30.896
REMARK INTER:                 -29.633
REMARK INTRA:                  -1.262
REMARK CONF_INDEPENDENT:        1.193
REMARK UNBOUND:                -1.262
REMARK  4 active torsions:
REMARK  status: ('A' for Active; 'I' for Inactive)
REMARK    1  A    between atoms: C_2  and  C_3 
REMARK    2  A    between atoms: C_7  and  C_8 
REMARK       I    between atoms: C_8  and  N_10 
REMARK    3  A    between atoms: N_10  and  N_11 
REMARK       I    between atoms: N_11  and  C_12 
REMARK    4  A    between atoms: C_12  and  C_14 
ROOT
ATOM      1  C   UNL d   1      22.965 -18.422   0.084  0.00  0.00     0.273 C 
ATOM      2  O   UNL d   1      23.527 -18.574   1.175  0.00  0.00    -0.266 OA
ATOM      3  N   UNL d   1      23.643 -17.872  -0.993  0.00  0.00    -0.263 N 
ATOM      4  H   UNL d   1      23.234 -17.696  -1.897  0.00  0.00     0.190 HD
ENDROOT
BRANCH   3   5
ATOM      5  N   UNL d   1      24.996 -17.480  -0.910  0.00  0.00    -0.263 N 
ATOM      6  C   UNL d   1      25.482 -16.594  -1.866  0.00  0.00     0.270 C 
ATOM      7  O   UNL d   1      24.784 -16.145  -2.775  0.00  0.00    -0.266 OA
ATOM      8  H   UNL d   1      25.525 -17.809  -0.106  0.00  0.00     0.190 HD
BRANCH   6   9
ATOM      9  C   UNL d   1      26.920 -16.218  -1.767  0.00  0.00     0.033 A 
ATOM     10  C   UNL d   1      27.538 -15.465  -2.778  0.00  0.00     0.017 A 
ATOM     11  C   UNL d   1      28.920 -15.235  -2.739  0.00  0.00     0.001 A 
ATOM     12  C   UNL d   1      29.677 -15.703  -1.666  0.00  0.00     0.000 A 
ATOM     13  C   UNL d   1      29.065 -16.446  -0.657  0.00  0.00     0.001 A 
ATOM     14  C   UNL d   1      27.694 -16.713  -0.711  0.00  0.00     0.017 A 
ENDBRANCH   6   9
ENDBRANCH   3   5
BRANCH   1  15
ATOM     15  C   UNL d   1      21.563 -18.823  -0.113  0.00  0.00     0.076 A 
ATOM     16  C   UNL d   1      20.895 -18.935  -1.371  0.00  0.00     0.157 A 
ATOM     17  N   UNL d   1      19.622 -19.324  -1.269  0.00  0.00    -0.186 NA
ATOM     18  N   UNL d   1      19.446 -19.468   0.046  0.00  0.00    -0.282 N 
ATOM     19  C   UNL d   1      20.574 -19.206   0.789  0.00  0.00     0.044 A 
ATOM     20  H   UNL d   1      18.536 -19.780   0.375  0.00  0.00     0.189 HD
BRANCH  19  21
ATOM     21  C   UNL d   1      20.545 -19.424   2.257  0.00  0.00     0.055 C 
ATOM     22  C   UNL d   1      19.483 -20.451   2.611  0.00  0.00     0.011 C 
ENDBRANCH  19  21
ENDBRANCH   1  15
TORSDOF 4
ENDMDL
MODEL 2
REMARK VINA RESULT:   -25.956      2.360      3.162
REMARK INTER + INTRA:         -28.187
REMARK INTER:                 -27.149
REMARK INTRA:                  -1.038
REMARK CONF_INDEPENDENT:        1.193
REMARK UNBOUND:                -1.038
REMARK  4 active torsions:
REMARK  status: ('A' for Active; 'I' for Inactive)
REMARK    1  A    between atoms: C_2  and  C_3 
REMARK    2  A    between atoms: C_7  and  C_8 
REMARK       I    between atoms: C_8  and  N_10 
REMARK    3  A    between atoms: N_10  and  N_11 
REMARK       I    between atoms: N_11  and  C_12 
REMARK    4  A    between atoms: C_12  and  C_14 
ROOT
ATOM      1  C   UNL d   1      22.557 -16.570  -0.877  0.00  0.00     0.273 C 
ATOM      2  O   UNL d   1      22.218 -15.587  -0.208  0.00  0.00    -0.266 OA
ATOM      3  N   UNL d   1      23.712 -16.543  -1.643  0.00  0.00    -0.263 N 
ATOM      4  H   UNL d   1      24.026 -17.299  -2.231  0.00  0.00     0.190 HD
ENDROOT
BRANCH   3   5
ATOM      5  N   UNL d   1      24.561 -15.417  -1.684  0.00  0.00    -0.263 N 
ATOM      6  C   UNL d   1      25.287 -15.186  -2.848  0.00  0.00     0.270 C 
ATOM      7  O   UNL d   1      25.220 -15.920  -3.834  0.00  0.00    -0.266 OA
ATOM      8  H   UNL d   1      24.538 -14.790  -0.884  0.00  0.00     0.190 HD
BRANCH   6   9
ATOM      9  C   UNL d   1      26.194 -14.003  -2.853  0.00  0.00     0.033 A 
ATOM     10  C   UNL d   1      27.192 -13.859  -1.877  0.00  0.00     0.017 A 
ATOM     11  C   UNL d   1      27.946 -12.678  -1.812  0.00  0.00     0.001 A 
ATOM     12  C   UNL d   1      27.747 -11.668  -2.752  0.00  0.00     0.000 A 
ATOM     13  C   UNL d   1      26.760 -11.812  -3.727  0.00  0.00     0.001 A 
ATOM     14  C   UNL d   1      25.978 -12.970  -3.772  0.00  0.00     0.017 A 
ENDBRANCH   6   9
ENDBRANCH   3   5
BRANCH   1  15
ATOM     15  C   UNL d   1      21.753 -17.804  -0.881  0.00  0.00     0.076 A 
ATOM     16  C   UNL d   1      20.382 -17.905  -1.268  0.00  0.00     0.157 A 
ATOM     17  N   UNL d   1      19.892 -19.144  -1.185  0.00  0.00    -0.186 NA
ATOM     18  N   UNL d   1      20.930 -19.859  -0.743  0.00  0.00    -0.282 N 
ATOM     19  C   UNL d   1      22.076 -19.120  -0.564  0.00  0.00     0.044 A 
ATOM     20  H   UNL d   1      20.799 -20.859  -0.612  0.00  0.00     0.189 HD
BRANCH  19  21
ATOM     21  C   UNL d   1      23.332 -19.809  -0.172  0.00  0.00     0.055 C 
ATOM     22  C   UNL d   1      24.477 -18.813  -0.120  0.00  0.00     0.011 C 
ENDBRANCH  19  21
ENDBRANCH   1  15
TORSDOF 4
ENDMDL
