MODEL 1
REMARK VINA RESULT:    -9.263      0.000      0.000
REMARK INTER + INTRA:         -13.430
REMARK INTER:                 -11.650
REMARK INTRA:                  -1.781
REMARK CONF_INDEPENDENT:        2.386
REMARK UNBOUND:                -1.781
REMARK  8 active torsions:
REMARK  status: ('A' for Active; 'I' for Inactive)
REMARK    1  A    between atoms: C_2  and  C_14 
REMARK    2  A    between atoms: C_2  and  N_3 
REMARK       I    between atoms: N_3  and  C_4 
REMARK    3  A    between atoms: C_4  and  C_6 
REMARK    4  A    between atoms: C_7  and  C_8 
REMARK       I    between atoms: C_14  and  N_16 
REMARK    5  A    between atoms: N_16  and  N_17 
REMARK       I    between atoms: N_17  and  C_18 
REMARK    6  A    between atoms: C_18  and  C_20 
REMARK    7  A    between atoms: C_20  and  C_21 
REMARK    8  A    between atoms: C_21  and  C_22 
ROOT
ATOM      1  C   UNL d   1      26.751 -16.414  -0.618  0.00  0.00     0.258 C 
ATOM      2  O   UNL d   1      27.500 -17.384  -0.480  0.00  0.00    -0.269 OA
ATOM      3  N   UNL d   1      26.821 -15.317   0.238  0.00  0.00    -0.266 N 
ATOM      4  H   UNL d   1      26.253 -14.475   0.155  0.00  0.00     0.190 HD
ENDROOT
BRANCH   1   5
ATOM      5  C   UNL d   1      25.736 -16.292  -1.803  0.00  0.00     0.174 C 
ATOM      6  C   UNL d   1      25.465 -14.825  -2.129  0.00  0.00     0.042 C 
BRANCH   5   7
ATOM      7  N   UNL d   1      24.480 -17.071  -1.586  0.00  0.00    -0.345 N 
ATOM      8  C   UNL d   1      24.393 -18.203  -0.804  0.00  0.00     0.241 C 
ATOM      9  O   UNL d   1      25.319 -18.665  -0.137  0.00  0.00    -0.269 OA
ATOM     10  H   UNL d   1      23.693 -16.823  -2.174  0.00  0.00     0.163 HD
BRANCH   8  11
ATOM     11  C   UNL d   1      23.076 -18.880  -0.760  0.00  0.00     0.075 C 
ATOM     12  C   UNL d   1      22.210 -18.505   0.204  0.00  0.00     0.017 C 
BRANCH  12  13
ATOM     13  C   UNL d   1      20.903 -19.132   0.412  0.00  0.00    -0.036 A 
ATOM     14  C   UNL d   1      20.470 -19.499   1.694  0.00  0.00     0.011 A 
ATOM     15  C   UNL d   1      19.254 -20.170   1.860  0.00  0.00     0.001 A 
ATOM     16  C   UNL d   1      18.442 -20.428   0.756  0.00  0.00     0.000 A 
ATOM     17  C   UNL d   1      18.872 -20.076  -0.520  0.00  0.00     0.001 A 
ATOM     18  C   UNL d   1      20.105 -19.450  -0.691  0.00  0.00     0.011 A 
ENDBRANCH  12  13
ENDBRANCH   8  11
ENDBRANCH   5   7
ENDBRANCH   1   5
BRANCH   3  19
ATOM     19  N   UNL d   1      27.667 -15.357   1.372  0.00  0.00    -0.267 N 
ATOM     20  C   UNL d   1      27.642 -14.289   2.258  0.00  0.00     0.236 C 
ATOM     21  O   UNL d   1      26.923 -13.306   2.090  0.00  0.00    -0.272 OA
ATOM     22  H   UNL d   1      28.249 -16.186   1.487  0.00  0.00     0.190 HD
BRANCH  20  23
ATOM     23  C   UNL d   1      28.602 -14.431   3.423  0.00  0.00     0.105 C 
BRANCH  23  24
ATOM     24  C   UNL d   1      27.933 -14.901   4.730  0.00  0.00     0.014 C 
BRANCH  24  25
ATOM     25  C   UNL d   1      27.870 -13.808   5.822  0.00  0.00    -0.014 C 
ATOM     26  C   UNL d   1      28.908 -14.082   6.923  0.00  0.00     0.004 C 
ATOM     27  C   UNL d   1      29.022 -12.937   7.924  0.00  0.00     0.000 C 
ATOM     28  C   UNL d   1      29.271 -11.607   7.224  0.00  0.00     0.000 C 
ATOM     29  C   UNL d   1      28.157 -11.302   6.229  0.00  0.00     0.000 C 
ATOM     30  C   UNL d   1      28.049 -12.413   5.203  0.00  0.00     0.004 C 
ENDBRANCH  24  25
ENDBRANCH  23  24
ENDBRANCH  20  23
ENDBRANCH   3  19
TORSDOF 8
ENDMDL
MODEL 2
REMARK VINA RESULT:    -9.241      1.355      9.631
REMARK INTER + INTRA:         -14.125
REMARK INTER:                 -11.627
REMARK INTRA:                  -2.497
REMARK CONF_INDEPENDENT:        2.386
REMARK UNBOUND:                -2.497
REMARK  8 active torsions:
REMARK  status: ('A' for Active; 'I' for Inactive)
REMARK    1  A    between atoms: C_2  and  C_14 
REMARK    2  A    between atoms: C_2  and  N_3 
REMARK       I    between atoms: N_3  and  C_4 
REMARK    3  A    between atoms: C_4  and  C_6 
REMARK    4  A    between atoms: C_7  and  C_8 
REMARK       I    between atoms: C_14  and  N_16 
REMARK    5  A    between atoms: N_16  and  N_17 
REMARK       I    between atoms: N_17  and  C_18 
REMARK    6  A    between atoms: C_18  and  C_20 
REMARK    7  A    between atoms: C_20  and  C_21 
REMARK    8  A    between atoms: C_21  and  C_22 
ROOT
ATOM      1  C   UNL d   1      27.284 -17.420  -0.110  0.00  0.00     0.258 C 
ATOM      2  O   UNL d   1      27.650 -18.598  -0.136  0.00  0.00    -0.269 OA
ATOM      3  N   UNL d   1      25.934 -17.083  -0.035  0.00  0.00    -0.266 N 
ATOM      4  H   UNL d   1      25.574 -16.131   0.022  0.00  0.00     0.190 HD
ENDROOT
BRANCH   1   5
ATOM      5  C   UNL d   1      28.290 -16.223  -0.069  0.00  0.00     0.174 C 
ATOM      6  C   UNL d   1      29.706 -16.700  -0.383  0.00  0.00     0.042 C 
BRANCH   5   7
ATOM      7  N   UNL d   1      28.220 -15.436   1.199  0.00  0.00    -0.345 N 
ATOM      8  C   UNL d   1      27.282 -14.460   1.457  0.00  0.00     0.241 C 
ATOM      9  O   UNL d   1      26.350 -14.169   0.706  0.00  0.00    -0.269 OA
ATOM     10  H   UNL d   1      29.005 -15.538   1.832  0.00  0.00     0.163 HD
BRANCH   8  11
ATOM     11  C   UNL d   1      27.409 -13.740   2.745  0.00  0.00     0.075 C 
ATOM     12  C   UNL d   1      28.219 -14.272   3.684  0.00  0.00     0.017 C 
BRANCH  12  13
ATOM     13  C   UNL d   1      28.389 -13.709   5.025  0.00  0.00    -0.036 A 
ATOM     14  C   UNL d   1      28.933 -14.472   6.068  0.00  0.00     0.011 A 
ATOM     15  C   UNL d   1      29.011 -13.942   7.360  0.00  0.00     0.001 A 
ATOM     16  C   UNL d   1      28.598 -12.632   7.604  0.00  0.00     0.000 A 
ATOM     17  C   UNL d   1      28.047 -11.874   6.575  0.00  0.00     0.001 A 
ATOM     18  C   UNL d   1      27.925 -12.419   5.298  0.00  0.00     0.011 A 
ENDBRANCH  12  13
ENDBRANCH   8  11
ENDBRANCH   5   7
ENDBRANCH   1   5
BRANCH   3  19
ATOM     19  N   UNL d   1      24.946 -18.092  -0.124  0.00  0.00    -0.267 N 
ATOM     20  C   UNL d   1      23.640 -17.721  -0.407  0.00  0.00     0.236 C 
ATOM     21  O   UNL d   1      23.306 -16.549  -0.572  0.00  0.00    -0.272 OA
ATOM     22  H   UNL d   1      25.253 -19.054   0.013  0.00  0.00     0.190 HD
BRANCH  20  23
ATOM     23  C   UNL d   1      22.666 -18.881  -0.458  0.00  0.00     0.105 C 
BRANCH  23  24
ATOM     24  C   UNL d   1      21.282 -18.509  -1.027  0.00  0.00     0.014 C 
BRANCH  24  25
ATOM     25  C   UNL d   1      20.103 -18.952  -0.129  0.00  0.00    -0.014 C 
ATOM     26  C   UNL d   1      19.221 -19.978  -0.859  0.00  0.00     0.004 C 
ATOM     27  C   UNL d   1      18.157 -20.591   0.045  0.00  0.00     0.000 C 
ATOM     28  C   UNL d   1      18.769 -21.166   1.317  0.00  0.00     0.000 C 
ATOM     29  C   UNL d   1      19.531 -20.092   2.084  0.00  0.00     0.000 C 
ATOM     30  C   UNL d   1      20.618 -19.493   1.213  0.00  0.00     0.004 C 
ENDBRANCH  24  25
ENDBRANCH  23  24
ENDBRANCH  20  23
ENDBRANCH   3  19
TORSDOF 8
ENDMDL
MODEL 3
REMARK VINA RESULT:    -9.051      4.400      6.819
REMARK INTER + INTRA:         -14.097
REMARK INTER:                 -11.438
REMARK INTRA:                  -2.660
REMARK CONF_INDEPENDENT:        2.386
REMARK UNBOUND:                -2.660
REMARK  8 active torsions:
REMARK  status: ('A' for Active; 'I' for Inactive)
REMARK    1  A    between atoms: C_2  and  C_14 
REMARK    2  A    between atoms: C_2  and  N_3 
REMARK       I    between atoms: N_3  and  C_4 
REMARK    3  A    between atoms: C_4  and  C_6 
REMARK    4  A    between atoms: C_7  and  C_8 
REMARK       I    between atoms: C_14  and  N_16 
REMARK    5  A    between atoms: N_16  and  N_17 
REMARK       I    between atoms: N_17  and  C_18 
REMARK    6  A    between atoms: C_18  and  C_20 
REMARK    7  A    between atoms: C_20  and  C_21 
REMARK    8  A    between atoms: C_21  and  C_22 
ROOT
ATOM      1  C   UNL d   1      25.795 -15.667  -0.426  0.00  0.00     0.258 C 
ATOM      2  O   UNL d   1      25.997 -14.648   0.239  0.00  0.00    -0.269 OA
ATOM      3  N   UNL d   1      25.587 -15.605  -1.803  0.00  0.00    -0.266 N 
ATOM      4  H   UNL d   1      25.447 -16.413  -2.408  0.00  0.00     0.190 HD
ENDROOT
BRANCH   1   5
ATOM      5  C   UNL d   1      25.843 -17.104   0.192  0.00  0.00     0.174 C 
ATOM      6  C   UNL d   1      26.981 -17.915  -0.423  0.00  0.00     0.042 C 
BRANCH   5   7
ATOM      7  N   UNL d   1      24.532 -17.818   0.129  0.00  0.00    -0.345 N 
ATOM      8  C   UNL d   1      23.847 -18.082  -1.037  0.00  0.00     0.241 C 
ATOM      9  O   UNL d   1      24.263 -17.825  -2.167  0.00  0.00    -0.269 OA
ATOM     10  H   UNL d   1      24.067 -17.977   1.016  0.00  0.00     0.163 HD
BRANCH   8  11
ATOM     11  C   UNL d   1      22.529 -18.743  -0.897  0.00  0.00     0.075 C 
ATOM     12  C   UNL d   1      21.924 -18.688   0.308  0.00  0.00     0.017 C 
BRANCH  12  13
ATOM     13  C   UNL d   1      20.654 -19.353   0.612  0.00  0.00    -0.036 A 
ATOM     14  C   UNL d   1      20.283 -19.637   1.934  0.00  0.00     0.011 A 
ATOM     15  C   UNL d   1      19.105 -20.345   2.196  0.00  0.00     0.001 A 
ATOM     16  C   UNL d   1      18.269 -20.722   1.146  0.00  0.00     0.000 A 
ATOM     17  C   UNL d   1      18.637 -20.452  -0.168  0.00  0.00     0.001 A 
ATOM     18  C   UNL d   1      19.834 -19.789  -0.433  0.00  0.00     0.011 A 
ENDBRANCH  12  13
ENDBRANCH   8  11
ENDBRANCH   5   7
ENDBRANCH   1   5
BRANCH   3  19
ATOM     19  N   UNL d   1      25.469 -14.349  -2.444  0.00  0.00    -0.267 N 
ATOM     20  C   UNL d   1      25.245 -14.320  -3.813  0.00  0.00     0.236 C 
ATOM     21  O   UNL d   1      25.157 -15.342  -4.491  0.00  0.00    -0.272 OA
ATOM     22  H   UNL d   1      25.542 -13.520  -1.856  0.00  0.00     0.190 HD
BRANCH  20  23
ATOM     23  C   UNL d   1      25.156 -12.923  -4.395  0.00  0.00     0.105 C 
BRANCH  23  24
ATOM     24  C   UNL d   1      26.489 -12.150  -4.371  0.00  0.00     0.014 C 
BRANCH  24  25
ATOM     25  C   UNL d   1      26.334 -10.637  -4.649  0.00  0.00    -0.014 C 
ATOM     26  C   UNL d   1      25.551 -10.403  -5.952  0.00  0.00     0.004 C 
ATOM     27  C   UNL d   1      25.203  -8.935  -6.176  0.00  0.00     0.000 C 
ATOM     28  C   UNL d   1      24.490  -8.340  -4.967  0.00  0.00     0.000 C 
ATOM     29  C   UNL d   1      25.347  -8.473  -3.714  0.00  0.00     0.000 C 
ATOM     30  C   UNL d   1      25.676  -9.931  -3.453  0.00  0.00     0.004 C 
ENDBRANCH  24  25
ENDBRANCH  23  24
ENDBRANCH  20  23
ENDBRANCH   3  19
TORSDOF 8
ENDMDL
MODEL 4
REMARK VINA RESULT:    -9.002      1.573      2.535
REMARK INTER + INTRA:         -13.101
REMARK INTER:                 -11.388
REMARK INTRA:                  -1.712
REMARK CONF_INDEPENDENT:        2.386
REMARK UNBOUND:                -1.712
REMARK  8 active torsions:
REMARK  status: ('A' for Active; 'I' for Inactive)
REMARK    1  A    between atoms: C_2  and  C_14 
REMARK    2  A    between atoms: C_2  and  N_3 
REMARK       I    between atoms: N_3  and  C_4 
REMARK    3  A    between atoms: C_4  and  C_6 
REMARK    4  A    between atoms: C_7  and  C_8 
REMARK       I    between atoms: C_14  and  N_16 
REMARK    5  A    between atoms: N_16  and  N_17 
REMARK       I    between atoms: N_17  and  C_18 
REMARK    6  A    between atoms: C_18  and  C_20 
REMARK    7  A    between atoms: C_20  and  C_21 
REMARK    8  A    between atoms: C_21  and  C_22 
ROOT
ATOM      1  C   UNL d   1      27.409 -15.115   1.173  0.00  0.00     0.258 C 
ATOM      2  O   UNL d   1      26.933 -14.079   0.703  0.00  0.00    -0.269 OA
ATOM      3  N   UNL d   1      27.782 -15.199   2.513  0.00  0.00    -0.266 N 
ATOM      4  H   UNL d   1      28.150 -16.036   2.964  0.00  0.00     0.190 HD
ENDROOT
BRANCH   1   5
ATOM      5  C   UNL d   1      27.549 -16.434   0.342  0.00  0.00     0.174 C 
ATOM      6  C   UNL d   1      27.937 -16.120  -1.101  0.00  0.00     0.042 C 
BRANCH   5   7
ATOM      7  N   UNL d   1      26.349 -17.319   0.432  0.00  0.00    -0.345 N 
ATOM      8  C   UNL d   1      25.312 -17.316  -0.475  0.00  0.00     0.241 C 
ATOM      9  O   UNL d   1      25.282 -16.637  -1.502  0.00  0.00    -0.269 OA
ATOM     10  H   UNL d   1      26.241 -17.838   1.296  0.00  0.00     0.163 HD
BRANCH   8  11
ATOM     11  C   UNL d   1      24.174 -18.219  -0.185  0.00  0.00     0.075 C 
ATOM     12  C   UNL d   1      22.936 -17.792  -0.509  0.00  0.00     0.017 C 
BRANCH  12  13
ATOM     13  C   UNL d   1      21.714 -18.547  -0.220  0.00  0.00    -0.036 A 
ATOM     14  C   UNL d   1      21.403 -18.950   1.086  0.00  0.00     0.011 A 
ATOM     15  C   UNL d   1      20.273 -19.739   1.329  0.00  0.00     0.001 A 
ATOM     16  C   UNL d   1      19.423 -20.081   0.277  0.00  0.00     0.000 A 
ATOM     17  C   UNL d   1      19.733 -19.694  -1.022  0.00  0.00     0.001 A 
ATOM     18  C   UNL d   1      20.883 -18.948  -1.270  0.00  0.00     0.011 A 
ENDBRANCH  12  13
ENDBRANCH   8  11
ENDBRANCH   5   7
ENDBRANCH   1   5
BRANCH   3  19
ATOM     19  N   UNL d   1      27.747 -14.045   3.331  0.00  0.00    -0.267 N 
ATOM     20  C   UNL d   1      27.822 -14.203   4.707  0.00  0.00     0.236 C 
ATOM     21  O   UNL d   1      27.907 -15.307   5.243  0.00  0.00    -0.272 OA
ATOM     22  H   UNL d   1      27.681 -13.144   2.859  0.00  0.00     0.190 HD
BRANCH  20  23
ATOM     23  C   UNL d   1      27.755 -12.902   5.483  0.00  0.00     0.105 C 
BRANCH  23  24
ATOM     24  C   UNL d   1      29.129 -12.384   5.953  0.00  0.00     0.014 C 
BRANCH  24  25
ATOM     25  C   UNL d   1      29.413 -12.650   7.450  0.00  0.00    -0.014 C 
ATOM     26  C   UNL d   1      28.526 -11.760   8.336  0.00  0.00     0.004 C 
ATOM     27  C   UNL d   1      28.627 -12.114   9.815  0.00  0.00     0.000 C 
ATOM     28  C   UNL d   1      28.365 -13.597  10.053  0.00  0.00     0.000 C 
ATOM     29  C   UNL d   1      29.344 -14.453   9.258  0.00  0.00     0.000 C 
ATOM     30  C   UNL d   1      29.237 -14.140   7.778  0.00  0.00     0.004 C 
ENDBRANCH  24  25
ENDBRANCH  23  24
ENDBRANCH  20  23
ENDBRANCH   3  19
TORSDOF 8
ENDMDL
MODEL 5
REMARK VINA RESULT:    -8.933      4.419      7.030
REMARK INTER + INTRA:         -14.074
REMARK INTER:                 -11.320
REMARK INTRA:                  -2.755
REMARK CONF_INDEPENDENT:        2.386
REMARK UNBOUND:                -2.755
REMARK  8 active torsions:
REMARK  status: ('A' for Active; 'I' for Inactive)
REMARK    1  A    between atoms: C_2  and  C_14 
REMARK    2  A    between atoms: C_2  and  N_3 
REMARK       I    between atoms: N_3  and  C_4 
REMARK    3  A    between atoms: C_4  and  C_6 
REMARK    4  A    between atoms: C_7  and  C_8 
REMARK       I    between atoms: C_14  and  N_16 
REMARK    5  A    between atoms: N_16  and  N_17 
REMARK       I    between atoms: N_17  and  C_18 
REMARK    6  A    between atoms: C_18  and  C_20 
REMARK    7  A    between atoms: C_20  and  C_21 
REMARK    8  A    between atoms: C_21  and  C_22 
ROOT
ATOM      1  C   UNL d   1      25.744 -15.679  -0.440  0.00  0.00     0.258 C 
ATOM      2  O   UNL d   1      25.982 -14.647   0.193  0.00  0.00    -0.269 OA
ATOM      3  N   UNL d   1      25.563 -15.655  -1.822  0.00  0.00    -0.266 N 
ATOM      4  H   UNL d   1      25.397 -16.476  -2.402  0.00  0.00     0.190 HD
ENDROOT
BRANCH   1   5
ATOM      5  C   UNL d   1      25.715 -17.093   0.227  0.00  0.00     0.174 C 
ATOM      6  C   UNL d   1      26.835 -17.971  -0.324  0.00  0.00     0.042 C 
BRANCH   5   7
ATOM      7  N   UNL d   1      24.378 -17.755   0.148  0.00  0.00    -0.345 N 
ATOM      8  C   UNL d   1      23.715 -18.028  -1.029  0.00  0.00     0.241 C 
ATOM      9  O   UNL d   1      24.173 -17.824  -2.154  0.00  0.00    -0.269 OA
ATOM     10  H   UNL d   1      23.882 -17.868   1.025  0.00  0.00     0.163 HD
BRANCH   8  11
ATOM     11  C   UNL d   1      22.367 -18.631  -0.908  0.00  0.00     0.075 C 
ATOM     12  C   UNL d   1      21.862 -18.793   0.333  0.00  0.00     0.017 C 
BRANCH  12  13
ATOM     13  C   UNL d   1      20.575 -19.436   0.609  0.00  0.00    -0.036 A 
ATOM     14  C   UNL d   1      20.194 -19.763   1.918  0.00  0.00     0.011 A 
ATOM     15  C   UNL d   1      18.998 -20.450   2.151  0.00  0.00     0.001 A 
ATOM     16  C   UNL d   1      18.153 -20.762   1.086  0.00  0.00     0.000 A 
ATOM     17  C   UNL d   1      18.531 -20.450  -0.216  0.00  0.00     0.001 A 
ATOM     18  C   UNL d   1      19.746 -19.809  -0.453  0.00  0.00     0.011 A 
ENDBRANCH  12  13
ENDBRANCH   8  11
ENDBRANCH   5   7
ENDBRANCH   1   5
BRANCH   3  19
ATOM     19  N   UNL d   1      25.516 -14.418  -2.508  0.00  0.00    -0.267 N 
ATOM     20  C   UNL d   1      25.298 -14.426  -3.879  0.00  0.00     0.236 C 
ATOM     21  O   UNL d   1      25.157 -15.465  -4.520  0.00  0.00    -0.272 OA
ATOM     22  H   UNL d   1      25.632 -13.573  -1.949  0.00  0.00     0.190 HD
BRANCH  20  23
ATOM     23  C   UNL d   1      25.286 -13.048  -4.510  0.00  0.00     0.105 C 
BRANCH  23  24
ATOM     24  C   UNL d   1      26.653 -12.605  -5.069  0.00  0.00     0.014 C 
BRANCH  24  25
ATOM     25  C   UNL d   1      27.485 -13.765  -5.663  0.00  0.00    -0.014 C 
ATOM     26  C   UNL d   1      28.409 -13.253  -6.780  0.00  0.00     0.004 C 
ATOM     27  C   UNL d   1      29.387 -14.315  -7.270  0.00  0.00     0.000 C 
ATOM     28  C   UNL d   1      30.173 -14.925  -6.115  0.00  0.00     0.000 C 
ATOM     29  C   UNL d   1      29.232 -15.538  -5.085  0.00  0.00     0.000 C 
ATOM     30  C   UNL d   1      28.271 -14.489  -4.559  0.00  0.00     0.004 C 
ENDBRANCH  24  25
ENDBRANCH  23  24
ENDBRANCH  20  23
ENDBRANCH   3  19
TORSDOF 8
ENDMDL
MODEL 6
REMARK VINA RESULT:    -8.493      1.860      2.643
REMARK INTER + INTRA:         -13.093
REMARK INTER:                 -10.879
REMARK INTRA:                  -2.214
REMARK CONF_INDEPENDENT:        2.386
REMARK UNBOUND:                -2.214
REMARK  8 active torsions:
REMARK  status: ('A' for Active; 'I' for Inactive)
REMARK    1  A    between atoms: C_2  and  C_14 
REMARK    2  A    between atoms: C_2  and  N_3 
REMARK       I    between atoms: N_3  and  C_4 
REMARK    3  A    between atoms: C_4  and  C_6 
REMARK    4  A    between atoms: C_7  and  C_8 
REMARK       I    between atoms: C_14  and  N_16 
REMARK    5  A    between atoms: N_16  and  N_17 
REMARK       I    between atoms: N_17  and  C_18 
REMARK    6  A    between atoms: C_18  and  C_20 
REMARK    7  A    between atoms: C_20  and  C_21 
REMARK    8  A    between atoms: C_21  and  C_22 
ROOT
ATOM      1  C   UNL d   1      26.996 -17.037   0.175  0.00  0.00     0.258 C 
ATOM      2  O   UNL d   1      27.087 -17.655   1.238  0.00  0.00    -0.269 OA
ATOM      3  N   UNL d   1      28.022 -16.205  -0.270  0.00  0.00    -0.266 N 
ATOM      4  H   UNL d   1      28.018 -15.695  -1.152  0.00  0.00     0.190 HD
ENDROOT
BRANCH   1   5
ATOM      5  C   UNL d   1      25.779 -17.198  -0.796  0.00  0.00     0.174 C 
ATOM      6  C   UNL d   1      25.358 -15.843  -1.359  0.00  0.00     0.042 C 
BRANCH   5   7
ATOM      7  N   UNL d   1      24.636 -17.946  -0.190  0.00  0.00    -0.345 N 
ATOM      8  C   UNL d   1      23.309 -17.677  -0.447  0.00  0.00     0.241 C 
ATOM      9  O   UNL d   1      22.908 -16.840  -1.256  0.00  0.00    -0.269 OA
ATOM     10  H   UNL d   1      24.868 -18.584   0.562  0.00  0.00     0.163 HD
BRANCH   8  11
ATOM     11  C   UNL d   1      22.313 -18.483   0.297  0.00  0.00     0.075 C 
ATOM     12  C   UNL d   1      21.189 -18.848  -0.354  0.00  0.00     0.017 C 
BRANCH  12  13
ATOM     13  C   UNL d   1      20.089 -19.584   0.272  0.00  0.00    -0.036 A 
ATOM     14  C   UNL d   1      20.092 -19.860   1.647  0.00  0.00     0.011 A 
ATOM     15  C   UNL d   1      19.072 -20.635   2.211  0.00  0.00     0.001 A 
ATOM     16  C   UNL d   1      18.020 -21.090   1.415  0.00  0.00     0.000 A 
ATOM     17  C   UNL d   1      18.019 -20.828   0.049  0.00  0.00     0.001 A 
ATOM     18  C   UNL d   1      19.059 -20.097  -0.521  0.00  0.00     0.011 A 
ENDBRANCH  12  13
ENDBRANCH   8  11
ENDBRANCH   5   7
ENDBRANCH   1   5
BRANCH   3  19
ATOM     19  N   UNL d   1      29.137 -15.951   0.562  0.00  0.00    -0.267 N 
ATOM     20  C   UNL d   1      29.954 -14.868   0.268  0.00  0.00     0.236 C 
ATOM     21  O   UNL d   1      29.752 -14.130  -0.695  0.00  0.00    -0.272 OA
ATOM     22  H   UNL d   1      29.277 -16.576   1.355  0.00  0.00     0.190 HD
BRANCH  20  23
ATOM     23  C   UNL d   1      31.127 -14.704   1.214  0.00  0.00     0.105 C 
BRANCH  23  24
ATOM     24  C   UNL d   1      31.098 -13.391   2.022  0.00  0.00     0.014 C 
BRANCH  24  25
ATOM     25  C   UNL d   1      30.125 -13.423   3.223  0.00  0.00    -0.014 C 
ATOM     26  C   UNL d   1      28.666 -13.409   2.738  0.00  0.00     0.004 C 
ATOM     27  C   UNL d   1      27.667 -13.632   3.868  0.00  0.00     0.000 C 
ATOM     28  C   UNL d   1      27.992 -14.893   4.660  0.00  0.00     0.000 C 
ATOM     29  C   UNL d   1      29.402 -14.821   5.236  0.00  0.00     0.000 C 
ATOM     30  C   UNL d   1      30.416 -14.634   4.124  0.00  0.00     0.004 C 
ENDBRANCH  24  25
ENDBRANCH  23  24
ENDBRANCH  20  23
ENDBRANCH   3  19
TORSDOF 8
ENDMDL
MODEL 7
REMARK VINA RESULT:    -8.485      4.937      7.352
REMARK INTER + INTRA:         -12.960
REMARK INTER:                 -10.871
REMARK INTRA:                  -2.089
REMARK CONF_INDEPENDENT:        2.386
REMARK UNBOUND:                -2.089
REMARK  8 active torsions:
REMARK  status: ('A' for Active; 'I' for Inactive)
REMARK    1  A    between atoms: C_2  and  C_14 
REMARK    2  A    between atoms: C_2  and  N_3 
REMARK       I    between atoms: N_3  and  C_4 
REMARK    3  A    between atoms: C_4  and  C_6 
REMARK    4  A    between atoms: C_7  and  C_8 
REMARK       I    between atoms: C_14  and  N_16 
REMARK    5  A    between atoms: N_16  and  N_17 
REMARK       I    between atoms: N_17  and  C_18 
REMARK    6  A    between atoms: C_18  and  C_20 
REMARK    7  A    between atoms: C_20  and  C_21 
REMARK    8  A    between atoms: C_21  and  C_22 
ROOT
ATOM      1  C   UNL d   1      25.756 -15.435  -3.070  0.00  0.00     0.258 C 
ATOM      2  O   UNL d   1      24.816 -14.848  -3.610  0.00  0.00    -0.269 OA
ATOM      3  N   UNL d   1      27.016 -15.483  -3.664  0.00  0.00    -0.266 N 
ATOM      4  H   UNL d   1      27.838 -15.925  -3.252  0.00  0.00     0.190 HD
ENDROOT
BRANCH   1   5
ATOM      5  C   UNL d   1      25.644 -16.090  -1.653  0.00  0.00     0.174 C 
ATOM      6  C   UNL d   1      26.954 -16.776  -1.273  0.00  0.00     0.042 C 
BRANCH   5   7
ATOM      7  N   UNL d   1      24.463 -16.993  -1.513  0.00  0.00    -0.345 N 
ATOM      8  C   UNL d   1      24.332 -17.955  -0.534  0.00  0.00     0.241 C 
ATOM      9  O   UNL d   1      25.136 -18.136   0.381  0.00  0.00    -0.269 OA
ATOM     10  H   UNL d   1      23.799 -16.984  -2.279  0.00  0.00     0.163 HD
BRANCH   8  11
ATOM     11  C   UNL d   1      23.118 -18.802  -0.593  0.00  0.00     0.075 C 
ATOM     12  C   UNL d   1      22.060 -18.434   0.159  0.00  0.00     0.017 C 
BRANCH  12  13
ATOM     13  C   UNL d   1      20.821 -19.210   0.254  0.00  0.00    -0.036 A 
ATOM     14  C   UNL d   1      19.997 -19.400  -0.865  0.00  0.00     0.011 A 
ATOM     15  C   UNL d   1      18.779 -20.074  -0.734  0.00  0.00     0.001 A 
ATOM     16  C   UNL d   1      18.405 -20.608   0.499  0.00  0.00     0.000 A 
ATOM     17  C   UNL d   1      19.213 -20.413   1.615  0.00  0.00     0.001 A 
ATOM     18  C   UNL d   1      20.404 -19.699   1.495  0.00  0.00     0.011 A 
ENDBRANCH  12  13
ENDBRANCH   8  11
ENDBRANCH   5   7
ENDBRANCH   1   5
BRANCH   3  19
ATOM     19  N   UNL d   1      27.204 -14.970  -4.968  0.00  0.00    -0.267 N 
ATOM     20  C   UNL d   1      28.476 -15.008  -5.522  0.00  0.00     0.236 C 
ATOM     21  O   UNL d   1      29.447 -15.459  -4.917  0.00  0.00    -0.272 OA
ATOM     22  H   UNL d   1      26.380 -14.607  -5.447  0.00  0.00     0.190 HD
BRANCH  20  23
ATOM     23  C   UNL d   1      28.562 -14.414  -6.914  0.00  0.00     0.105 C 
BRANCH  23  24
ATOM     24  C   UNL d   1      28.610 -12.874  -6.934  0.00  0.00     0.014 C 
BRANCH  24  25
ATOM     25  C   UNL d   1      27.281 -12.206  -6.513  0.00  0.00    -0.014 C 
ATOM     26  C   UNL d   1      27.203 -12.069  -4.984  0.00  0.00     0.004 C 
ATOM     27  C   UNL d   1      26.003 -11.248  -4.525  0.00  0.00     0.000 C 
ATOM     28  C   UNL d   1      25.955  -9.893  -5.221  0.00  0.00     0.000 C 
ATOM     29  C   UNL d   1      25.904 -10.065  -6.735  0.00  0.00     0.000 C 
ATOM     30  C   UNL d   1      27.108 -10.851  -7.217  0.00  0.00     0.004 C 
ENDBRANCH  24  25
ENDBRANCH  23  24
ENDBRANCH  20  23
ENDBRANCH   3  19
TORSDOF 8
ENDMDL
MODEL 8
REMARK VINA RESULT:    -8.395      1.705      9.229
REMARK INTER + INTRA:         -13.417
REMARK INTER:                 -10.781
REMARK INTRA:                  -2.636
REMARK CONF_INDEPENDENT:        2.386
REMARK UNBOUND:                -2.636
REMARK  8 active torsions:
REMARK  status: ('A' for Active; 'I' for Inactive)
REMARK    1  A    between atoms: C_2  and  C_14 
REMARK    2  A    between atoms: C_2  and  N_3 
REMARK       I    between atoms: N_3  and  C_4 
REMARK    3  A    between atoms: C_4  and  C_6 
REMARK    4  A    between atoms: C_7  and  C_8 
REMARK       I    between atoms: C_14  and  N_16 
REMARK    5  A    between atoms: N_16  and  N_17 
REMARK       I    between atoms: N_17  and  C_18 
REMARK    6  A    between atoms: C_18  and  C_20 
REMARK    7  A    between atoms: C_20  and  C_21 
REMARK    8  A    between atoms: C_21  and  C_22 
ROOT
ATOM      1  C   UNL d   1      25.338 -14.643  -2.757  0.00  0.00     0.258 C 
ATOM      2  O   UNL d   1      24.470 -14.213  -3.520  0.00  0.00    -0.269 OA
ATOM      3  N   UNL d   1      25.048 -15.621  -1.807  0.00  0.00    -0.266 N 
ATOM      4  H   UNL d   1      25.728 -16.037  -1.172  0.00  0.00     0.190 HD
ENDROOT
BRANCH   1   5
ATOM      5  C   UNL d   1      26.836 -14.202  -2.846  0.00  0.00     0.174 C 
ATOM      6  C   UNL d   1      27.665 -15.258  -3.571  0.00  0.00     0.042 C 
BRANCH   5   7
ATOM      7  N   UNL d   1      27.420 -13.825  -1.523  0.00  0.00    -0.345 N 
ATOM      8  C   UNL d   1      27.548 -14.688  -0.457  0.00  0.00     0.241 C 
ATOM      9  O   UNL d   1      27.263 -15.886  -0.487  0.00  0.00    -0.269 OA
ATOM     10  H   UNL d   1      27.588 -12.837  -1.374  0.00  0.00     0.163 HD
BRANCH   8  11
ATOM     11  C   UNL d   1      28.091 -14.118   0.798  0.00  0.00     0.075 C 
ATOM     12  C   UNL d   1      27.909 -14.818   1.936  0.00  0.00     0.017 C 
BRANCH  12  13
ATOM     13  C   UNL d   1      28.330 -14.347   3.257  0.00  0.00    -0.036 A 
ATOM     14  C   UNL d   1      29.665 -14.451   3.673  0.00  0.00     0.011 A 
ATOM     15  C   UNL d   1      30.030 -14.070   4.968  0.00  0.00     0.001 A 
ATOM     16  C   UNL d   1      29.076 -13.534   5.833  0.00  0.00     0.000 A 
ATOM     17  C   UNL d   1      27.748 -13.439   5.430  0.00  0.00     0.001 A 
ATOM     18  C   UNL d   1      27.375 -13.863   4.157  0.00  0.00     0.011 A 
ENDBRANCH  12  13
ENDBRANCH   8  11
ENDBRANCH   5   7
ENDBRANCH   1   5
BRANCH   3  19
ATOM     19  N   UNL d   1      23.712 -16.043  -1.611  0.00  0.00    -0.267 N 
ATOM     20  C   UNL d   1      23.459 -17.042  -0.681  0.00  0.00     0.236 C 
ATOM     21  O   UNL d   1      24.352 -17.581  -0.030  0.00  0.00    -0.272 OA
ATOM     22  H   UNL d   1      22.992 -15.575  -2.162  0.00  0.00     0.190 HD
BRANCH  20  23
ATOM     23  C   UNL d   1      21.997 -17.426  -0.570  0.00  0.00     0.105 C 
BRANCH  23  24
ATOM     24  C   UNL d   1      21.644 -18.753  -1.271  0.00  0.00     0.014 C 
BRANCH  24  25
ATOM     25  C   UNL d   1      20.779 -19.700  -0.407  0.00  0.00    -0.014 C 
ATOM     26  C   UNL d   1      20.883 -19.324   1.080  0.00  0.00     0.004 C 
ATOM     27  C   UNL d   1      19.904 -20.100   1.954  0.00  0.00     0.000 C 
ATOM     28  C   UNL d   1      18.477 -19.982   1.434  0.00  0.00     0.000 C 
ATOM     29  C   UNL d   1      18.381 -20.483  -0.002  0.00  0.00     0.000 C 
ATOM     30  C   UNL d   1      19.322 -19.700  -0.897  0.00  0.00     0.004 C 
ENDBRANCH  24  25
ENDBRANCH  23  24
ENDBRANCH  20  23
ENDBRANCH   3  19
TORSDOF 8
ENDMDL
MODEL 9
REMARK VINA RESULT:    -8.116      5.160      9.898
REMARK INTER + INTRA:         -12.896
REMARK INTER:                 -10.502
REMARK INTRA:                  -2.393
REMARK CONF_INDEPENDENT:        2.386
REMARK UNBOUND:                -2.393
REMARK  8 active torsions:
REMARK  status: ('A' for Active; 'I' for Inactive)
REMARK    1  A    between atoms: C_2  and  C_14 
REMARK    2  A    between atoms: C_2  and  N_3 
REMARK       I    between atoms: N_3  and  C_4 
REMARK    3  A    between atoms: C_4  and  C_6 
REMARK    4  A    between atoms: C_7  and  C_8 
REMARK       I    between atoms: C_14  and  N_16 
REMARK    5  A    between atoms: N_16  and  N_17 
REMARK       I    between atoms: N_17  and  C_18 
REMARK    6  A    between atoms: C_18  and  C_20 
REMARK    7  A    between atoms: C_20  and  C_21 
REMARK    8  A    between atoms: C_21  and  C_22 
ROOT
ATOM      1  C   UNL d   1      25.125 -14.438  -2.883  0.00  0.00     0.258 C 
ATOM      2  O   UNL d   1      23.936 -14.328  -3.194  0.00  0.00    -0.269 OA
ATOM      3  N   UNL d   1      25.550 -15.409  -1.978  0.00  0.00    -0.266 N 
ATOM      4  H   UNL d   1      26.520 -15.568  -1.707  0.00  0.00     0.190 HD
ENDROOT
BRANCH   1   5
ATOM      5  C   UNL d   1      26.253 -13.571  -3.534  0.00  0.00     0.174 C 
ATOM      6  C   UNL d   1      25.675 -12.278  -4.104  0.00  0.00     0.042 C 
BRANCH   5   7
ATOM      7  N   UNL d   1      27.071 -14.321  -4.533  0.00  0.00    -0.345 N 
ATOM      8  C   UNL d   1      28.022 -15.264  -4.208  0.00  0.00     0.241 C 
ATOM      9  O   UNL d   1      28.261 -15.651  -3.063  0.00  0.00    -0.269 OA
ATOM     10  H   UNL d   1      27.014 -13.997  -5.492  0.00  0.00     0.163 HD
BRANCH   8  11
ATOM     11  C   UNL d   1      28.781 -15.857  -5.333  0.00  0.00     0.075 C 
ATOM     12  C   UNL d   1      29.653 -16.846  -5.049  0.00  0.00     0.017 C 
BRANCH  12  13
ATOM     13  C   UNL d   1      30.519 -17.478  -6.047  0.00  0.00    -0.036 A 
ATOM     14  C   UNL d   1      31.227 -16.711  -6.982  0.00  0.00     0.011 A 
ATOM     15  C   UNL d   1      31.985 -17.338  -7.978  0.00  0.00     0.001 A 
ATOM     16  C   UNL d   1      32.081 -18.729  -8.008  0.00  0.00     0.000 A 
ATOM     17  C   UNL d   1      31.372 -19.496  -7.089  0.00  0.00     0.001 A 
ATOM     18  C   UNL d   1      30.579 -18.873  -6.128  0.00  0.00     0.011 A 
ENDBRANCH  12  13
ENDBRANCH   8  11
ENDBRANCH   5   7
ENDBRANCH   1   5
BRANCH   3  19
ATOM     19  N   UNL d   1      24.600 -16.203  -1.294  0.00  0.00    -0.267 N 
ATOM     20  C   UNL d   1      25.016 -17.404  -0.735  0.00  0.00     0.236 C 
ATOM     21  O   UNL d   1      26.174 -17.808  -0.823  0.00  0.00    -0.272 OA
ATOM     22  H   UNL d   1      23.650 -15.840  -1.233  0.00  0.00     0.190 HD
BRANCH  20  23
ATOM     23  C   UNL d   1      23.911 -18.178  -0.045  0.00  0.00     0.105 C 
BRANCH  23  24
ATOM     24  C   UNL d   1      22.597 -18.243  -0.848  0.00  0.00     0.014 C 
BRANCH  24  25
ATOM     25  C   UNL d   1      21.568 -19.245  -0.274  0.00  0.00    -0.014 C 
ATOM     26  C   UNL d   1      21.286 -18.944   1.207  0.00  0.00     0.004 C 
ATOM     27  C   UNL d   1      20.141 -19.778   1.771  0.00  0.00     0.000 C 
ATOM     28  C   UNL d   1      18.886 -19.653   0.915  0.00  0.00     0.000 C 
ATOM     29  C   UNL d   1      19.166 -20.080  -0.521  0.00  0.00     0.000 C 
ATOM     30  C   UNL d   1      20.281 -19.239  -1.113  0.00  0.00     0.004 C 
ENDBRANCH  24  25
ENDBRANCH  23  24
ENDBRANCH  20  23
ENDBRANCH   3  19
TORSDOF 8
ENDMDL
