MODEL 1
REMARK VINA RESULT:    -8.429      0.000      0.000
REMARK INTER + INTRA:         -11.040
REMARK INTER:                  -9.920
REMARK INTRA:                  -1.120
REMARK CONF_INDEPENDENT:        1.492
REMARK UNBOUND:                -1.120
REMARK  5 active torsions:
REMARK  status: ('A' for Active; 'I' for Inactive)
REMARK    1  A    between atoms: C_5  and  C_6 
REMARK       I    between atoms: C_6  and  N_8 
REMARK    2  A    between atoms: N_8  and  N_9 
REMARK       I    between atoms: N_9  and  C_10 
REMARK    3  A    between atoms: C_10  and  C_12 
REMARK    4  A    between atoms: C_13  and  C_12 
REMARK    5  A    between atoms: C_18  and  O_19 
ROOT
ATOM      1  C   UNL d   1      24.071 -18.092  -1.030  0.00  0.00     0.272 C 
ATOM      2  O   UNL d   1      23.621 -18.243  -2.174  0.00  0.00    -0.266 OA
ATOM      3  N   UNL d   1      23.429 -18.611   0.083  0.00  0.00    -0.263 N 
ATOM      4  H   UNL d   1      23.741 -18.527   1.048  0.00  0.00     0.190 HD
ENDROOT
BRANCH   3   5
ATOM      5  N   UNL d   1      22.205 -19.271  -0.090  0.00  0.00    -0.267 N 
ATOM      6  C   UNL d   1      21.134 -18.584  -0.615  0.00  0.00     0.236 C 
ATOM      7  O   UNL d   1      21.233 -17.405  -0.971  0.00  0.00    -0.272 OA
ATOM      8  H   UNL d   1      22.179 -20.233   0.236  0.00  0.00     0.190 HD
BRANCH   6   9
ATOM      9  C   UNL d   1      19.807 -19.325  -0.739  0.00  0.00     0.113 C 
BRANCH   9  10
ATOM     10  C   UNL d   1      19.613 -20.553   0.163  0.00  0.00     0.017 C 
ATOM     11  C   UNL d   1      18.258 -21.196   0.305  0.00  0.00    -0.026 C 
ATOM     12  C   UNL d   1      17.842 -21.211   1.577  0.00  0.00    -0.030 C 
ATOM     13  C   UNL d   1      18.751 -20.452   2.476  0.00  0.00     0.027 C 
ATOM     14  C   UNL d   1      19.979 -20.203   1.614  0.00  0.00     0.012 C 
ENDBRANCH   9  10
ENDBRANCH   6   9
ENDBRANCH   3   5
BRANCH   1  15
ATOM     15  C   UNL d   1      25.341 -17.324  -0.834  0.00  0.00     0.066 A 
ATOM     16  C   UNL d   1      25.730 -16.313  -1.727  0.00  0.00     0.020 A 
ATOM     17  C   UNL d   1      26.916 -15.591  -1.529  0.00  0.00     0.008 A 
ATOM     18  C   UNL d   1      27.735 -15.856  -0.431  0.00  0.00    -0.059 A 
ATOM     19  C   UNL d   1      28.997 -15.082  -0.180  0.00  0.00     0.048 C 
ATOM     20  C   UNL d   1      27.362 -16.869   0.458  0.00  0.00     0.044 A 
ATOM     21  C   UNL d   1      26.186 -17.599   0.257  0.00  0.00     0.082 A 
BRANCH  21  22
ATOM     22  O   UNL d   1      25.946 -18.575   1.189  0.00  0.00    -0.360 OA
ATOM     23  H   UNL d   1      26.801 -18.989   1.432  0.00  0.00     0.217 HD
ENDBRANCH  21  22
ENDBRANCH   1  15
TORSDOF 5
ENDMDL
MODEL 2
REMARK VINA RESULT:    -7.556      1.118      2.071
REMARK INTER + INTRA:         -11.052
REMARK INTER:                  -9.048
REMARK INTRA:                  -2.004
REMARK CONF_INDEPENDENT:        1.492
REMARK UNBOUND:                -2.004
REMARK  5 active torsions:
REMARK  status: ('A' for Active; 'I' for Inactive)
REMARK    1  A    between atoms: C_5  and  C_6 
REMARK       I    between atoms: C_6  and  N_8 
REMARK    2  A    between atoms: N_8  and  N_9 
REMARK       I    between atoms: N_9  and  C_10 
REMARK    3  A    between atoms: C_10  and  C_12 
REMARK    4  A    between atoms: C_13  and  C_12 
REMARK    5  A    between atoms: C_18  and  O_19 
ROOT
ATOM      1  C   UNL d   1      24.900 -17.821  -0.251  0.00  0.00     0.272 C 
ATOM      2  O   UNL d   1      25.353 -18.919   0.099  0.00  0.00    -0.266 OA
ATOM      3  N   UNL d   1      23.551 -17.635  -0.508  0.00  0.00    -0.263 N 
ATOM      4  H   UNL d   1      23.110 -16.764  -0.797  0.00  0.00     0.190 HD
ENDROOT
BRANCH   3   5
ATOM      5  N   UNL d   1      22.689 -18.737  -0.428  0.00  0.00    -0.267 N 
ATOM      6  C   UNL d   1      21.376 -18.600  -0.817  0.00  0.00     0.236 C 
ATOM      7  O   UNL d   1      20.943 -17.535  -1.270  0.00  0.00    -0.272 OA
ATOM      8  H   UNL d   1      23.097 -19.580  -0.033  0.00  0.00     0.190 HD
BRANCH   6   9
ATOM      9  C   UNL d   1      20.461 -19.810  -0.666  0.00  0.00     0.113 C 
BRANCH   9  10
ATOM     10  C   UNL d   1      19.275 -19.665   0.299  0.00  0.00     0.017 C 
ATOM     11  C   UNL d   1      19.485 -19.719   1.790  0.00  0.00    -0.026 C 
ATOM     12  C   UNL d   1      18.779 -20.704   2.360  0.00  0.00    -0.030 C 
ATOM     13  C   UNL d   1      18.108 -21.570   1.355  0.00  0.00     0.027 C 
ATOM     14  C   UNL d   1      18.260 -20.794   0.056  0.00  0.00     0.012 C 
ENDBRANCH   9  10
ENDBRANCH   6   9
ENDBRANCH   3   5
BRANCH   1  15
ATOM     15  C   UNL d   1      25.829 -16.658  -0.409  0.00  0.00     0.066 A 
ATOM     16  C   UNL d   1      27.027 -16.576   0.316  0.00  0.00     0.020 A 
ATOM     17  C   UNL d   1      27.897 -15.487   0.154  0.00  0.00     0.008 A 
ATOM     18  C   UNL d   1      27.594 -14.462  -0.743  0.00  0.00    -0.059 A 
ATOM     19  C   UNL d   1      28.518 -13.298  -0.956  0.00  0.00     0.048 C 
ATOM     20  C   UNL d   1      26.396 -14.529  -1.462  0.00  0.00     0.044 A 
ATOM     21  C   UNL d   1      25.521 -15.607  -1.293  0.00  0.00     0.082 A 
BRANCH  21  22
ATOM     22  O   UNL d   1      24.375 -15.543  -2.042  0.00  0.00    -0.360 OA
ATOM     23  H   UNL d   1      24.117 -14.601  -2.135  0.00  0.00     0.217 HD
ENDBRANCH  21  22
ENDBRANCH   1  15
TORSDOF 5
ENDMDL
MODEL 3
REMARK VINA RESULT:    -7.364      1.248      8.082
REMARK INTER + INTRA:         -10.418
REMARK INTER:                  -8.856
REMARK INTRA:                  -1.562
REMARK CONF_INDEPENDENT:        1.492
REMARK UNBOUND:                -1.562
REMARK  5 active torsions:
REMARK  status: ('A' for Active; 'I' for Inactive)
REMARK    1  A    between atoms: C_5  and  C_6 
REMARK       I    between atoms: C_6  and  N_8 
REMARK    2  A    between atoms: N_8  and  N_9 
REMARK       I    between atoms: N_9  and  C_10 
REMARK    3  A    between atoms: C_10  and  C_12 
REMARK    4  A    between atoms: C_13  and  C_12 
REMARK    5  A    between atoms: C_18  and  O_19 
ROOT
ATOM      1  C   UNL d   1      22.047 -18.087  -0.241  0.00  0.00     0.272 C 
ATOM      2  O   UNL d   1      21.795 -17.117  -0.967  0.00  0.00    -0.266 OA
ATOM      3  N   UNL d   1      23.335 -18.363   0.190  0.00  0.00    -0.263 N 
ATOM      4  H   UNL d   1      23.615 -19.140   0.786  0.00  0.00     0.190 HD
ENDROOT
BRANCH   3   5
ATOM      5  N   UNL d   1      24.387 -17.554  -0.263  0.00  0.00    -0.267 N 
ATOM      6  C   UNL d   1      25.643 -17.712   0.277  0.00  0.00     0.236 C 
ATOM      7  O   UNL d   1      25.877 -18.575   1.129  0.00  0.00    -0.272 OA
ATOM      8  H   UNL d   1      24.130 -16.852  -0.951  0.00  0.00     0.190 HD
BRANCH   6   9
ATOM      9  C   UNL d   1      26.745 -16.777  -0.206  0.00  0.00     0.113 C 
BRANCH   9  10
ATOM     10  C   UNL d   1      26.965 -16.690  -1.724  0.00  0.00     0.017 C 
ATOM     11  C   UNL d   1      28.350 -16.532  -2.293  0.00  0.00    -0.026 C 
ATOM     12  C   UNL d   1      28.463 -15.422  -3.034  0.00  0.00    -0.030 C 
ATOM     13  C   UNL d   1      27.245 -14.571  -2.964  0.00  0.00     0.027 C 
ATOM     14  C   UNL d   1      26.219 -15.471  -2.293  0.00  0.00     0.012 C 
ENDBRANCH   9  10
ENDBRANCH   6   9
ENDBRANCH   3   5
BRANCH   1  15
ATOM     15  C   UNL d   1      20.937 -18.997   0.185  0.00  0.00     0.066 A 
ATOM     16  C   UNL d   1      20.681 -19.254   1.540  0.00  0.00     0.020 A 
ATOM     17  C   UNL d   1      19.632 -20.099   1.930  0.00  0.00     0.008 A 
ATOM     18  C   UNL d   1      18.808 -20.698   0.975  0.00  0.00    -0.059 A 
ATOM     19  C   UNL d   1      17.662 -21.586   1.364  0.00  0.00     0.048 C 
ATOM     20  C   UNL d   1      19.062 -20.456  -0.378  0.00  0.00     0.044 A 
ATOM     21  C   UNL d   1      20.116 -19.624  -0.771  0.00  0.00     0.082 A 
BRANCH  21  22
ATOM     22  O   UNL d   1      20.268 -19.485  -2.126  0.00  0.00    -0.360 OA
ATOM     23  H   UNL d   1      21.213 -19.307  -2.316  0.00  0.00     0.217 HD
ENDBRANCH  21  22
ENDBRANCH   1  15
TORSDOF 5
ENDMDL
MODEL 4
REMARK VINA RESULT:    -7.341      1.697      2.404
REMARK INTER + INTRA:         -10.796
REMARK INTER:                  -8.832
REMARK INTRA:                  -1.964
REMARK CONF_INDEPENDENT:        1.492
REMARK UNBOUND:                -1.964
REMARK  5 active torsions:
REMARK  status: ('A' for Active; 'I' for Inactive)
REMARK    1  A    between atoms: C_5  and  C_6 
REMARK       I    between atoms: C_6  and  N_8 
REMARK    2  A    between atoms: N_8  and  N_9 
REMARK       I    between atoms: N_9  and  C_10 
REMARK    3  A    between atoms: C_10  and  C_12 
REMARK    4  A    between atoms: C_13  and  C_12 
REMARK    5  A    between atoms: C_18  and  O_19 
ROOT
ATOM      1  C   UNL d   1      24.823 -17.227  -1.022  0.00  0.00     0.272 C 
ATOM      2  O   UNL d   1      25.540 -17.958  -0.324  0.00  0.00    -0.266 OA
ATOM      3  N   UNL d   1      23.452 -17.409  -1.104  0.00  0.00    -0.263 N 
ATOM      4  H   UNL d   1      22.805 -16.849  -1.654  0.00  0.00     0.190 HD
ENDROOT
BRANCH   3   5
ATOM      5  N   UNL d   1      22.873 -18.490  -0.425  0.00  0.00    -0.267 N 
ATOM      6  C   UNL d   1      21.519 -18.712  -0.536  0.00  0.00     0.236 C 
ATOM      7  O   UNL d   1      20.803 -18.001  -1.249  0.00  0.00    -0.272 OA
ATOM      8  H   UNL d   1      23.508 -19.028   0.158  0.00  0.00     0.190 HD
BRANCH   6   9
ATOM      9  C   UNL d   1      20.922 -19.868   0.259  0.00  0.00     0.113 C 
BRANCH   9  10
ATOM     10  C   UNL d   1      19.475 -19.700   0.744  0.00  0.00     0.017 C 
ATOM     11  C   UNL d   1      18.993 -20.406   1.984  0.00  0.00    -0.026 C 
ATOM     12  C   UNL d   1      17.953 -21.211   1.730  0.00  0.00    -0.030 C 
ATOM     13  C   UNL d   1      17.661 -21.311   0.275  0.00  0.00     0.027 C 
ATOM     14  C   UNL d   1      18.499 -20.197  -0.334  0.00  0.00     0.012 C 
ENDBRANCH   9  10
ENDBRANCH   6   9
ENDBRANCH   3   5
BRANCH   1  15
ATOM     15  C   UNL d   1      25.449 -16.115  -1.806  0.00  0.00     0.066 A 
ATOM     16  C   UNL d   1      24.669 -15.114  -2.405  0.00  0.00     0.020 A 
ATOM     17  C   UNL d   1      25.264 -14.071  -3.129  0.00  0.00     0.008 A 
ATOM     18  C   UNL d   1      26.652 -13.998  -3.263  0.00  0.00    -0.059 A 
ATOM     19  C   UNL d   1      27.318 -12.880  -4.010  0.00  0.00     0.048 C 
ATOM     20  C   UNL d   1      27.437 -14.997  -2.678  0.00  0.00     0.044 A 
ATOM     21  C   UNL d   1      26.845 -16.046  -1.966  0.00  0.00     0.082 A 
BRANCH  21  22
ATOM     22  O   UNL d   1      27.724 -16.969  -1.461  0.00  0.00    -0.360 OA
ATOM     23  H   UNL d   1      27.350 -17.332  -0.630  0.00  0.00     0.217 HD
ENDBRANCH  21  22
ENDBRANCH   1  15
TORSDOF 5
ENDMDL
MODEL 5
REMARK VINA RESULT:    -7.106      2.647      3.804
REMARK INTER + INTRA:         -10.574
REMARK INTER:                  -8.597
REMARK INTRA:                  -1.977
REMARK CONF_INDEPENDENT:        1.492
REMARK UNBOUND:                -1.977
REMARK  5 active torsions:
REMARK  status: ('A' for Active; 'I' for Inactive)
REMARK    1  A    between atoms: C_5  and  C_6 
REMARK       I    between atoms: C_6  and  N_8 
REMARK    2  A    between atoms: N_8  and  N_9 
REMARK       I    between atoms: N_9  and  C_10 
REMARK    3  A    between atoms: C_10  and  C_12 
REMARK    4  A    between atoms: C_13  and  C_12 
REMARK    5  A    between atoms: C_18  and  O_19 
ROOT
ATOM      1  C   UNL d   1      25.226 -15.700  -2.567  0.00  0.00     0.272 C 
ATOM      2  O   UNL d   1      24.355 -14.830  -2.702  0.00  0.00    -0.266 OA
ATOM      3  N   UNL d   1      25.013 -16.836  -1.803  0.00  0.00    -0.263 N 
ATOM      4  H   UNL d   1      25.680 -17.589  -1.648  0.00  0.00     0.190 HD
ENDROOT
BRANCH   3   5
ATOM      5  N   UNL d   1      23.798 -16.970  -1.116  0.00  0.00    -0.267 N 
ATOM      6  C   UNL d   1      23.566 -18.099  -0.365  0.00  0.00     0.236 C 
ATOM      7  O   UNL d   1      24.418 -18.987  -0.250  0.00  0.00    -0.272 OA
ATOM      8  H   UNL d   1      23.131 -16.217  -1.261  0.00  0.00     0.190 HD
BRANCH   6   9
ATOM      9  C   UNL d   1      22.212 -18.228   0.324  0.00  0.00     0.113 C 
BRANCH   9  10
ATOM     10  C   UNL d   1      21.339 -19.424  -0.082  0.00  0.00     0.017 C 
ATOM     11  C   UNL d   1      20.397 -19.327  -1.253  0.00  0.00    -0.026 C 
ATOM     12  C   UNL d   1      19.128 -19.563  -0.896  0.00  0.00    -0.030 C 
ATOM     13  C   UNL d   1      18.974 -19.700   0.577  0.00  0.00     0.027 C 
ATOM     14  C   UNL d   1      20.406 -19.810   1.077  0.00  0.00     0.012 C 
ENDBRANCH   9  10
ENDBRANCH   6   9
ENDBRANCH   3   5
BRANCH   1  15
ATOM     15  C   UNL d   1      26.552 -15.524  -3.240  0.00  0.00     0.066 A 
ATOM     16  C   UNL d   1      27.755 -15.702  -2.541  0.00  0.00     0.020 A 
ATOM     17  C   UNL d   1      28.994 -15.547  -3.182  0.00  0.00     0.008 A 
ATOM     18  C   UNL d   1      29.057 -15.220  -4.538  0.00  0.00    -0.059 A 
ATOM     19  C   UNL d   1      30.366 -15.072  -5.256  0.00  0.00     0.048 C 
ATOM     20  C   UNL d   1      27.862 -15.030  -5.240  0.00  0.00     0.044 A 
ATOM     21  C   UNL d   1      26.626 -15.172  -4.600  0.00  0.00     0.082 A 
BRANCH  21  22
ATOM     22  O   UNL d   1      25.534 -14.940  -5.396  0.00  0.00    -0.360 OA
ATOM     23  H   UNL d   1      24.805 -14.606  -4.832  0.00  0.00     0.217 HD
ENDBRANCH  21  22
ENDBRANCH   1  15
TORSDOF 5
ENDMDL
MODEL 6
REMARK VINA RESULT:    -6.994      3.178      4.301
REMARK INTER + INTRA:         -10.524
REMARK INTER:                  -8.485
REMARK INTRA:                  -2.038
REMARK CONF_INDEPENDENT:        1.492
REMARK UNBOUND:                -2.038
REMARK  5 active torsions:
REMARK  status: ('A' for Active; 'I' for Inactive)
REMARK    1  A    between atoms: C_5  and  C_6 
REMARK       I    between atoms: C_6  and  N_8 
REMARK    2  A    between atoms: N_8  and  N_9 
REMARK       I    between atoms: N_9  and  C_10 
REMARK    3  A    between atoms: C_10  and  C_12 
REMARK    4  A    between atoms: C_13  and  C_12 
REMARK    5  A    between atoms: C_18  and  O_19 
ROOT
ATOM      1  C   UNL d   1      25.509 -15.567  -2.500  0.00  0.00     0.272 C 
ATOM      2  O   UNL d   1      26.417 -16.402  -2.388  0.00  0.00    -0.266 OA
ATOM      3  N   UNL d   1      24.283 -15.731  -1.875  0.00  0.00    -0.263 N 
ATOM      4  H   UNL d   1      23.495 -15.088  -1.923  0.00  0.00     0.190 HD
ENDROOT
BRANCH   3   5
ATOM      5  N   UNL d   1      24.048 -16.905  -1.148  0.00  0.00    -0.267 N 
ATOM      6  C   UNL d   1      22.827 -17.092  -0.541  0.00  0.00     0.236 C 
ATOM      7  O   UNL d   1      21.917 -16.264  -0.650  0.00  0.00    -0.272 OA
ATOM      8  H   UNL d   1      24.838 -17.541  -1.079  0.00  0.00     0.190 HD
BRANCH   6   9
ATOM      9  C   UNL d   1      22.631 -18.360   0.283  0.00  0.00     0.113 C 
BRANCH   9  10
ATOM     10  C   UNL d   1      21.566 -19.350  -0.211  0.00  0.00     0.017 C 
ATOM     11  C   UNL d   1      20.588 -18.955  -1.286  0.00  0.00    -0.026 C 
ATOM     12  C   UNL d   1      19.319 -19.056  -0.870  0.00  0.00    -0.030 C 
ATOM     13  C   UNL d   1      19.225 -19.375   0.579  0.00  0.00     0.027 C 
ATOM     14  C   UNL d   1      20.649 -19.758   0.954  0.00  0.00     0.012 C 
ENDBRANCH   9  10
ENDBRANCH   6   9
ENDBRANCH   3   5
BRANCH   1  15
ATOM     15  C   UNL d   1      25.732 -14.346  -3.337  0.00  0.00     0.066 A 
ATOM     16  C   UNL d   1      25.347 -13.073  -2.890  0.00  0.00     0.020 A 
ATOM     17  C   UNL d   1      25.569 -11.933  -3.677  0.00  0.00     0.008 A 
ATOM     18  C   UNL d   1      26.190 -12.037  -4.922  0.00  0.00    -0.059 A 
ATOM     19  C   UNL d   1      26.463 -10.832  -5.774  0.00  0.00     0.048 C 
ATOM     20  C   UNL d   1      26.567 -13.303  -5.382  0.00  0.00     0.044 A 
ATOM     21  C   UNL d   1      26.335 -14.444  -4.605  0.00  0.00     0.082 A 
BRANCH  21  22
ATOM     22  O   UNL d   1      26.735 -15.623  -5.178  0.00  0.00    -0.360 OA
ATOM     23  H   UNL d   1      26.711 -16.325  -4.493  0.00  0.00     0.217 HD
ENDBRANCH  21  22
ENDBRANCH   1  15
TORSDOF 5
ENDMDL
MODEL 7
REMARK VINA RESULT:    -6.586      4.839      7.043
REMARK INTER + INTRA:         -10.061
REMARK INTER:                  -8.078
REMARK INTRA:                  -1.983
REMARK CONF_INDEPENDENT:        1.492
REMARK UNBOUND:                -1.983
REMARK  5 active torsions:
REMARK  status: ('A' for Active; 'I' for Inactive)
REMARK    1  A    between atoms: C_5  and  C_6 
REMARK       I    between atoms: C_6  and  N_8 
REMARK    2  A    between atoms: N_8  and  N_9 
REMARK       I    between atoms: N_9  and  C_10 
REMARK    3  A    between atoms: C_10  and  C_12 
REMARK    4  A    between atoms: C_13  and  C_12 
REMARK    5  A    between atoms: C_18  and  O_19 
ROOT
ATOM      1  C   UNL d   1      27.378 -13.328   2.687  0.00  0.00     0.272 C 
ATOM      2  O   UNL d   1      26.880 -12.366   2.087  0.00  0.00    -0.266 OA
ATOM      3  N   UNL d   1      27.549 -14.561   2.078  0.00  0.00    -0.263 N 
ATOM      4  H   UNL d   1      27.950 -15.392   2.508  0.00  0.00     0.190 HD
ENDROOT
BRANCH   3   5
ATOM      5  N   UNL d   1      27.088 -14.736   0.766  0.00  0.00    -0.267 N 
ATOM      6  C   UNL d   1      27.030 -16.003   0.232  0.00  0.00     0.236 C 
ATOM      7  O   UNL d   1      27.343 -16.999   0.894  0.00  0.00    -0.272 OA
ATOM      8  H   UNL d   1      26.861 -13.881   0.267  0.00  0.00     0.190 HD
BRANCH   6   9
ATOM      9  C   UNL d   1      26.571 -16.144  -1.214  0.00  0.00     0.113 C 
BRANCH   9  10
ATOM     10  C   UNL d   1      25.312 -16.987  -1.463  0.00  0.00     0.017 C 
ATOM     11  C   UNL d   1      23.940 -16.397  -1.270  0.00  0.00    -0.026 C 
ATOM     12  C   UNL d   1      23.226 -17.076  -0.363  0.00  0.00    -0.030 C 
ATOM     13  C   UNL d   1      24.031 -18.124   0.318  0.00  0.00     0.027 C 
ATOM     14  C   UNL d   1      25.298 -18.201  -0.520  0.00  0.00     0.012 C 
ENDBRANCH   9  10
ENDBRANCH   6   9
ENDBRANCH   3   5
BRANCH   1  15
ATOM     15  C   UNL d   1      27.805 -13.165   4.113  0.00  0.00     0.066 A 
ATOM     16  C   UNL d   1      27.876 -11.900   4.715  0.00  0.00     0.020 A 
ATOM     17  C   UNL d   1      28.267 -11.758   6.055  0.00  0.00     0.008 A 
ATOM     18  C   UNL d   1      28.586 -12.877   6.825  0.00  0.00    -0.059 A 
ATOM     19  C   UNL d   1      28.983 -12.758   8.268  0.00  0.00     0.048 C 
ATOM     20  C   UNL d   1      28.529 -14.142   6.231  0.00  0.00     0.044 A 
ATOM     21  C   UNL d   1      28.152 -14.285   4.891  0.00  0.00     0.082 A 
BRANCH  21  22
ATOM     22  O   UNL d   1      28.155 -15.575   4.426  0.00  0.00    -0.360 OA
ATOM     23  H   UNL d   1      29.060 -15.791   4.116  0.00  0.00     0.217 HD
ENDBRANCH  21  22
ENDBRANCH   1  15
TORSDOF 5
ENDMDL
MODEL 8
REMARK VINA RESULT:    -6.558      6.445      8.566
REMARK INTER + INTRA:         -10.009
REMARK INTER:                  -8.049
REMARK INTRA:                  -1.960
REMARK CONF_INDEPENDENT:        1.492
REMARK UNBOUND:                -1.960
REMARK  5 active torsions:
REMARK  status: ('A' for Active; 'I' for Inactive)
REMARK    1  A    between atoms: C_5  and  C_6 
REMARK       I    between atoms: C_6  and  N_8 
REMARK    2  A    between atoms: N_8  and  N_9 
REMARK       I    between atoms: N_9  and  C_10 
REMARK    3  A    between atoms: C_10  and  C_12 
REMARK    4  A    between atoms: C_13  and  C_12 
REMARK    5  A    between atoms: C_18  and  O_19 
ROOT
ATOM      1  C   UNL d   1      25.955 -10.842  -3.346  0.00  0.00     0.272 C 
ATOM      2  O   UNL d   1      26.744 -10.754  -2.395  0.00  0.00    -0.266 OA
ATOM      3  N   UNL d   1      25.446 -12.061  -3.764  0.00  0.00    -0.263 N 
ATOM      4  H   UNL d   1      24.796 -12.207  -4.534  0.00  0.00     0.190 HD
ENDROOT
BRANCH   3   5
ATOM      5  N   UNL d   1      25.888 -13.230  -3.131  0.00  0.00    -0.267 N 
ATOM      6  C   UNL d   1      25.492 -14.455  -3.618  0.00  0.00     0.236 C 
ATOM      7  O   UNL d   1      24.781 -14.553  -4.624  0.00  0.00    -0.272 OA
ATOM      8  H   UNL d   1      26.455 -13.087  -2.300  0.00  0.00     0.190 HD
BRANCH   6   9
ATOM      9  C   UNL d   1      25.954 -15.700  -2.869  0.00  0.00     0.113 C 
BRANCH   9  10
ATOM     10  C   UNL d   1      25.415 -15.891  -1.443  0.00  0.00     0.017 C 
ATOM     11  C   UNL d   1      25.988 -16.951  -0.540  0.00  0.00    -0.026 C 
ATOM     12  C   UNL d   1      25.055 -17.822  -0.135  0.00  0.00    -0.030 C 
ATOM     13  C   UNL d   1      23.748 -17.601  -0.809  0.00  0.00     0.027 C 
ATOM     14  C   UNL d   1      23.921 -16.252  -1.491  0.00  0.00     0.012 C 
ENDBRANCH   9  10
ENDBRANCH   6   9
ENDBRANCH   3   5
BRANCH   1  15
ATOM     15  C   UNL d   1      25.536  -9.601  -4.072  0.00  0.00     0.066 A 
ATOM     16  C   UNL d   1      25.486  -8.357  -3.426  0.00  0.00     0.020 A 
ATOM     17  C   UNL d   1      25.104  -7.198  -4.117  0.00  0.00     0.008 A 
ATOM     18  C   UNL d   1      24.773  -7.254  -5.472  0.00  0.00    -0.059 A 
ATOM     19  C   UNL d   1      24.385  -6.027  -6.244  0.00  0.00     0.048 C 
ATOM     20  C   UNL d   1      24.810  -8.492  -6.123  0.00  0.00     0.044 A 
ATOM     21  C   UNL d   1      25.179  -9.651  -5.432  0.00  0.00     0.082 A 
BRANCH  21  22
ATOM     22  O   UNL d   1      25.155 -10.800  -6.180  0.00  0.00    -0.360 OA
ATOM     23  H   UNL d   1      24.468 -11.396  -5.813  0.00  0.00     0.217 HD
ENDBRANCH  21  22
ENDBRANCH   1  15
TORSDOF 5
ENDMDL
MODEL 9
REMARK VINA RESULT:    -6.426      1.433      1.940
REMARK INTER + INTRA:          -9.924
REMARK INTER:                  -7.918
REMARK INTRA:                  -2.006
REMARK CONF_INDEPENDENT:        1.492
REMARK UNBOUND:                -2.006
REMARK  5 active torsions:
REMARK  status: ('A' for Active; 'I' for Inactive)
REMARK    1  A    between atoms: C_5  and  C_6 
REMARK       I    between atoms: C_6  and  N_8 
REMARK    2  A    between atoms: N_8  and  N_9 
REMARK       I    between atoms: N_9  and  C_10 
REMARK    3  A    between atoms: C_10  and  C_12 
REMARK    4  A    between atoms: C_13  and  C_12 
REMARK    5  A    between atoms: C_18  and  O_19 
ROOT
ATOM      1  C   UNL d   1      24.994 -16.311  -1.503  0.00  0.00     0.272 C 
ATOM      2  O   UNL d   1      24.455 -15.573  -2.338  0.00  0.00    -0.266 OA
ATOM      3  N   UNL d   1      24.325 -17.385  -0.936  0.00  0.00    -0.263 N 
ATOM      4  H   UNL d   1      24.704 -18.031  -0.246  0.00  0.00     0.190 HD
ENDROOT
BRANCH   3   5
ATOM      5  N   UNL d   1      22.983 -17.599  -1.275  0.00  0.00    -0.267 N 
ATOM      6  C   UNL d   1      22.346 -18.736  -0.831  0.00  0.00     0.236 C 
ATOM      7  O   UNL d   1      22.919 -19.560  -0.111  0.00  0.00    -0.272 OA
ATOM      8  H   UNL d   1      22.570 -16.897  -1.882  0.00  0.00     0.190 HD
BRANCH   6   9
ATOM      9  C   UNL d   1      20.901 -18.955  -1.266  0.00  0.00     0.113 C 
BRANCH   9  10
ATOM     10  C   UNL d   1      19.846 -19.023  -0.152  0.00  0.00     0.017 C 
ATOM     11  C   UNL d   1      20.235 -19.387   1.256  0.00  0.00    -0.026 C 
ATOM     12  C   UNL d   1      19.582 -20.473   1.691  0.00  0.00    -0.030 C 
ATOM     13  C   UNL d   1      18.775 -21.112   0.618  0.00  0.00     0.027 C 
ATOM     14  C   UNL d   1      18.784 -20.080  -0.499  0.00  0.00     0.012 C 
ENDBRANCH   9  10
ENDBRANCH   6   9
ENDBRANCH   3   5
BRANCH   1  15
ATOM     15  C   UNL d   1      26.406 -16.041  -1.083  0.00  0.00     0.066 A 
ATOM     16  C   UNL d   1      27.040 -14.828  -1.388  0.00  0.00     0.020 A 
ATOM     17  C   UNL d   1      28.359 -14.579  -0.982  0.00  0.00     0.008 A 
ATOM     18  C   UNL d   1      29.071 -15.533  -0.252  0.00  0.00    -0.059 A 
ATOM     19  C   UNL d   1      30.474 -15.284   0.217  0.00  0.00     0.048 C 
ATOM     20  C   UNL d   1      28.451 -16.750   0.047  0.00  0.00     0.044 A 
ATOM     21  C   UNL d   1      27.140 -17.006  -0.368  0.00  0.00     0.082 A 
BRANCH  21  22
ATOM     22  O   UNL d   1      26.657 -18.243  -0.027  0.00  0.00    -0.360 OA
ATOM     23  H   UNL d   1      26.528 -18.268   0.945  0.00  0.00     0.217 HD
ENDBRANCH  21  22
ENDBRANCH   1  15
TORSDOF 5
ENDMDL
