MODEL 1
REMARK VINA RESULT:    -8.651      0.000      0.000
REMARK INTER + INTRA:         -14.313
REMARK INTER:                 -11.932
REMARK INTRA:                  -2.381
REMARK CONF_INDEPENDENT:        3.281
REMARK UNBOUND:                -2.381
REMARK  11 active torsions:
REMARK  status: ('A' for Active; 'I' for Inactive)
REMARK    1  A    between atoms: C_2  and  C_3 
REMARK    2  A    between atoms: C_3  and  N_4 
REMARK    3  A    between atoms: C_5  and  S_6 
REMARK    4  A    between atoms: S_6  and  C_7 
REMARK    5  A    between atoms: C_7  and  C_8 
REMARK       I    between atoms: C_8  and  N_10 
REMARK    6  A    between atoms: N_10  and  C_11 
REMARK    7  A    between atoms: C_13  and  C_14 
REMARK    8  A    between atoms: C_14  and  O_16 
REMARK    9  A    between atoms: O_16  and  C_17 
REMARK   10  A    between atoms: C_26  and  C_27 
REMARK   11  A    between atoms: C_30  and  N_31 
ROOT
ATOM      1  C   UNL d   1      29.158 -14.243   3.625  0.00  0.00     0.099 A 
ATOM      2  S   UNL d   1      29.718 -15.060   5.054  0.00  0.00    -0.064 SA
ATOM      3  C   UNL d   1      29.167 -13.792   6.176  0.00  0.00     0.089 A 
ATOM      4  C   UNL d   1      28.482 -12.839   5.426  0.00  0.00    -0.015 A 
ATOM      5  C   UNL d   1      27.772 -11.637   5.951  0.00  0.00     0.051 C 
ATOM      6  C   UNL d   1      28.494 -13.096   3.998  0.00  0.00     0.086 A 
ATOM      7  C   UNL d   1      27.785 -12.266   3.068  0.00  0.00     0.103 C 
ATOM      8  N   UNL d   1      27.154 -11.593   2.352  0.00  0.00    -0.191 NA
ENDROOT
BRANCH   1   9
ATOM      9  N   UNL d   1      29.363 -14.780   2.319  0.00  0.00    -0.319 N 
ATOM     10  C   UNL d   1      30.397 -14.257   1.484  0.00  0.00     0.232 C 
ATOM     11  O   UNL d   1      31.244 -13.483   1.929  0.00  0.00    -0.272 OA
ATOM     12  H   UNL d   1      28.822 -15.590   2.036  0.00  0.00     0.169 HD
BRANCH  10  13
ATOM     13  C   UNL d   1      30.493 -14.799   0.021  0.00  0.00     0.185 C 
BRANCH  13  14
ATOM     14  S   UNL d   1      28.987 -14.568  -0.991  0.00  0.00    -0.081 SA
BRANCH  14  15
ATOM     15  C   UNL d   1      27.645 -15.650  -0.612  0.00  0.00     0.192 A 
ATOM     16  N   UNL d   1      26.382 -15.811  -1.148  0.00  0.00    -0.304 N 
ATOM     17  C   UNL d   1      25.759 -16.823  -0.413  0.00  0.00     0.164 A 
ATOM     18  N   UNL d   1      26.597 -17.222   0.520  0.00  0.00    -0.128 NA
ATOM     19  N   UNL d   1      27.763 -16.506   0.390  0.00  0.00    -0.122 NA
BRANCH  16  20
ATOM     20  C   UNL d   1      25.720 -15.127  -2.242  0.00  0.00     0.159 C 
BRANCH  20  21
ATOM     21  C   UNL d   1      26.305 -15.423  -3.580  0.00  0.00    -0.017 C 
ATOM     22  C   UNL d   1      26.190 -14.617  -4.643  0.00  0.00     0.008 C 
ENDBRANCH  20  21
ENDBRANCH  16  20
BRANCH  17  23
ATOM     23  C   UNL d   1      24.410 -17.389  -0.622  0.00  0.00     0.012 A 
ATOM     24  C   UNL d   1      23.307 -16.546  -0.838  0.00  0.00     0.018 A 
ATOM     25  C   UNL d   1      22.000 -17.062  -0.895  0.00  0.00     0.037 A 
ATOM     26  C   UNL d   1      21.797 -18.445  -0.846  0.00  0.00     0.102 A 
ATOM     27  C   UNL d   1      22.884 -19.303  -0.643  0.00  0.00     0.037 A 
ATOM     28  C   UNL d   1      24.177 -18.771  -0.520  0.00  0.00     0.018 A 
BRANCH  26  29
ATOM     29  N   UNL d   1      20.453 -19.001  -1.075  0.00  0.00    -0.116 N 
ATOM     30  O   UNL d   1      20.340 -19.917  -1.902  0.00  0.00    -0.532 OA
ATOM     31  O   UNL d   1      19.520 -18.548  -0.397  0.00  0.00    -0.532 OA
ENDBRANCH  26  29
ENDBRANCH  17  23
ENDBRANCH  14  15
ENDBRANCH  13  14
ENDBRANCH  10  13
ENDBRANCH   1   9
BRANCH   3  32
ATOM     32  C   UNL d   1      29.414 -13.843   7.667  0.00  0.00     0.300 C 
ATOM     33  O   UNL d   1      28.560 -13.965   8.538  0.00  0.00    -0.259 OA
BRANCH  32  34
ATOM     34  O   UNL d   1      30.763 -13.736   7.985  0.00  0.00    -0.317 OA
BRANCH  34  35
ATOM     35  C   UNL d   1      31.187 -13.343   9.326  0.00  0.00     0.174 C 
ATOM     36  C   UNL d   1      31.120 -14.519  10.317  0.00  0.00     0.034 C 
ENDBRANCH  34  35
ENDBRANCH  32  34
ENDBRANCH   3  32
TORSDOF 11
ENDMDL
MODEL 2
REMARK VINA RESULT:    -8.328      4.961      8.699
REMARK INTER + INTRA:         -14.614
REMARK INTER:                 -11.609
REMARK INTRA:                  -3.005
REMARK CONF_INDEPENDENT:        3.281
REMARK UNBOUND:                -3.005
REMARK  11 active torsions:
REMARK  status: ('A' for Active; 'I' for Inactive)
REMARK    1  A    between atoms: C_2  and  C_3 
REMARK    2  A    between atoms: C_3  and  N_4 
REMARK    3  A    between atoms: C_5  and  S_6 
REMARK    4  A    between atoms: S_6  and  C_7 
REMARK    5  A    between atoms: C_7  and  C_8 
REMARK       I    between atoms: C_8  and  N_10 
REMARK    6  A    between atoms: N_10  and  C_11 
REMARK    7  A    between atoms: C_13  and  C_14 
REMARK    8  A    between atoms: C_14  and  O_16 
REMARK    9  A    between atoms: O_16  and  C_17 
REMARK   10  A    between atoms: C_26  and  C_27 
REMARK   11  A    between atoms: C_30  and  N_31 
ROOT
ATOM      1  C   UNL d   1      26.894 -15.520  -2.790  0.00  0.00     0.099 A 
ATOM      2  S   UNL d   1      27.414 -16.775  -1.705  0.00  0.00    -0.064 SA
ATOM      3  C   UNL d   1      25.838 -16.929  -0.891  0.00  0.00     0.089 A 
ATOM      4  C   UNL d   1      24.942 -16.090  -1.549  0.00  0.00    -0.015 A 
ATOM      5  C   UNL d   1      23.485 -15.951  -1.269  0.00  0.00     0.051 C 
ATOM      6  C   UNL d   1      25.548 -15.296  -2.603  0.00  0.00     0.086 A 
ATOM      7  C   UNL d   1      24.776 -14.424  -3.439  0.00  0.00     0.103 C 
ATOM      8  N   UNL d   1      24.104 -13.764  -4.127  0.00  0.00    -0.191 NA
ENDROOT
BRANCH   1   9
ATOM      9  N   UNL d   1      27.786 -14.911  -3.724  0.00  0.00    -0.319 N 
ATOM     10  C   UNL d   1      27.578 -15.078  -5.126  0.00  0.00     0.232 C 
ATOM     11  O   UNL d   1      26.539 -15.575  -5.561  0.00  0.00    -0.272 OA
ATOM     12  H   UNL d   1      28.509 -14.293  -3.372  0.00  0.00     0.169 HD
BRANCH  10  13
ATOM     13  C   UNL d   1      28.655 -14.492  -6.096  0.00  0.00     0.185 C 
BRANCH  13  14
ATOM     14  S   UNL d   1      29.117 -12.751  -5.779  0.00  0.00    -0.081 SA
BRANCH  14  15
ATOM     15  C   UNL d   1      28.966 -12.220  -4.103  0.00  0.00     0.192 A 
ATOM     16  N   UNL d   1      28.035 -11.443  -3.440  0.00  0.00    -0.304 N 
ATOM     17  C   UNL d   1      28.459 -11.354  -2.111  0.00  0.00     0.164 A 
ATOM     18  N   UNL d   1      29.589 -12.020  -2.000  0.00  0.00    -0.128 NA
ATOM     19  N   UNL d   1      29.894 -12.562  -3.226  0.00  0.00    -0.122 NA
BRANCH  16  20
ATOM     20  C   UNL d   1      26.830 -10.792  -3.914  0.00  0.00     0.159 C 
BRANCH  20  21
ATOM     21  C   UNL d   1      26.322 -11.331  -5.207  0.00  0.00    -0.017 C 
ATOM     22  C   UNL d   1      26.542 -10.757  -6.397  0.00  0.00     0.008 C 
ENDBRANCH  20  21
ENDBRANCH  16  20
BRANCH  17  23
ATOM     23  C   UNL d   1      27.784 -10.663  -0.993  0.00  0.00     0.012 A 
ATOM     24  C   UNL d   1      27.372  -9.325  -1.124  0.00  0.00     0.018 A 
ATOM     25  C   UNL d   1      26.860  -8.614  -0.025  0.00  0.00     0.037 A 
ATOM     26  C   UNL d   1      26.651  -9.272   1.192  0.00  0.00     0.102 A 
ATOM     27  C   UNL d   1      27.043 -10.607   1.339  0.00  0.00     0.037 A 
ATOM     28  C   UNL d   1      27.616 -11.288   0.254  0.00  0.00     0.018 A 
BRANCH  26  29
ATOM     29  N   UNL d   1      25.959  -8.581   2.293  0.00  0.00    -0.116 N 
ATOM     30  O   UNL d   1      25.530  -7.438   2.078  0.00  0.00    -0.532 OA
ATOM     31  O   UNL d   1      25.809  -9.200   3.356  0.00  0.00    -0.532 OA
ENDBRANCH  26  29
ENDBRANCH  17  23
ENDBRANCH  14  15
ENDBRANCH  13  14
ENDBRANCH  10  13
ENDBRANCH   1   9
BRANCH   3  32
ATOM     32  C   UNL d   1      25.599 -17.860   0.277  0.00  0.00     0.300 C 
ATOM     33  O   UNL d   1      26.456 -18.317   1.026  0.00  0.00    -0.259 OA
BRANCH  32  34
ATOM     34  O   UNL d   1      24.254 -18.171   0.441  0.00  0.00    -0.317 OA
BRANCH  34  35
ATOM     35  C   UNL d   1      23.559 -19.020  -0.523  0.00  0.00     0.174 C 
ATOM     36  C   UNL d   1      22.030 -18.944  -0.357  0.00  0.00     0.034 C 
ENDBRANCH  34  35
ENDBRANCH  32  34
ENDBRANCH   3  32
TORSDOF 11
ENDMDL
MODEL 3
REMARK VINA RESULT:    -8.295      5.007      8.868
REMARK INTER + INTRA:         -14.751
REMARK INTER:                 -11.576
REMARK INTRA:                  -3.175
REMARK CONF_INDEPENDENT:        3.281
REMARK UNBOUND:                -3.175
REMARK  11 active torsions:
REMARK  status: ('A' for Active; 'I' for Inactive)
REMARK    1  A    between atoms: C_2  and  C_3 
REMARK    2  A    between atoms: C_3  and  N_4 
REMARK    3  A    between atoms: C_5  and  S_6 
REMARK    4  A    between atoms: S_6  and  C_7 
REMARK    5  A    between atoms: C_7  and  C_8 
REMARK       I    between atoms: C_8  and  N_10 
REMARK    6  A    between atoms: N_10  and  C_11 
REMARK    7  A    between atoms: C_13  and  C_14 
REMARK    8  A    between atoms: C_14  and  O_16 
REMARK    9  A    between atoms: O_16  and  C_17 
REMARK   10  A    between atoms: C_26  and  C_27 
REMARK   11  A    between atoms: C_30  and  N_31 
ROOT
ATOM      1  C   UNL d   1      26.877 -15.715  -2.668  0.00  0.00     0.099 A 
ATOM      2  S   UNL d   1      25.174 -15.368  -2.638  0.00  0.00    -0.064 SA
ATOM      3  C   UNL d   1      24.826 -16.450  -1.268  0.00  0.00     0.089 A 
ATOM      4  C   UNL d   1      26.041 -16.957  -0.815  0.00  0.00    -0.015 A 
ATOM      5  C   UNL d   1      26.251 -17.841   0.367  0.00  0.00     0.051 C 
ATOM      6  C   UNL d   1      27.182 -16.549  -1.614  0.00  0.00     0.086 A 
ATOM      7  C   UNL d   1      28.525 -16.912  -1.267  0.00  0.00     0.103 C 
ATOM      8  N   UNL d   1      29.605 -17.189  -0.922  0.00  0.00    -0.191 NA
ENDROOT
BRANCH   1   9
ATOM      9  N   UNL d   1      27.749 -15.142  -3.643  0.00  0.00    -0.319 N 
ATOM     10  C   UNL d   1      27.412 -15.205  -5.029  0.00  0.00     0.232 C 
ATOM     11  O   UNL d   1      26.296 -15.572  -5.397  0.00  0.00    -0.272 OA
ATOM     12  H   UNL d   1      28.558 -14.620  -3.323  0.00  0.00     0.169 HD
BRANCH  10  13
ATOM     13  C   UNL d   1      28.462 -14.671  -6.056  0.00  0.00     0.185 C 
BRANCH  13  14
ATOM     14  S   UNL d   1      29.216 -13.060  -5.628  0.00  0.00    -0.081 SA
BRANCH  14  15
ATOM     15  C   UNL d   1      28.967 -12.526  -3.965  0.00  0.00     0.192 A 
ATOM     16  N   UNL d   1      28.179 -11.541  -3.398  0.00  0.00    -0.304 N 
ATOM     17  C   UNL d   1      28.417 -11.580  -2.021  0.00  0.00     0.164 A 
ATOM     18  N   UNL d   1      29.312 -12.517  -1.789  0.00  0.00    -0.128 NA
ATOM     19  N   UNL d   1      29.641 -13.106  -2.986  0.00  0.00    -0.122 NA
BRANCH  16  20
ATOM     20  C   UNL d   1      27.260 -10.596  -4.000  0.00  0.00     0.159 C 
BRANCH  20  21
ATOM     21  C   UNL d   1      25.922 -11.171  -4.313  0.00  0.00    -0.017 C 
ATOM     22  C   UNL d   1      25.530 -12.398  -3.947  0.00  0.00     0.008 C 
ENDBRANCH  20  21
ENDBRANCH  16  20
BRANCH  17  23
ATOM     23  C   UNL d   1      27.787 -10.749  -0.974  0.00  0.00     0.012 A 
ATOM     24  C   UNL d   1      27.544  -9.383  -1.195  0.00  0.00     0.018 A 
ATOM     25  C   UNL d   1      27.079  -8.552  -0.161  0.00  0.00     0.037 A 
ATOM     26  C   UNL d   1      26.747  -9.108   1.080  0.00  0.00     0.102 A 
ATOM     27  C   UNL d   1      26.970 -10.469   1.317  0.00  0.00     0.037 A 
ATOM     28  C   UNL d   1      27.499 -11.275   0.296  0.00  0.00     0.018 A 
BRANCH  26  29
ATOM     29  N   UNL d   1      26.102  -8.277   2.109  0.00  0.00    -0.116 N 
ATOM     30  O   UNL d   1      26.280  -8.586   3.296  0.00  0.00    -0.532 OA
ATOM     31  O   UNL d   1      25.452  -7.292   1.730  0.00  0.00    -0.532 OA
ENDBRANCH  26  29
ENDBRANCH  17  23
ENDBRANCH  14  15
ENDBRANCH  13  14
ENDBRANCH  10  13
ENDBRANCH   1   9
BRANCH   3  32
ATOM     32  C   UNL d   1      23.430 -16.686  -0.735  0.00  0.00     0.300 C 
ATOM     33  O   UNL d   1      22.461 -15.950  -0.893  0.00  0.00    -0.259 OA
BRANCH  32  34
ATOM     34  O   UNL d   1      23.330 -17.871  -0.016  0.00  0.00    -0.317 OA
BRANCH  34  35
ATOM     35  C   UNL d   1      22.744 -19.066  -0.618  0.00  0.00     0.174 C 
ATOM     36  C   UNL d   1      21.208 -19.070  -0.505  0.00  0.00     0.034 C 
ENDBRANCH  34  35
ENDBRANCH  32  34
ENDBRANCH   3  32
TORSDOF 11
ENDMDL
MODEL 4
REMARK VINA RESULT:    -8.063      5.363      8.979
REMARK INTER + INTRA:         -13.946
REMARK INTER:                 -11.344
REMARK INTRA:                  -2.602
REMARK CONF_INDEPENDENT:        3.281
REMARK UNBOUND:                -2.602
REMARK  11 active torsions:
REMARK  status: ('A' for Active; 'I' for Inactive)
REMARK    1  A    between atoms: C_2  and  C_3 
REMARK    2  A    between atoms: C_3  and  N_4 
REMARK    3  A    between atoms: C_5  and  S_6 
REMARK    4  A    between atoms: S_6  and  C_7 
REMARK    5  A    between atoms: C_7  and  C_8 
REMARK       I    between atoms: C_8  and  N_10 
REMARK    6  A    between atoms: N_10  and  C_11 
REMARK    7  A    between atoms: C_13  and  C_14 
REMARK    8  A    between atoms: C_14  and  O_16 
REMARK    9  A    between atoms: O_16  and  C_17 
REMARK   10  A    between atoms: C_26  and  C_27 
REMARK   11  A    between atoms: C_30  and  N_31 
ROOT
ATOM      1  C   UNL d   1      27.135 -15.391  -2.743  0.00  0.00     0.099 A 
ATOM      2  S   UNL d   1      27.638 -16.641  -1.644  0.00  0.00    -0.064 SA
ATOM      3  C   UNL d   1      26.019 -16.884  -0.945  0.00  0.00     0.089 A 
ATOM      4  C   UNL d   1      25.132 -16.074  -1.651  0.00  0.00    -0.015 A 
ATOM      5  C   UNL d   1      23.653 -16.008  -1.472  0.00  0.00     0.051 C 
ATOM      6  C   UNL d   1      25.770 -15.234  -2.647  0.00  0.00     0.086 A 
ATOM      7  C   UNL d   1      25.018 -14.383  -3.522  0.00  0.00     0.103 C 
ATOM      8  N   UNL d   1      24.364 -13.741  -4.245  0.00  0.00    -0.191 NA
ENDROOT
BRANCH   1   9
ATOM      9  N   UNL d   1      28.059 -14.724  -3.602  0.00  0.00    -0.319 N 
ATOM     10  C   UNL d   1      28.011 -14.941  -5.013  0.00  0.00     0.232 C 
ATOM     11  O   UNL d   1      27.069 -15.541  -5.533  0.00  0.00    -0.272 OA
ATOM     12  H   UNL d   1      28.685 -14.034  -3.200  0.00  0.00     0.169 HD
BRANCH  10  13
ATOM     13  C   UNL d   1      29.125 -14.280  -5.889  0.00  0.00     0.185 C 
BRANCH  13  14
ATOM     14  S   UNL d   1      29.006 -12.462  -6.051  0.00  0.00    -0.081 SA
BRANCH  14  15
ATOM     15  C   UNL d   1      27.990 -11.659  -4.853  0.00  0.00     0.192 A 
ATOM     16  N   UNL d   1      28.263 -11.036  -3.650  0.00  0.00    -0.304 N 
ATOM     17  C   UNL d   1      27.039 -10.599  -3.136  0.00  0.00     0.164 A 
ATOM     18  N   UNL d   1      26.093 -10.964  -3.975  0.00  0.00    -0.128 NA
ATOM     19  N   UNL d   1      26.682 -11.607  -5.038  0.00  0.00    -0.122 NA
BRANCH  16  20
ATOM     20  C   UNL d   1      29.517 -10.822  -2.954  0.00  0.00     0.159 C 
BRANCH  20  21
ATOM     21  C   UNL d   1      30.115 -12.065  -2.391  0.00  0.00    -0.017 C 
ATOM     22  C   UNL d   1      29.609 -12.733  -1.346  0.00  0.00     0.008 C 
ENDBRANCH  20  21
ENDBRANCH  16  20
BRANCH  17  23
ATOM     23  C   UNL d   1      26.803  -9.844  -1.888  0.00  0.00     0.012 A 
ATOM     24  C   UNL d   1      27.363 -10.278  -0.673  0.00  0.00     0.018 A 
ATOM     25  C   UNL d   1      27.030  -9.653   0.541  0.00  0.00     0.037 A 
ATOM     26  C   UNL d   1      26.217  -8.515   0.537  0.00  0.00     0.102 A 
ATOM     27  C   UNL d   1      25.660  -8.060  -0.663  0.00  0.00     0.037 A 
ATOM     28  C   UNL d   1      25.945  -8.732  -1.861  0.00  0.00     0.018 A 
BRANCH  26  29
ATOM     29  N   UNL d   1      26.004  -7.758   1.782  0.00  0.00    -0.116 N 
ATOM     30  O   UNL d   1      26.597  -8.143   2.801  0.00  0.00    -0.532 OA
ATOM     31  O   UNL d   1      25.279  -6.755   1.729  0.00  0.00    -0.532 OA
ENDBRANCH  26  29
ENDBRANCH  17  23
ENDBRANCH  14  15
ENDBRANCH  13  14
ENDBRANCH  10  13
ENDBRANCH   1   9
BRANCH   3  32
ATOM     32  C   UNL d   1      25.744 -17.847   0.189  0.00  0.00     0.300 C 
ATOM     33  O   UNL d   1      26.585 -18.469   0.829  0.00  0.00    -0.259 OA
BRANCH  32  34
ATOM     34  O   UNL d   1      24.387 -17.973   0.460  0.00  0.00    -0.317 OA
BRANCH  34  35
ATOM     35  C   UNL d   1      23.569 -18.952  -0.252  0.00  0.00     0.174 C 
ATOM     36  C   UNL d   1      22.067 -18.631  -0.146  0.00  0.00     0.034 C 
ENDBRANCH  34  35
ENDBRANCH  32  34
ENDBRANCH   3  32
TORSDOF 11
ENDMDL
MODEL 5
REMARK VINA RESULT:    -7.839      3.747      8.747
REMARK INTER + INTRA:         -13.920
REMARK INTER:                 -11.120
REMARK INTRA:                  -2.800
REMARK CONF_INDEPENDENT:        3.281
REMARK UNBOUND:                -2.800
REMARK  11 active torsions:
REMARK  status: ('A' for Active; 'I' for Inactive)
REMARK    1  A    between atoms: C_2  and  C_3 
REMARK    2  A    between atoms: C_3  and  N_4 
REMARK    3  A    between atoms: C_5  and  S_6 
REMARK    4  A    between atoms: S_6  and  C_7 
REMARK    5  A    between atoms: C_7  and  C_8 
REMARK       I    between atoms: C_8  and  N_10 
REMARK    6  A    between atoms: N_10  and  C_11 
REMARK    7  A    between atoms: C_13  and  C_14 
REMARK    8  A    between atoms: C_14  and  O_16 
REMARK    9  A    between atoms: O_16  and  C_17 
REMARK   10  A    between atoms: C_26  and  C_27 
REMARK   11  A    between atoms: C_30  and  N_31 
ROOT
ATOM      1  C   UNL d   1      27.649 -16.679  -0.311  0.00  0.00     0.099 A 
ATOM      2  S   UNL d   1      26.341 -17.626   0.333  0.00  0.00    -0.064 SA
ATOM      3  C   UNL d   1      25.111 -16.941  -0.755  0.00  0.00     0.089 A 
ATOM      4  C   UNL d   1      25.764 -16.090  -1.643  0.00  0.00    -0.015 A 
ATOM      5  C   UNL d   1      25.151 -15.358  -2.788  0.00  0.00     0.051 C 
ATOM      6  C   UNL d   1      27.183 -15.941  -1.377  0.00  0.00     0.086 A 
ATOM      7  C   UNL d   1      28.040 -15.162  -2.222  0.00  0.00     0.103 C 
ATOM      8  N   UNL d   1      28.709 -14.558  -2.963  0.00  0.00    -0.191 NA
ENDROOT
BRANCH   1   9
ATOM      9  N   UNL d   1      28.972 -16.757   0.220  0.00  0.00    -0.319 N 
ATOM     10  C   UNL d   1      30.001 -17.418  -0.517  0.00  0.00     0.232 C 
ATOM     11  O   UNL d   1      29.828 -17.758  -1.687  0.00  0.00    -0.272 OA
ATOM     12  H   UNL d   1      29.179 -16.262   1.081  0.00  0.00     0.169 HD
BRANCH  10  13
ATOM     13  C   UNL d   1      31.396 -17.579   0.169  0.00  0.00     0.185 C 
BRANCH  13  14
ATOM     14  S   UNL d   1      31.923 -16.160   1.196  0.00  0.00    -0.081 SA
BRANCH  14  15
ATOM     15  C   UNL d   1      31.030 -14.662   0.934  0.00  0.00     0.192 A 
ATOM     16  N   UNL d   1      30.176 -13.920   1.728  0.00  0.00    -0.304 N 
ATOM     17  C   UNL d   1      29.759 -12.828   0.961  0.00  0.00     0.164 A 
ATOM     18  N   UNL d   1      30.317 -12.931  -0.227  0.00  0.00    -0.128 NA
ATOM     19  N   UNL d   1      31.108 -14.055  -0.239  0.00  0.00    -0.122 NA
BRANCH  16  20
ATOM     20  C   UNL d   1      29.722 -14.131   3.089  0.00  0.00     0.159 C 
BRANCH  20  21
ATOM     21  C   UNL d   1      28.260 -14.397   3.202  0.00  0.00    -0.017 C 
ATOM     22  C   UNL d   1      27.509 -14.021   4.245  0.00  0.00     0.008 C 
ENDBRANCH  20  21
ENDBRANCH  16  20
BRANCH  17  23
ATOM     23  C   UNL d   1      28.870 -11.723   1.375  0.00  0.00     0.012 A 
ATOM     24  C   UNL d   1      29.305 -10.764   2.305  0.00  0.00     0.018 A 
ATOM     25  C   UNL d   1      28.424  -9.795   2.813  0.00  0.00     0.037 A 
ATOM     26  C   UNL d   1      27.121  -9.709   2.309  0.00  0.00     0.102 A 
ATOM     27  C   UNL d   1      26.672 -10.646   1.373  0.00  0.00     0.037 A 
ATOM     28  C   UNL d   1      27.541 -11.652   0.923  0.00  0.00     0.018 A 
BRANCH  26  29
ATOM     29  N   UNL d   1      26.249  -8.593   2.712  0.00  0.00    -0.116 N 
ATOM     30  O   UNL d   1      26.655  -7.835   3.605  0.00  0.00    -0.532 OA
ATOM     31  O   UNL d   1      25.178  -8.452   2.105  0.00  0.00    -0.532 OA
ENDBRANCH  26  29
ENDBRANCH  17  23
ENDBRANCH  14  15
ENDBRANCH  13  14
ENDBRANCH  10  13
ENDBRANCH   1   9
BRANCH   3  32
ATOM     32  C   UNL d   1      23.645 -17.306  -0.679  0.00  0.00     0.300 C 
ATOM     33  O   UNL d   1      22.716 -16.531  -0.475  0.00  0.00    -0.259 OA
BRANCH  32  34
ATOM     34  O   UNL d   1      23.426 -18.664  -0.872  0.00  0.00    -0.317 OA
BRANCH  34  35
ATOM     35  C   UNL d   1      22.260 -19.325  -0.291  0.00  0.00     0.174 C 
ATOM     36  C   UNL d   1      20.944 -18.804  -0.895  0.00  0.00     0.034 C 
ENDBRANCH  34  35
ENDBRANCH  32  34
ENDBRANCH   3  32
TORSDOF 11
ENDMDL
MODEL 6
REMARK VINA RESULT:    -7.590      5.592      9.429
REMARK INTER + INTRA:         -13.848
REMARK INTER:                 -10.871
REMARK INTRA:                  -2.977
REMARK CONF_INDEPENDENT:        3.281
REMARK UNBOUND:                -2.977
REMARK  11 active torsions:
REMARK  status: ('A' for Active; 'I' for Inactive)
REMARK    1  A    between atoms: C_2  and  C_3 
REMARK    2  A    between atoms: C_3  and  N_4 
REMARK    3  A    between atoms: C_5  and  S_6 
REMARK    4  A    between atoms: S_6  and  C_7 
REMARK    5  A    between atoms: C_7  and  C_8 
REMARK       I    between atoms: C_8  and  N_10 
REMARK    6  A    between atoms: N_10  and  C_11 
REMARK    7  A    between atoms: C_13  and  C_14 
REMARK    8  A    between atoms: C_14  and  O_16 
REMARK    9  A    between atoms: O_16  and  C_17 
REMARK   10  A    between atoms: C_26  and  C_27 
REMARK   11  A    between atoms: C_30  and  N_31 
ROOT
ATOM      1  C   UNL d   1      26.637 -14.826  -3.173  0.00  0.00     0.099 A 
ATOM      2  S   UNL d   1      24.910 -14.782  -2.985  0.00  0.00    -0.064 SA
ATOM      3  C   UNL d   1      24.861 -16.071  -1.758  0.00  0.00     0.089 A 
ATOM      4  C   UNL d   1      26.177 -16.416  -1.460  0.00  0.00    -0.015 A 
ATOM      5  C   UNL d   1      26.628 -17.392  -0.429  0.00  0.00     0.051 C 
ATOM      6  C   UNL d   1      27.163 -15.720  -2.268  0.00  0.00     0.086 A 
ATOM      7  C   UNL d   1      28.572 -15.889  -2.063  0.00  0.00     0.103 C 
ATOM      8  N   UNL d   1      29.708 -16.019  -1.830  0.00  0.00    -0.191 NA
ENDROOT
BRANCH   1   9
ATOM      9  N   UNL d   1      27.316 -13.994  -4.114  0.00  0.00    -0.319 N 
ATOM     10  C   UNL d   1      27.652 -14.500  -5.406  0.00  0.00     0.232 C 
ATOM     11  O   UNL d   1      27.204 -15.575  -5.805  0.00  0.00    -0.272 OA
ATOM     12  H   UNL d   1      27.473 -13.020  -3.876  0.00  0.00     0.169 HD
BRANCH  10  13
ATOM     13  C   UNL d   1      28.503 -13.585  -6.346  0.00  0.00     0.185 C 
BRANCH  13  14
ATOM     14  S   UNL d   1      27.992 -11.829  -6.387  0.00  0.00    -0.081 SA
BRANCH  14  15
ATOM     15  C   UNL d   1      27.184 -11.241  -4.934  0.00  0.00     0.192 A 
ATOM     16  N   UNL d   1      27.574 -10.393  -3.914  0.00  0.00    -0.304 N 
ATOM     17  C   UNL d   1      26.500 -10.316  -3.022  0.00  0.00     0.164 A 
ATOM     18  N   UNL d   1      25.539 -11.092  -3.476  0.00  0.00    -0.128 NA
ATOM     19  N   UNL d   1      25.957 -11.652  -4.659  0.00  0.00    -0.122 NA
BRANCH  16  20
ATOM     20  C   UNL d   1      28.815  -9.677  -3.697  0.00  0.00     0.159 C 
BRANCH  20  21
ATOM     21  C   UNL d   1      29.832 -10.450  -2.931  0.00  0.00    -0.017 C 
ATOM     22  C   UNL d   1      30.220 -11.693  -3.243  0.00  0.00     0.008 C 
ENDBRANCH  20  21
ENDBRANCH  16  20
BRANCH  17  23
ATOM     23  C   UNL d   1      26.409  -9.507  -1.789  0.00  0.00     0.012 A 
ATOM     24  C   UNL d   1      27.137  -9.868  -0.642  0.00  0.00     0.018 A 
ATOM     25  C   UNL d   1      26.950  -9.194   0.577  0.00  0.00     0.037 A 
ATOM     26  C   UNL d   1      26.111  -8.076   0.630  0.00  0.00     0.102 A 
ATOM     27  C   UNL d   1      25.387  -7.692  -0.504  0.00  0.00     0.037 A 
ATOM     28  C   UNL d   1      25.530  -8.415  -1.698  0.00  0.00     0.018 A 
BRANCH  26  29
ATOM     29  N   UNL d   1      26.042  -7.265   1.857  0.00  0.00    -0.116 N 
ATOM     30  O   UNL d   1      25.406  -6.202   1.812  0.00  0.00    -0.532 OA
ATOM     31  O   UNL d   1      26.590  -7.713   2.874  0.00  0.00    -0.532 OA
ENDBRANCH  26  29
ENDBRANCH  17  23
ENDBRANCH  14  15
ENDBRANCH  13  14
ENDBRANCH  10  13
ENDBRANCH   1   9
BRANCH   3  32
ATOM     32  C   UNL d   1      23.573 -16.608  -1.174  0.00  0.00     0.300 C 
ATOM     33  O   UNL d   1      22.575 -15.951  -0.896  0.00  0.00    -0.259 OA
BRANCH  32  34
ATOM     34  O   UNL d   1      23.616 -17.982  -0.969  0.00  0.00    -0.317 OA
BRANCH  34  35
ATOM     35  C   UNL d   1      22.629 -18.644  -0.121  0.00  0.00     0.174 C 
ATOM     36  C   UNL d   1      21.311 -18.908  -0.873  0.00  0.00     0.034 C 
ENDBRANCH  34  35
ENDBRANCH  32  34
ENDBRANCH   3  32
TORSDOF 11
ENDMDL
MODEL 7
REMARK VINA RESULT:    -7.491      4.168      8.732
REMARK INTER + INTRA:         -14.152
REMARK INTER:                 -10.772
REMARK INTRA:                  -3.380
REMARK CONF_INDEPENDENT:        3.281
REMARK UNBOUND:                -3.380
REMARK  11 active torsions:
REMARK  status: ('A' for Active; 'I' for Inactive)
REMARK    1  A    between atoms: C_2  and  C_3 
REMARK    2  A    between atoms: C_3  and  N_4 
REMARK    3  A    between atoms: C_5  and  S_6 
REMARK    4  A    between atoms: S_6  and  C_7 
REMARK    5  A    between atoms: C_7  and  C_8 
REMARK       I    between atoms: C_8  and  N_10 
REMARK    6  A    between atoms: N_10  and  C_11 
REMARK    7  A    between atoms: C_13  and  C_14 
REMARK    8  A    between atoms: C_14  and  O_16 
REMARK    9  A    between atoms: O_16  and  C_17 
REMARK   10  A    between atoms: C_26  and  C_27 
REMARK   11  A    between atoms: C_30  and  N_31 
ROOT
ATOM      1  C   UNL d   1      27.064 -16.787  -0.230  0.00  0.00     0.099 A 
ATOM      2  S   UNL d   1      26.174 -18.276  -0.121  0.00  0.00    -0.064 SA
ATOM      3  C   UNL d   1      24.697 -17.621  -0.871  0.00  0.00     0.089 A 
ATOM      4  C   UNL d   1      24.975 -16.317  -1.272  0.00  0.00    -0.015 A 
ATOM      5  C   UNL d   1      24.063 -15.405  -2.020  0.00  0.00     0.051 C 
ATOM      6  C   UNL d   1      26.299 -15.856  -0.897  0.00  0.00     0.086 A 
ATOM      7  C   UNL d   1      26.794 -14.567  -1.281  0.00  0.00     0.103 C 
ATOM      8  N   UNL d   1      27.175 -13.529  -1.656  0.00  0.00    -0.191 NA
ENDROOT
BRANCH   1   9
ATOM      9  N   UNL d   1      28.391 -16.660   0.281  0.00  0.00    -0.319 N 
ATOM     10  C   UNL d   1      29.502 -16.623  -0.614  0.00  0.00     0.232 C 
ATOM     11  O   UNL d   1      29.338 -16.503  -1.828  0.00  0.00    -0.272 OA
ATOM     12  H   UNL d   1      28.515 -16.512   1.277  0.00  0.00     0.169 HD
BRANCH  10  13
ATOM     13  C   UNL d   1      30.937 -16.608   0.009  0.00  0.00     0.185 C 
BRANCH  13  14
ATOM     14  S   UNL d   1      31.190 -15.380   1.341  0.00  0.00    -0.081 SA
BRANCH  14  15
ATOM     15  C   UNL d   1      29.817 -14.321   1.667  0.00  0.00     0.192 A 
ATOM     16  N   UNL d   1      29.610 -12.965   1.496  0.00  0.00    -0.304 N 
ATOM     17  C   UNL d   1      28.317 -12.695   1.955  0.00  0.00     0.164 A 
ATOM     18  N   UNL d   1      27.799 -13.822   2.395  0.00  0.00    -0.128 NA
ATOM     19  N   UNL d   1      28.720 -14.825   2.206  0.00  0.00    -0.122 NA
BRANCH  16  20
ATOM     20  C   UNL d   1      30.477 -11.931   0.967  0.00  0.00     0.159 C 
BRANCH  20  21
ATOM     21  C   UNL d   1      30.529 -11.890  -0.522  0.00  0.00    -0.017 C 
ATOM     22  C   UNL d   1      30.759 -12.960  -1.293  0.00  0.00     0.008 C 
ENDBRANCH  20  21
ENDBRANCH  16  20
BRANCH  17  23
ATOM     23  C   UNL d   1      27.612 -11.397   1.951  0.00  0.00     0.012 A 
ATOM     24  C   UNL d   1      27.446 -10.678   0.754  0.00  0.00     0.018 A 
ATOM     25  C   UNL d   1      26.906  -9.380   0.758  0.00  0.00     0.037 A 
ATOM     26  C   UNL d   1      26.424  -8.832   1.952  0.00  0.00     0.102 A 
ATOM     27  C   UNL d   1      26.569  -9.536   3.152  0.00  0.00     0.037 A 
ATOM     28  C   UNL d   1      27.171 -10.804   3.145  0.00  0.00     0.018 A 
BRANCH  26  29
ATOM     29  N   UNL d   1      25.705  -7.547   1.934  0.00  0.00    -0.116 N 
ATOM     30  O   UNL d   1      25.932  -6.745   2.852  0.00  0.00    -0.532 OA
ATOM     31  O   UNL d   1      24.947  -7.325   0.980  0.00  0.00    -0.532 OA
ENDBRANCH  26  29
ENDBRANCH  17  23
ENDBRANCH  14  15
ENDBRANCH  13  14
ENDBRANCH  10  13
ENDBRANCH   1   9
BRANCH   3  32
ATOM     32  C   UNL d   1      23.426 -18.425  -1.032  0.00  0.00     0.300 C 
ATOM     33  O   UNL d   1      23.238 -19.325  -1.844  0.00  0.00    -0.259 OA
BRANCH  32  34
ATOM     34  O   UNL d   1      22.438 -18.040  -0.135  0.00  0.00    -0.317 OA
BRANCH  34  35
ATOM     35  C   UNL d   1      21.382 -18.968   0.261  0.00  0.00     0.174 C 
ATOM     36  C   UNL d   1      20.211 -18.966  -0.739  0.00  0.00     0.034 C 
ENDBRANCH  34  35
ENDBRANCH  32  34
ENDBRANCH   3  32
TORSDOF 11
ENDMDL
MODEL 8
REMARK VINA RESULT:    -7.467      3.939      9.272
REMARK INTER + INTRA:         -13.645
REMARK INTER:                 -10.748
REMARK INTRA:                  -2.897
REMARK CONF_INDEPENDENT:        3.281
REMARK UNBOUND:                -2.897
REMARK  11 active torsions:
REMARK  status: ('A' for Active; 'I' for Inactive)
REMARK    1  A    between atoms: C_2  and  C_3 
REMARK    2  A    between atoms: C_3  and  N_4 
REMARK    3  A    between atoms: C_5  and  S_6 
REMARK    4  A    between atoms: S_6  and  C_7 
REMARK    5  A    between atoms: C_7  and  C_8 
REMARK       I    between atoms: C_8  and  N_10 
REMARK    6  A    between atoms: N_10  and  C_11 
REMARK    7  A    between atoms: C_13  and  C_14 
REMARK    8  A    between atoms: C_14  and  O_16 
REMARK    9  A    between atoms: O_16  and  C_17 
REMARK   10  A    between atoms: C_26  and  C_27 
REMARK   11  A    between atoms: C_30  and  N_31 
ROOT
ATOM      1  C   UNL d   1      28.162 -16.144  -0.767  0.00  0.00     0.099 A 
ATOM      2  S   UNL d   1      28.110 -15.059  -2.123  0.00  0.00    -0.064 SA
ATOM      3  C   UNL d   1      26.541 -15.647  -2.725  0.00  0.00     0.089 A 
ATOM      4  C   UNL d   1      26.063 -16.579  -1.807  0.00  0.00    -0.015 A 
ATOM      5  C   UNL d   1      24.746 -17.275  -1.851  0.00  0.00     0.051 C 
ATOM      6  C   UNL d   1      26.985 -16.859  -0.721  0.00  0.00     0.086 A 
ATOM      7  C   UNL d   1      26.646 -17.738   0.359  0.00  0.00     0.103 C 
ATOM      8  N   UNL d   1      26.310 -18.423   1.243  0.00  0.00    -0.191 NA
ENDROOT
BRANCH   1   9
ATOM      9  N   UNL d   1      29.273 -16.183   0.129  0.00  0.00    -0.319 N 
ATOM     10  C   UNL d   1      30.605 -16.227  -0.385  0.00  0.00     0.232 C 
ATOM     11  O   UNL d   1      30.833 -16.039  -1.580  0.00  0.00    -0.272 OA
ATOM     12  H   UNL d   1      29.098 -16.091   1.124  0.00  0.00     0.169 HD
BRANCH  10  13
ATOM     13  C   UNL d   1      31.773 -16.392   0.641  0.00  0.00     0.185 C 
BRANCH  13  14
ATOM     14  S   UNL d   1      31.626 -15.375   2.154  0.00  0.00    -0.081 SA
BRANCH  14  15
ATOM     15  C   UNL d   1      30.225 -14.305   2.214  0.00  0.00     0.192 A 
ATOM     16  N   UNL d   1      30.087 -12.929   2.213  0.00  0.00    -0.304 N 
ATOM     17  C   UNL d   1      28.717 -12.662   2.294  0.00  0.00     0.164 A 
ATOM     18  N   UNL d   1      28.082 -13.814   2.362  0.00  0.00    -0.128 NA
ATOM     19  N   UNL d   1      29.012 -14.824   2.302  0.00  0.00    -0.122 NA
BRANCH  16  20
ATOM     20  C   UNL d   1      31.080 -11.875   2.152  0.00  0.00     0.159 C 
BRANCH  20  21
ATOM     21  C   UNL d   1      31.403 -11.273   3.476  0.00  0.00    -0.017 C 
ATOM     22  C   UNL d   1      31.015 -11.791   4.649  0.00  0.00     0.008 C 
ENDBRANCH  20  21
ENDBRANCH  16  20
BRANCH  17  23
ATOM     23  C   UNL d   1      28.054 -11.342   2.287  0.00  0.00     0.012 A 
ATOM     24  C   UNL d   1      27.359 -10.885   3.420  0.00  0.00     0.018 A 
ATOM     25  C   UNL d   1      26.606  -9.699   3.379  0.00  0.00     0.037 A 
ATOM     26  C   UNL d   1      26.633  -8.899   2.231  0.00  0.00     0.102 A 
ATOM     27  C   UNL d   1      27.329  -9.330   1.097  0.00  0.00     0.037 A 
ATOM     28  C   UNL d   1      28.022 -10.550   1.127  0.00  0.00     0.018 A 
BRANCH  26  29
ATOM     29  N   UNL d   1      25.986  -7.576   2.241  0.00  0.00    -0.116 N 
ATOM     30  O   UNL d   1      25.155  -7.333   1.355  0.00  0.00    -0.532 OA
ATOM     31  O   UNL d   1      26.280  -6.799   3.161  0.00  0.00    -0.532 OA
ENDBRANCH  26  29
ENDBRANCH  17  23
ENDBRANCH  14  15
ENDBRANCH  13  14
ENDBRANCH  10  13
ENDBRANCH   1   9
BRANCH   3  32
ATOM     32  C   UNL d   1      25.901 -15.139  -3.998  0.00  0.00     0.300 C 
ATOM     33  O   UNL d   1      24.882 -14.461  -4.074  0.00  0.00    -0.259 OA
BRANCH  32  34
ATOM     34  O   UNL d   1      26.601 -15.525  -5.134  0.00  0.00    -0.317 OA
BRANCH  34  35
ATOM     35  C   UNL d   1      27.836 -14.846  -5.519  0.00  0.00     0.174 C 
ATOM     36  C   UNL d   1      29.076 -15.721  -5.261  0.00  0.00     0.034 C 
ENDBRANCH  34  35
ENDBRANCH  32  34
ENDBRANCH   3  32
TORSDOF 11
ENDMDL
MODEL 9
REMARK VINA RESULT:    -7.174      4.223      8.944
REMARK INTER + INTRA:         -13.795
REMARK INTER:                 -10.456
REMARK INTRA:                  -3.340
REMARK CONF_INDEPENDENT:        3.281
REMARK UNBOUND:                -3.340
REMARK  11 active torsions:
REMARK  status: ('A' for Active; 'I' for Inactive)
REMARK    1  A    between atoms: C_2  and  C_3 
REMARK    2  A    between atoms: C_3  and  N_4 
REMARK    3  A    between atoms: C_5  and  S_6 
REMARK    4  A    between atoms: S_6  and  C_7 
REMARK    5  A    between atoms: C_7  and  C_8 
REMARK       I    between atoms: C_8  and  N_10 
REMARK    6  A    between atoms: N_10  and  C_11 
REMARK    7  A    between atoms: C_13  and  C_14 
REMARK    8  A    between atoms: C_14  and  O_16 
REMARK    9  A    between atoms: O_16  and  C_17 
REMARK   10  A    between atoms: C_26  and  C_27 
REMARK   11  A    between atoms: C_30  and  N_31 
ROOT
ATOM      1  C   UNL d   1      28.005 -16.157  -0.628  0.00  0.00     0.099 A 
ATOM      2  S   UNL d   1      27.947 -15.048  -1.965  0.00  0.00    -0.064 SA
ATOM      3  C   UNL d   1      26.416 -15.680  -2.616  0.00  0.00     0.089 A 
ATOM      4  C   UNL d   1      25.950 -16.646  -1.728  0.00  0.00    -0.015 A 
ATOM      5  C   UNL d   1      24.660 -17.388  -1.819  0.00  0.00     0.051 C 
ATOM      6  C   UNL d   1      26.854 -16.914  -0.625  0.00  0.00     0.086 A 
ATOM      7  C   UNL d   1      26.520 -17.826   0.430  0.00  0.00     0.103 C 
ATOM      8  N   UNL d   1      26.189 -18.539   1.292  0.00  0.00    -0.191 NA
ENDROOT
BRANCH   1   9
ATOM      9  N   UNL d   1      29.094 -16.173   0.294  0.00  0.00    -0.319 N 
ATOM     10  C   UNL d   1      30.427 -16.379  -0.175  0.00  0.00     0.232 C 
ATOM     11  O   UNL d   1      30.689 -16.352  -1.378  0.00  0.00    -0.272 OA
ATOM     12  H   UNL d   1      28.910 -15.951   1.267  0.00  0.00     0.169 HD
BRANCH  10  13
ATOM     13  C   UNL d   1      31.562 -16.510   0.892  0.00  0.00     0.185 C 
BRANCH  13  14
ATOM     14  S   UNL d   1      31.586 -15.193   2.162  0.00  0.00    -0.081 SA
BRANCH  14  15
ATOM     15  C   UNL d   1      30.116 -14.224   2.278  0.00  0.00     0.192 A 
ATOM     16  N   UNL d   1      29.832 -12.902   1.992  0.00  0.00    -0.304 N 
ATOM     17  C   UNL d   1      28.484 -12.704   2.304  0.00  0.00     0.164 A 
ATOM     18  N   UNL d   1      28.005 -13.838   2.772  0.00  0.00    -0.128 NA
ATOM     19  N   UNL d   1      29.008 -14.776   2.744  0.00  0.00    -0.122 NA
BRANCH  16  20
ATOM     20  C   UNL d   1      30.672 -11.840   1.476  0.00  0.00     0.159 C 
BRANCH  20  21
ATOM     21  C   UNL d   1      31.068 -12.022   0.051  0.00  0.00    -0.017 C 
ATOM     22  C   UNL d   1      30.228 -12.415  -0.916  0.00  0.00     0.008 C 
ENDBRANCH  20  21
ENDBRANCH  16  20
BRANCH  17  23
ATOM     23  C   UNL d   1      27.692 -11.467   2.139  0.00  0.00     0.012 A 
ATOM     24  C   UNL d   1      27.532 -10.885   0.871  0.00  0.00     0.018 A 
ATOM     25  C   UNL d   1      26.906  -9.636   0.720  0.00  0.00     0.037 A 
ATOM     26  C   UNL d   1      26.334  -9.008   1.832  0.00  0.00     0.102 A 
ATOM     27  C   UNL d   1      26.471  -9.577   3.102  0.00  0.00     0.037 A 
ATOM     28  C   UNL d   1      27.158 -10.792   3.249  0.00  0.00     0.018 A 
BRANCH  26  29
ATOM     29  N   UNL d   1      25.530  -7.787   1.655  0.00  0.00    -0.116 N 
ATOM     30  O   UNL d   1      25.682  -6.871   2.477  0.00  0.00    -0.532 OA
ATOM     31  O   UNL d   1      24.780  -7.729   0.670  0.00  0.00    -0.532 OA
ENDBRANCH  26  29
ENDBRANCH  17  23
ENDBRANCH  14  15
ENDBRANCH  13  14
ENDBRANCH  10  13
ENDBRANCH   1   9
BRANCH   3  32
ATOM     32  C   UNL d   1      25.789 -15.170  -3.895  0.00  0.00     0.300 C 
ATOM     33  O   UNL d   1      24.782 -14.476  -3.981  0.00  0.00    -0.259 OA
BRANCH  32  34
ATOM     34  O   UNL d   1      26.489 -15.575  -5.026  0.00  0.00    -0.317 OA
BRANCH  34  35
ATOM     35  C   UNL d   1      27.466 -14.692  -5.658  0.00  0.00     0.174 C 
ATOM     36  C   UNL d   1      27.424 -13.272  -5.065  0.00  0.00     0.034 C 
ENDBRANCH  34  35
ENDBRANCH  32  34
ENDBRANCH   3  32
TORSDOF 11
ENDMDL
