MODEL 1
REMARK VINA RESULT:   -31.448      0.000      0.000
REMARK INTER + INTRA:         -33.879
REMARK INTER:                 -32.940
REMARK INTRA:                  -0.940
REMARK CONF_INDEPENDENT:        1.492
REMARK UNBOUND:                -0.940
REMARK  5 active torsions:
REMARK  status: ('A' for Active; 'I' for Inactive)
REMARK    1  A    between atoms: N_2  and  C_4 
REMARK    2  A    between atoms: C_7  and  C_8 
REMARK    3  A    between atoms: C_8  and  N_9 
REMARK    4  A    between atoms: C_17  and  C_18 
REMARK    5  A    between atoms: C_20  and  C_21 
ROOT
ATOM      1  N   UNL d   1      27.125 -14.976  -1.396  0.00  0.00    -0.391 N 
ATOM      2  C   UNL d   1      27.348 -13.665  -0.721  0.00  0.00     0.177 C 
ATOM      3  C   UNL d   1      27.739 -13.820   0.705  0.00  0.00     0.050 A 
ATOM      4  N   UNL d   1      28.008 -12.888   1.700  0.00  0.00    -0.353 N 
ATOM      5  C   UNL d   1      28.298 -13.506   2.855  0.00  0.00     0.181 A 
ATOM      6  N   UNL d   1      28.198 -14.814   2.621  0.00  0.00    -0.354 N 
ATOM      7  C   UNL d   1      27.898 -15.038   1.304  0.00  0.00     0.036 A 
ATOM      8  C   UNL d   1      27.741 -16.353   0.714  0.00  0.00     0.092 C 
ATOM      9  C   UNL d   1      27.124 -16.324  -0.668  0.00  0.00     0.165 C 
ATOM     10  H   UNL d   1      28.009 -11.875   1.593  0.00  0.00     0.166 HD
ATOM     11  H   UNL d   1      28.335 -15.554   3.306  0.00  0.00     0.166 HD
ENDROOT
BRANCH   9  12
ATOM     12  C   UNL d   1      25.754 -17.272  -0.591  0.00  0.00     0.196 C 
ATOM     13  N   UNL d   1      24.879 -17.705   0.366  0.00  0.00    -0.200 NA
ATOM     14  C   UNL d   1      23.546 -17.958  -0.402  0.00  0.00     0.209 C 
ATOM     15  N   UNL d   1      23.919 -17.981  -1.698  0.00  0.00    -0.104 NA
ATOM     16  O   UNL d   1      25.214 -17.488  -1.817  0.00  0.00    -0.194 OA
BRANCH  14  17
ATOM     17  C   UNL d   1      21.780 -18.200   0.007  0.00  0.00     0.123 C 
ATOM     18  C   UNL d   1      20.911 -18.388  -1.234  0.00  0.00     0.151 C 
ATOM     19  N   UNL d   1      19.576 -19.325  -1.269  0.00  0.00    -0.269 NA
ATOM     20  C   UNL d   1      19.094 -20.120   0.060  0.00  0.00     0.135 C 
ATOM     21  C   UNL d   1      19.878 -20.016   1.399  0.00  0.00     0.136 C 
ATOM     22  N   UNL d   1      21.146 -18.952   1.422  0.00  0.00    -0.254 NA
ENDBRANCH  14  17
ENDBRANCH   9  12
BRANCH   1  23
ATOM     23  C   UNL d   1      26.135 -14.984  -2.462  0.00  0.00     0.156 C 
BRANCH  23  24
ATOM     24  C   UNL d   1      26.589 -14.106  -3.604  0.00  0.00    -0.041 C 
ATOM     25  C   UNL d   1      27.181 -14.706  -4.675  0.00  0.00     0.011 C 
ATOM     26  C   UNL d   1      27.466 -13.802  -5.715  0.00  0.00     0.037 C 
ATOM     27  C   UNL d   1      26.987 -12.288  -5.804  0.00  0.00     0.102 C 
ATOM     28  C   UNL d   1      26.273 -11.844  -4.766  0.00  0.00     0.037 C 
ATOM     29  C   UNL d   1      26.186 -12.703  -3.690  0.00  0.00     0.011 C 
BRANCH  27  30
ATOM     30  N   UNL d   1      26.555 -11.260  -6.914  0.00  0.00    -0.116 N 
ATOM     31  O   UNL d   1      27.152 -10.527  -7.664  0.00  0.00    -0.532 OA
ATOM     32  O   UNL d   1      25.423 -10.856  -6.881  0.00  0.00    -0.532 OA
ENDBRANCH  27  30
ENDBRANCH  23  24
ENDBRANCH   1  23
TORSDOF 5
ENDMDL
MODEL 2
REMARK VINA RESULT:   -31.310      1.814      2.186
REMARK INTER + INTRA:         -33.891
REMARK INTER:                 -32.801
REMARK INTRA:                  -1.090
REMARK CONF_INDEPENDENT:        1.492
REMARK UNBOUND:                -1.090
REMARK  5 active torsions:
REMARK  status: ('A' for Active; 'I' for Inactive)
REMARK    1  A    between atoms: N_2  and  C_4 
REMARK    2  A    between atoms: C_7  and  C_8 
REMARK    3  A    between atoms: C_8  and  N_9 
REMARK    4  A    between atoms: C_17  and  C_18 
REMARK    5  A    between atoms: C_20  and  C_21 
ROOT
ATOM      1  N   UNL d   1      27.115 -14.896  -1.054  0.00  0.00    -0.391 N 
ATOM      2  C   UNL d   1      27.311 -13.603  -0.337  0.00  0.00     0.177 C 
ATOM      3  C   UNL d   1      27.678 -13.795   1.091  0.00  0.00     0.050 A 
ATOM      4  N   UNL d   1      27.918 -12.890   2.118  0.00  0.00    -0.353 N 
ATOM      5  C   UNL d   1      28.194 -13.539   3.259  0.00  0.00     0.181 A 
ATOM      6  N   UNL d   1      28.113 -14.840   2.985  0.00  0.00    -0.354 N 
ATOM      7  C   UNL d   1      27.840 -15.028   1.656  0.00  0.00     0.036 A 
ATOM      8  C   UNL d   1      27.709 -16.327   1.025  0.00  0.00     0.092 C 
ATOM      9  C   UNL d   1      27.117 -16.264  -0.367  0.00  0.00     0.165 C 
ATOM     10  H   UNL d   1      27.908 -11.875   2.041  0.00  0.00     0.166 HD
ATOM     11  H   UNL d   1      28.247 -15.599   3.650  0.00  0.00     0.166 HD
ENDROOT
BRANCH   9  12
ATOM     12  C   UNL d   1      25.757 -17.230  -0.343  0.00  0.00     0.196 C 
ATOM     13  N   UNL d   1      24.852 -17.677   0.581  0.00  0.00    -0.200 NA
ATOM     14  C   UNL d   1      23.552 -17.943  -0.236  0.00  0.00     0.209 C 
ATOM     15  N   UNL d   1      23.972 -17.957  -1.518  0.00  0.00    -0.104 NA
ATOM     16  O   UNL d   1      25.264 -17.447  -1.588  0.00  0.00    -0.194 OA
BRANCH  14  17
ATOM     17  C   UNL d   1      21.775 -18.209   0.107  0.00  0.00     0.123 C 
ATOM     18  C   UNL d   1      20.951 -18.377  -1.167  0.00  0.00     0.151 C 
ATOM     19  N   UNL d   1      19.627 -19.324  -1.267  0.00  0.00    -0.269 NA
ATOM     20  C   UNL d   1      19.106 -20.151   0.028  0.00  0.00     0.135 C 
ATOM     21  C   UNL d   1      19.844 -20.069   1.394  0.00  0.00     0.136 C 
ATOM     22  N   UNL d   1      21.101 -18.995   1.483  0.00  0.00    -0.254 NA
ENDBRANCH  14  17
ENDBRANCH   9  12
BRANCH   1  23
ATOM     23  C   UNL d   1      26.144 -14.882  -2.138  0.00  0.00     0.156 C 
BRANCH  23  24
ATOM     24  C   UNL d   1      26.838 -15.087  -3.464  0.00  0.00    -0.041 C 
ATOM     25  C   UNL d   1      26.233 -14.603  -4.584  0.00  0.00     0.011 C 
ATOM     26  C   UNL d   1      27.020 -14.762  -5.739  0.00  0.00     0.037 C 
ATOM     27  C   UNL d   1      28.538 -15.235  -5.786  0.00  0.00     0.102 C 
ATOM     28  C   UNL d   1      29.088 -15.536  -4.607  0.00  0.00     0.037 C 
ATOM     29  C   UNL d   1      28.224 -15.551  -3.532  0.00  0.00     0.011 C 
BRANCH  27  30
ATOM     30  N   UNL d   1      29.827 -14.954  -6.644  0.00  0.00    -0.116 N 
ATOM     31  O   UNL d   1      30.886 -15.514  -6.784  0.00  0.00    -0.532 OA
ATOM     32  O   UNL d   1      29.982 -13.835  -7.055  0.00  0.00    -0.532 OA
ENDBRANCH  27  30
ENDBRANCH  23  24
ENDBRANCH   1  23
TORSDOF 5
ENDMDL
MODEL 3
REMARK VINA RESULT:   -30.921      3.562      4.771
REMARK INTER + INTRA:         -33.355
REMARK INTER:                 -32.412
REMARK INTRA:                  -0.943
REMARK CONF_INDEPENDENT:        1.492
REMARK UNBOUND:                -0.943
REMARK  5 active torsions:
REMARK  status: ('A' for Active; 'I' for Inactive)
REMARK    1  A    between atoms: N_2  and  C_4 
REMARK    2  A    between atoms: C_7  and  C_8 
REMARK    3  A    between atoms: C_8  and  N_9 
REMARK    4  A    between atoms: C_17  and  C_18 
REMARK    5  A    between atoms: C_20  and  C_21 
ROOT
ATOM      1  N   UNL d   1      27.663 -14.752  -0.405  0.00  0.00    -0.391 N 
ATOM      2  C   UNL d   1      29.082 -14.723   0.053  0.00  0.00     0.177 C 
ATOM      3  C   UNL d   1      29.904 -15.791  -0.574  0.00  0.00     0.050 A 
ATOM      4  N   UNL d   1      31.238 -16.148  -0.418  0.00  0.00    -0.353 N 
ATOM      5  C   UNL d   1      31.531 -17.210  -1.185  0.00  0.00     0.181 A 
ATOM      6  N   UNL d   1      30.405 -17.549  -1.810  0.00  0.00    -0.354 N 
ATOM      7  C   UNL d   1      29.402 -16.674  -1.489  0.00  0.00     0.036 A 
ATOM      8  C   UNL d   1      28.054 -16.746  -2.016  0.00  0.00     0.092 C 
ATOM      9  C   UNL d   1      27.071 -15.857  -1.284  0.00  0.00     0.165 C 
ATOM     10  H   UNL d   1      31.922 -15.682   0.173  0.00  0.00     0.166 HD
ATOM     11  H   UNL d   1      30.291 -18.333  -2.450  0.00  0.00     0.166 HD
ENDROOT
BRANCH   9  12
ATOM     12  C   UNL d   1      25.857 -16.856  -0.729  0.00  0.00     0.196 C 
ATOM     13  N   UNL d   1      24.893 -16.831   0.241  0.00  0.00    -0.200 NA
ATOM     14  C   UNL d   1      23.769 -17.770  -0.294  0.00  0.00     0.209 C 
ATOM     15  N   UNL d   1      24.369 -18.460  -1.285  0.00  0.00    -0.104 NA
ATOM     16  O   UNL d   1      25.581 -17.857  -1.602  0.00  0.00    -0.194 OA
BRANCH  14  17
ATOM     17  C   UNL d   1      22.010 -18.111   0.073  0.00  0.00     0.123 C 
ATOM     18  C   UNL d   1      21.178 -18.321  -1.190  0.00  0.00     0.151 C 
ATOM     19  N   UNL d   1      19.895 -19.325  -1.270  0.00  0.00    -0.269 NA
ATOM     20  C   UNL d   1      19.428 -20.169   0.035  0.00  0.00     0.135 C 
ATOM     21  C   UNL d   1      20.178 -20.048   1.391  0.00  0.00     0.136 C 
ATOM     22  N   UNL d   1      21.388 -18.920   1.460  0.00  0.00    -0.254 NA
ENDBRANCH  14  17
ENDBRANCH   9  12
BRANCH   1  23
ATOM     23  C   UNL d   1      26.673 -14.295   0.557  0.00  0.00     0.156 C 
BRANCH  23  24
ATOM     24  C   UNL d   1      26.892 -12.836   0.880  0.00  0.00    -0.041 C 
ATOM     25  C   UNL d   1      27.334 -12.020  -0.117  0.00  0.00     0.011 C 
ATOM     26  C   UNL d   1      27.401 -10.670   0.274  0.00  0.00     0.037 C 
ATOM     27  C   UNL d   1      26.834 -10.053   1.626  0.00  0.00     0.102 C 
ATOM     28  C   UNL d   1      26.274 -10.923   2.470  0.00  0.00     0.037 C 
ATOM     29  C   UNL d   1      26.407 -12.254   2.131  0.00  0.00     0.011 C 
BRANCH  27  30
ATOM     30  N   UNL d   1      26.176  -8.710   2.115  0.00  0.00    -0.116 N 
ATOM     31  O   UNL d   1      25.505  -7.858   1.588  0.00  0.00    -0.532 OA
ATOM     32  O   UNL d   1      26.609  -8.220   3.124  0.00  0.00    -0.532 OA
ENDBRANCH  27  30
ENDBRANCH  23  24
ENDBRANCH   1  23
TORSDOF 5
ENDMDL
MODEL 4
REMARK VINA RESULT:   -30.778      1.283      1.612
REMARK INTER + INTRA:         -33.336
REMARK INTER:                 -32.269
REMARK INTRA:                  -1.066
REMARK CONF_INDEPENDENT:        1.492
REMARK UNBOUND:                -1.066
REMARK  5 active torsions:
REMARK  status: ('A' for Active; 'I' for Inactive)
REMARK    1  A    between atoms: N_2  and  C_4 
REMARK    2  A    between atoms: C_7  and  C_8 
REMARK    3  A    between atoms: C_8  and  N_9 
REMARK    4  A    between atoms: C_17  and  C_18 
REMARK    5  A    between atoms: C_20  and  C_21 
ROOT
ATOM      1  N   UNL d   1      27.267 -15.945  -2.082  0.00  0.00    -0.391 N 
ATOM      2  C   UNL d   1      27.923 -14.617  -1.906  0.00  0.00     0.177 C 
ATOM      3  C   UNL d   1      28.776 -14.562  -0.689  0.00  0.00     0.050 A 
ATOM      4  N   UNL d   1      29.531 -13.538  -0.130  0.00  0.00    -0.353 N 
ATOM      5  C   UNL d   1      30.119 -13.954   1.002  0.00  0.00     0.181 A 
ATOM      6  N   UNL d   1      29.737 -15.217   1.187  0.00  0.00    -0.354 N 
ATOM      7  C   UNL d   1      28.948 -15.630   0.147  0.00  0.00     0.036 A 
ATOM      8  C   UNL d   1      28.383 -16.960   0.028  0.00  0.00     0.092 C 
ATOM      9  C   UNL d   1      27.319 -17.070  -1.043  0.00  0.00     0.165 C 
ATOM     10  H   UNL d   1      29.651 -12.602  -0.510  0.00  0.00     0.166 HD
ATOM     11  H   UNL d   1      29.996 -15.809   1.974  0.00  0.00     0.166 HD
ENDROOT
BRANCH   9  12
ATOM     12  C   UNL d   1      25.940 -17.617  -0.281  0.00  0.00     0.196 C 
ATOM     13  N   UNL d   1      24.829 -17.078   0.305  0.00  0.00    -0.200 NA
ATOM     14  C   UNL d   1      23.734 -18.178   0.165  0.00  0.00     0.209 C 
ATOM     15  N   UNL d   1      24.431 -19.290  -0.146  0.00  0.00    -0.104 NA
ATOM     16  O   UNL d   1      25.730 -18.940  -0.497  0.00  0.00    -0.194 OA
BRANCH  14  17
ATOM     17  C   UNL d   1      21.914 -18.294   0.306  0.00  0.00     0.123 C 
ATOM     18  C   UNL d   1      21.230 -18.459  -1.049  0.00  0.00     0.151 C 
ATOM     19  N   UNL d   1      19.855 -19.309  -1.270  0.00  0.00    -0.269 NA
ATOM     20  C   UNL d   1      19.126 -20.035  -0.015  0.00  0.00     0.135 C 
ATOM     21  C   UNL d   1      19.707 -19.945   1.424  0.00  0.00     0.136 C 
ATOM     22  N   UNL d   1      21.026 -18.965   1.621  0.00  0.00    -0.254 NA
ENDBRANCH  14  17
ENDBRANCH   9  12
BRANCH   1  23
ATOM     23  C   UNL d   1      25.970 -15.932  -2.740  0.00  0.00     0.156 C 
BRANCH  23  24
ATOM     24  C   UNL d   1      25.864 -14.742  -3.663  0.00  0.00    -0.041 C 
ATOM     25  C   UNL d   1      25.103 -13.686  -3.260  0.00  0.00     0.011 C 
ATOM     26  C   UNL d   1      25.164 -12.600  -4.153  0.00  0.00     0.037 C 
ATOM     27  C   UNL d   1      26.151 -12.453  -5.391  0.00  0.00     0.102 C 
ATOM     28  C   UNL d   1      26.971 -13.487  -5.604  0.00  0.00     0.037 C 
ATOM     29  C   UNL d   1      26.740 -14.602  -4.825  0.00  0.00     0.011 C 
BRANCH  27  30
ATOM     30  N   UNL d   1      26.927 -11.309  -6.142  0.00  0.00    -0.116 N 
ATOM     31  O   UNL d   1      26.601 -10.276  -6.673  0.00  0.00    -0.532 OA
ATOM     32  O   UNL d   1      28.025 -11.567  -6.557  0.00  0.00    -0.532 OA
ENDBRANCH  27  30
ENDBRANCH  23  24
ENDBRANCH   1  23
TORSDOF 5
ENDMDL
MODEL 5
REMARK VINA RESULT:   -30.659      3.195      5.269
REMARK INTER + INTRA:         -33.234
REMARK INTER:                 -32.150
REMARK INTRA:                  -1.084
REMARK CONF_INDEPENDENT:        1.492
REMARK UNBOUND:                -1.084
REMARK  5 active torsions:
REMARK  status: ('A' for Active; 'I' for Inactive)
REMARK    1  A    between atoms: N_2  and  C_4 
REMARK    2  A    between atoms: C_7  and  C_8 
REMARK    3  A    between atoms: C_8  and  N_9 
REMARK    4  A    between atoms: C_17  and  C_18 
REMARK    5  A    between atoms: C_20  and  C_21 
ROOT
ATOM      1  N   UNL d   1      28.125 -15.405  -0.242  0.00  0.00    -0.391 N 
ATOM      2  C   UNL d   1      29.559 -15.719  -0.512  0.00  0.00     0.177 C 
ATOM      3  C   UNL d   1      29.793 -16.143  -1.917  0.00  0.00     0.050 A 
ATOM      4  N   UNL d   1      30.941 -16.552  -2.584  0.00  0.00    -0.353 N 
ATOM      5  C   UNL d   1      30.657 -16.867  -3.857  0.00  0.00     0.181 A 
ATOM      6  N   UNL d   1      29.346 -16.688  -4.008  0.00  0.00    -0.354 N 
ATOM      7  C   UNL d   1      28.797 -16.206  -2.850  0.00  0.00     0.036 A 
ATOM      8  C   UNL d   1      27.393 -15.882  -2.684  0.00  0.00     0.092 C 
ATOM      9  C   UNL d   1      26.993 -15.656  -1.242  0.00  0.00     0.165 C 
ATOM     10  H   UNL d   1      31.880 -16.601  -2.194  0.00  0.00     0.166 HD
ATOM     11  H   UNL d   1      28.814 -16.864  -4.859  0.00  0.00     0.166 HD
ENDROOT
BRANCH   9  12
ATOM     12  C   UNL d   1      25.770 -16.744  -0.919  0.00  0.00     0.196 C 
ATOM     13  N   UNL d   1      24.943 -17.052   0.126  0.00  0.00    -0.200 NA
ATOM     14  C   UNL d   1      23.678 -17.672  -0.540  0.00  0.00     0.209 C 
ATOM     15  N   UNL d   1      24.080 -17.955  -1.796  0.00  0.00    -0.104 NA
ATOM     16  O   UNL d   1      25.293 -17.325  -2.048  0.00  0.00    -0.194 OA
BRANCH  14  17
ATOM     17  C   UNL d   1      21.955 -18.058  -0.062  0.00  0.00     0.123 C 
ATOM     18  C   UNL d   1      21.049 -18.288  -1.269  0.00  0.00     0.151 C 
ATOM     19  N   UNL d   1      19.790 -19.325  -1.269  0.00  0.00    -0.269 NA
ATOM     20  C   UNL d   1      19.429 -20.181   0.061  0.00  0.00     0.135 C 
ATOM     21  C   UNL d   1      20.261 -20.042   1.367  0.00  0.00     0.136 C 
ATOM     22  N   UNL d   1      21.444 -18.884   1.360  0.00  0.00    -0.254 NA
ENDBRANCH  14  17
ENDBRANCH   9  12
BRANCH   1  23
ATOM     23  C   UNL d   1      27.661 -15.658   1.113  0.00  0.00     0.156 C 
BRANCH  23  24
ATOM     24  C   UNL d   1      27.430 -14.353   1.838  0.00  0.00    -0.041 C 
ATOM     25  C   UNL d   1      28.327 -13.986   2.795  0.00  0.00     0.011 C 
ATOM     26  C   UNL d   1      28.064 -12.710   3.326  0.00  0.00     0.037 C 
ATOM     27  C   UNL d   1      27.003 -11.662   2.774  0.00  0.00     0.102 C 
ATOM     28  C   UNL d   1      26.280 -12.066   1.725  0.00  0.00     0.037 C 
ATOM     29  C   UNL d   1      26.437 -13.388   1.367  0.00  0.00     0.011 C 
BRANCH  27  30
ATOM     30  N   UNL d   1      26.858 -10.100   2.641  0.00  0.00    -0.116 N 
ATOM     31  O   UNL d   1      26.317  -9.244   3.297  0.00  0.00    -0.532 OA
ATOM     32  O   UNL d   1      27.056  -9.618   1.558  0.00  0.00    -0.532 OA
ENDBRANCH  27  30
ENDBRANCH  23  24
ENDBRANCH   1  23
TORSDOF 5
ENDMDL
MODEL 6
REMARK VINA RESULT:   -29.865      3.473      6.080
REMARK INTER + INTRA:         -32.243
REMARK INTER:                 -31.356
REMARK INTRA:                  -0.887
REMARK CONF_INDEPENDENT:        1.492
REMARK UNBOUND:                -0.887
REMARK  5 active torsions:
REMARK  status: ('A' for Active; 'I' for Inactive)
REMARK    1  A    between atoms: N_2  and  C_4 
REMARK    2  A    between atoms: C_7  and  C_8 
REMARK    3  A    between atoms: C_8  and  N_9 
REMARK    4  A    between atoms: C_17  and  C_18 
REMARK    5  A    between atoms: C_20  and  C_21 
ROOT
ATOM      1  N   UNL d   1      27.529 -14.736  -0.319  0.00  0.00    -0.391 N 
ATOM      2  C   UNL d   1      28.911 -14.717   0.242  0.00  0.00     0.177 C 
ATOM      3  C   UNL d   1      29.799 -15.721  -0.401  0.00  0.00     0.050 A 
ATOM      4  N   UNL d   1      31.126 -16.066  -0.175  0.00  0.00    -0.353 N 
ATOM      5  C   UNL d   1      31.496 -17.062  -0.995  0.00  0.00     0.181 A 
ATOM      6  N   UNL d   1      30.425 -17.373  -1.723  0.00  0.00    -0.354 N 
ATOM      7  C   UNL d   1      29.383 -16.542  -1.412  0.00  0.00     0.036 A 
ATOM      8  C   UNL d   1      28.077 -16.598  -2.039  0.00  0.00     0.092 C 
ATOM      9  C   UNL d   1      27.025 -15.783  -1.318  0.00  0.00     0.165 C 
ATOM     10  H   UNL d   1      31.755 -15.633   0.497  0.00  0.00     0.166 HD
ATOM     11  H   UNL d   1      30.375 -18.109  -2.425  0.00  0.00     0.166 HD
ENDROOT
BRANCH   9  12
ATOM     12  C   UNL d   1      25.798 -16.841  -0.927  0.00  0.00     0.196 C 
ATOM     13  N   UNL d   1      24.943 -17.054   0.120  0.00  0.00    -0.200 NA
ATOM     14  C   UNL d   1      23.699 -17.741  -0.519  0.00  0.00     0.209 C 
ATOM     15  N   UNL d   1      24.135 -18.139  -1.731  0.00  0.00    -0.104 NA
ATOM     16  O   UNL d   1      25.354 -17.529  -2.009  0.00  0.00    -0.194 OA
BRANCH  14  17
ATOM     17  C   UNL d   1      21.964 -18.090  -0.054  0.00  0.00     0.123 C 
ATOM     18  C   UNL d   1      21.065 -18.313  -1.267  0.00  0.00     0.151 C 
ATOM     19  N   UNL d   1      19.786 -19.325  -1.269  0.00  0.00    -0.269 NA
ATOM     20  C   UNL d   1      19.396 -20.162   0.065  0.00  0.00     0.135 C 
ATOM     21  C   UNL d   1      20.220 -20.028   1.377  0.00  0.00     0.136 C 
ATOM     22  N   UNL d   1      21.424 -18.893   1.371  0.00  0.00    -0.254 NA
ENDBRANCH  14  17
ENDBRANCH   9  12
BRANCH   1  23
ATOM     23  C   UNL d   1      26.463 -14.369   0.600  0.00  0.00     0.156 C 
BRANCH  23  24
ATOM     24  C   UNL d   1      27.030 -13.639   1.794  0.00  0.00    -0.041 C 
ATOM     25  C   UNL d   1      26.742 -12.314   1.929  0.00  0.00     0.011 C 
ATOM     26  C   UNL d   1      27.238 -11.769   3.128  0.00  0.00     0.037 C 
ATOM     27  C   UNL d   1      27.873 -12.581   4.339  0.00  0.00     0.102 C 
ATOM     28  C   UNL d   1      27.964 -13.904   4.166  0.00  0.00     0.037 C 
ATOM     29  C   UNL d   1      27.646 -14.363   2.905  0.00  0.00     0.011 C 
BRANCH  27  30
ATOM     30  N   UNL d   1      27.930 -12.490   5.908  0.00  0.00    -0.116 N 
ATOM     31  O   UNL d   1      27.876 -11.585   6.704  0.00  0.00    -0.532 OA
ATOM     32  O   UNL d   1      28.398 -13.427   6.499  0.00  0.00    -0.532 OA
ENDBRANCH  27  30
ENDBRANCH  23  24
ENDBRANCH   1  23
TORSDOF 5
ENDMDL
MODEL 7
REMARK VINA RESULT:   -29.149      3.717      5.967
REMARK INTER + INTRA:         -31.692
REMARK INTER:                 -30.640
REMARK INTRA:                  -1.051
REMARK CONF_INDEPENDENT:        1.492
REMARK UNBOUND:                -1.051
REMARK  5 active torsions:
REMARK  status: ('A' for Active; 'I' for Inactive)
REMARK    1  A    between atoms: N_2  and  C_4 
REMARK    2  A    between atoms: C_7  and  C_8 
REMARK    3  A    between atoms: C_8  and  N_9 
REMARK    4  A    between atoms: C_17  and  C_18 
REMARK    5  A    between atoms: C_20  and  C_21 
ROOT
ATOM      1  N   UNL d   1      28.270 -16.011  -1.670  0.00  0.00    -0.391 N 
ATOM      2  C   UNL d   1      29.023 -15.986  -2.957  0.00  0.00     0.177 C 
ATOM      3  C   UNL d   1      28.246 -15.358  -4.058  0.00  0.00     0.050 A 
ATOM      4  N   UNL d   1      28.537 -15.156  -5.401  0.00  0.00    -0.353 N 
ATOM      5  C   UNL d   1      27.505 -14.563  -6.021  0.00  0.00     0.181 A 
ATOM      6  N   UNL d   1      26.553 -14.403  -5.102  0.00  0.00    -0.354 N 
ATOM      7  C   UNL d   1      26.993 -14.842  -3.882  0.00  0.00     0.036 A 
ATOM      8  C   UNL d   1      26.209 -14.790  -2.664  0.00  0.00     0.092 C 
ATOM      9  C   UNL d   1      26.801 -15.600  -1.530  0.00  0.00     0.165 C 
ATOM     10  H   UNL d   1      29.406 -15.398  -5.873  0.00  0.00     0.166 HD
ATOM     11  H   UNL d   1      25.631 -14.002  -5.263  0.00  0.00     0.166 HD
ENDROOT
BRANCH   9  12
ATOM     12  C   UNL d   1      25.629 -16.696  -1.074  0.00  0.00     0.196 C 
ATOM     13  N   UNL d   1      24.803 -16.904  -0.004  0.00  0.00    -0.200 NA
ATOM     14  C   UNL d   1      23.580 -17.670  -0.592  0.00  0.00     0.209 C 
ATOM     15  N   UNL d   1      24.014 -18.098  -1.795  0.00  0.00    -0.104 NA
ATOM     16  O   UNL d   1      25.199 -17.446  -2.119  0.00  0.00    -0.194 OA
BRANCH  14  17
ATOM     17  C   UNL d   1      21.871 -18.076  -0.081  0.00  0.00     0.123 C 
ATOM     18  C   UNL d   1      20.937 -18.282  -1.270  0.00  0.00     0.151 C 
ATOM     19  N   UNL d   1      19.682 -19.324  -1.264  0.00  0.00    -0.269 NA
ATOM     20  C   UNL d   1      19.358 -20.214   0.053  0.00  0.00     0.135 C 
ATOM     21  C   UNL d   1      20.222 -20.103   1.341  0.00  0.00     0.136 C 
ATOM     22  N   UNL d   1      21.400 -18.940   1.333  0.00  0.00    -0.254 NA
ENDBRANCH  14  17
ENDBRANCH   9  12
BRANCH   1  23
ATOM     23  C   UNL d   1      28.564 -17.124  -0.781  0.00  0.00     0.156 C 
BRANCH  23  24
ATOM     24  C   UNL d   1      30.057 -17.304  -0.644  0.00  0.00    -0.041 C 
ATOM     25  C   UNL d   1      30.635 -18.361  -1.280  0.00  0.00     0.011 C 
ATOM     26  C   UNL d   1      32.038 -18.364  -1.164  0.00  0.00     0.037 C 
ATOM     27  C   UNL d   1      32.936 -17.193  -0.573  0.00  0.00     0.102 C 
ATOM     28  C   UNL d   1      32.272 -16.126  -0.118  0.00  0.00     0.037 C 
ATOM     29  C   UNL d   1      30.899 -16.252  -0.074  0.00  0.00     0.011 C 
BRANCH  27  30
ATOM     30  N   UNL d   1      34.356 -16.564  -0.824  0.00  0.00    -0.116 N 
ATOM     31  O   UNL d   1      35.425 -17.004  -1.171  0.00  0.00    -0.532 OA
ATOM     32  O   UNL d   1      34.580 -15.491  -0.330  0.00  0.00    -0.532 OA
ENDBRANCH  27  30
ENDBRANCH  23  24
ENDBRANCH   1  23
TORSDOF 5
ENDMDL
MODEL 8
REMARK VINA RESULT:   -28.805      1.694      2.294
REMARK INTER + INTRA:         -31.350
REMARK INTER:                 -30.296
REMARK INTRA:                  -1.054
REMARK CONF_INDEPENDENT:        1.492
REMARK UNBOUND:                -1.054
REMARK  5 active torsions:
REMARK  status: ('A' for Active; 'I' for Inactive)
REMARK    1  A    between atoms: N_2  and  C_4 
REMARK    2  A    between atoms: C_7  and  C_8 
REMARK    3  A    between atoms: C_8  and  N_9 
REMARK    4  A    between atoms: C_17  and  C_18 
REMARK    5  A    between atoms: C_20  and  C_21 
ROOT
ATOM      1  N   UNL d   1      26.675 -14.941  -2.097  0.00  0.00    -0.391 N 
ATOM      2  C   UNL d   1      27.275 -13.787  -1.366  0.00  0.00     0.177 C 
ATOM      3  C   UNL d   1      27.574 -14.108   0.054  0.00  0.00     0.050 A 
ATOM      4  N   UNL d   1      28.095 -13.341   1.089  0.00  0.00    -0.353 N 
ATOM      5  C   UNL d   1      28.162 -14.062   2.219  0.00  0.00     0.181 A 
ATOM      6  N   UNL d   1      27.672 -15.267   1.930  0.00  0.00    -0.354 N 
ATOM      7  C   UNL d   1      27.342 -15.338   0.603  0.00  0.00     0.036 A 
ATOM      8  C   UNL d   1      26.803 -16.519  -0.043  0.00  0.00     0.092 C 
ATOM      9  C   UNL d   1      26.250 -16.250  -1.426  0.00  0.00     0.165 C 
ATOM     10  H   UNL d   1      28.406 -12.375   1.026  0.00  0.00     0.166 HD
ATOM     11  H   UNL d   1      27.564 -16.040   2.584  0.00  0.00     0.166 HD
ENDROOT
BRANCH   9  12
ATOM     12  C   UNL d   1      24.655 -16.737  -1.397  0.00  0.00     0.196 C 
ATOM     13  N   UNL d   1      23.914 -17.796  -1.845  0.00  0.00    -0.200 NA
ATOM     14  C   UNL d   1      22.695 -17.865  -0.877  0.00  0.00     0.209 C 
ATOM     15  N   UNL d   1      22.711 -16.670  -0.251  0.00  0.00    -0.104 NA
ATOM     16  O   UNL d   1      23.924 -16.035  -0.496  0.00  0.00    -0.194 OA
BRANCH  14  17
ATOM     17  C   UNL d   1      21.390 -19.068  -0.435  0.00  0.00     0.123 C 
ATOM     18  C   UNL d   1      21.304 -19.315   1.069  0.00  0.00     0.151 C 
ATOM     19  N   UNL d   1      19.914 -19.656   1.850  0.00  0.00    -0.269 NA
ATOM     20  C   UNL d   1      18.515 -19.757   1.035  0.00  0.00     0.135 C 
ATOM     21  C   UNL d   1      18.454 -19.537  -0.503  0.00  0.00     0.136 C 
ATOM     22  N   UNL d   1      19.905 -19.325  -1.270  0.00  0.00    -0.254 NA
ENDBRANCH  14  17
ENDBRANCH   9  12
BRANCH   1  23
ATOM     23  C   UNL d   1      25.750 -14.605  -3.168  0.00  0.00     0.156 C 
BRANCH  23  24
ATOM     24  C   UNL d   1      26.507 -14.103  -4.374  0.00  0.00    -0.041 C 
ATOM     25  C   UNL d   1      26.665 -12.757  -4.515  0.00  0.00     0.011 C 
ATOM     26  C   UNL d   1      27.472 -12.417  -5.617  0.00  0.00     0.037 C 
ATOM     27  C   UNL d   1      28.320 -13.424  -6.509  0.00  0.00     0.102 C 
ATOM     28  C   UNL d   1      28.216 -14.716  -6.183  0.00  0.00     0.037 C 
ATOM     29  C   UNL d   1      27.268 -15.015  -5.227  0.00  0.00     0.011 C 
BRANCH  27  30
ATOM     30  N   UNL d   1      29.685 -13.432  -7.291  0.00  0.00    -0.116 N 
ATOM     31  O   UNL d   1      30.832 -13.650  -6.985  0.00  0.00    -0.532 OA
ATOM     32  O   UNL d   1      29.724 -12.846  -8.340  0.00  0.00    -0.532 OA
ENDBRANCH  27  30
ENDBRANCH  23  24
ENDBRANCH   1  23
TORSDOF 5
ENDMDL
