MODEL 1
REMARK VINA RESULT:    -8.918      0.000      0.000
REMARK INTER + INTRA:         -15.835
REMARK INTER:                 -13.094
REMARK INTRA:                  -2.741
REMARK CONF_INDEPENDENT:        4.176
REMARK UNBOUND:                -2.741
REMARK  14 active torsions:
REMARK  status: ('A' for Active; 'I' for Inactive)
REMARK    1  A    between atoms: C_2  and  C_3 
REMARK    2  A    between atoms: C_3  and  C_4 
REMARK    3  A    between atoms: C_4  and  C_5 
REMARK    4  A    between atoms: C_5  and  C_6 
REMARK    5  A    between atoms: C_6  and  O_7 
REMARK    6  A    between atoms: O_7  and  C_8 
REMARK    7  A    between atoms: C_11  and  C_12 
REMARK       I    between atoms: C_12  and  N_14 
REMARK    8  A    between atoms: N_14  and  C_15 
REMARK    9  A    between atoms: C_15  and  N_17 
REMARK   10  A    between atoms: C_23  and  C_24 
REMARK   11  A    between atoms: C_24  and  C_25 
REMARK   12  A    between atoms: C_25  and  O_27 
REMARK   13  A    between atoms: C_28  and  O_27 
REMARK   14  A    between atoms: C_28  and  C_30 
ROOT
ATOM      1  C   UNL d   1      27.200 -12.651  -2.319  0.00  0.00     0.177 C 
ATOM      2  S   UNL d   1      28.653 -12.257  -1.559  0.00  0.00    -0.041 SA
ENDROOT
BRANCH   1   3
ATOM      3  N   UNL d   1      26.417 -13.789  -2.018  0.00  0.00    -0.299 N 
ATOM      4  C   UNL d   1      26.629 -14.725  -0.976  0.00  0.00     0.257 C 
ATOM      5  O   UNL d   1      27.527 -14.625  -0.141  0.00  0.00    -0.267 OA
ATOM      6  H   UNL d   1      25.683 -13.994  -2.674  0.00  0.00     0.171 HD
BRANCH   4   7
ATOM      7  C   UNL d   1      25.785 -15.970  -0.858  0.00  0.00     0.032 A 
ATOM      8  C   UNL d   1      24.482 -15.934  -1.410  0.00  0.00     0.020 A 
ATOM      9  C   UNL d   1      23.581 -16.996  -1.249  0.00  0.00     0.038 A 
ATOM     10  C   UNL d   1      23.982 -18.152  -0.588  0.00  0.00     0.068 A 
ATOM     11  C   UNL d   1      25.282 -18.220  -0.080  0.00  0.00     0.038 A 
ATOM     12  C   UNL d   1      26.178 -17.138  -0.207  0.00  0.00     0.020 A 
BRANCH  10  13
ATOM     13  O   UNL d   1      23.084 -19.186  -0.581  0.00  0.00    -0.351 OA
BRANCH  13  14
ATOM     14  C   UNL d   1      21.822 -18.907   0.028  0.00  0.00     0.175 C 
BRANCH  14  15
ATOM     15  C   UNL d   1      20.710 -19.236  -0.966  0.00  0.00     0.027 C 
BRANCH  15  16
ATOM     16  C   UNL d   1      19.585 -20.007  -0.281  0.00  0.00     0.002 C 
BRANCH  16  17
ATOM     17  C   UNL d   1      19.622 -19.806   1.229  0.00  0.00    -0.000 C 
BRANCH  17  18
ATOM     18  C   UNL d   1      18.469 -20.543   1.905  0.00  0.00    -0.005 C 
ATOM     19  C   UNL d   1      17.873 -21.579   0.969  0.00  0.00     0.005 C 
ENDBRANCH  17  18
ENDBRANCH  16  17
ENDBRANCH  15  16
ENDBRANCH  14  15
ENDBRANCH  13  14
ENDBRANCH  10  13
ENDBRANCH   4   7
ENDBRANCH   1   3
BRANCH   1  20
ATOM     20  N   UNL d   1      26.706 -11.866  -3.396  0.00  0.00    -0.343 N 
ATOM     21  C   UNL d   1      25.603 -10.893  -3.166  0.00  0.00     0.146 C 
ATOM     22  C   UNL d   1      25.862  -9.686  -4.051  0.00  0.00     0.142 C 
ATOM     23  N   UNL d   1      25.912 -10.069  -5.447  0.00  0.00    -0.358 N 
ATOM     24  C   UNL d   1      26.469 -11.248  -5.873  0.00  0.00     0.241 C 
ATOM     25  H   UNL d   1      25.761  -9.373  -6.169  0.00  0.00     0.162 HD
ATOM     26  O   UNL d   1      26.592 -11.456  -7.081  0.00  0.00    -0.271 OA
ATOM     27  C   UNL d   1      26.731 -12.355  -4.816  0.00  0.00     0.188 C 
BRANCH  27  28
ATOM     28  C   UNL d   1      25.608 -13.383  -5.020  0.00  0.00     0.146 C 
BRANCH  28  29
ATOM     29  C   UNL d   1      26.073 -14.792  -4.874  0.00  0.00     0.261 C 
ATOM     30  O   UNL d   1      25.521 -15.578  -4.101  0.00  0.00    -0.265 OA
BRANCH  29  31
ATOM     31  O   UNL d   1      27.096 -15.200  -5.659  0.00  0.00    -0.316 OA
BRANCH  31  32
ATOM     32  C   UNL d   1      28.508 -14.856  -5.554  0.00  0.00     0.127 C 
ATOM     33  C   UNL d   1      29.222 -14.768  -6.898  0.00  0.00     0.040 C 
BRANCH  32  34
ATOM     34  C   UNL d   1      29.194 -15.994  -4.778  0.00  0.00     0.027 C 
ATOM     35  C   UNL d   1      28.921 -15.958  -3.286  0.00  0.00     0.007 C 
ENDBRANCH  32  34
ENDBRANCH  31  32
ENDBRANCH  29  31
ENDBRANCH  28  29
ENDBRANCH  27  28
ENDBRANCH   1  20
TORSDOF 14
ENDMDL
MODEL 2
REMARK VINA RESULT:    -8.218      2.140      3.387
REMARK INTER + INTRA:         -15.011
REMARK INTER:                 -12.395
REMARK INTRA:                  -2.617
REMARK CONF_INDEPENDENT:        4.176
REMARK UNBOUND:                -2.617
REMARK  14 active torsions:
REMARK  status: ('A' for Active; 'I' for Inactive)
REMARK    1  A    between atoms: C_2  and  C_3 
REMARK    2  A    between atoms: C_3  and  C_4 
REMARK    3  A    between atoms: C_4  and  C_5 
REMARK    4  A    between atoms: C_5  and  C_6 
REMARK    5  A    between atoms: C_6  and  O_7 
REMARK    6  A    between atoms: O_7  and  C_8 
REMARK    7  A    between atoms: C_11  and  C_12 
REMARK       I    between atoms: C_12  and  N_14 
REMARK    8  A    between atoms: N_14  and  C_15 
REMARK    9  A    between atoms: C_15  and  N_17 
REMARK   10  A    between atoms: C_23  and  C_24 
REMARK   11  A    between atoms: C_24  and  C_25 
REMARK   12  A    between atoms: C_25  and  O_27 
REMARK   13  A    between atoms: C_28  and  O_27 
REMARK   14  A    between atoms: C_28  and  C_30 
ROOT
ATOM      1  C   UNL d   1      29.586 -16.098  -4.322  0.00  0.00     0.177 C 
ATOM      2  S   UNL d   1      30.826 -17.241  -4.316  0.00  0.00    -0.041 SA
ENDROOT
BRANCH   1   3
ATOM      3  N   UNL d   1      28.366 -16.229  -3.619  0.00  0.00    -0.299 N 
ATOM      4  C   UNL d   1      28.193 -16.373  -2.221  0.00  0.00     0.257 C 
ATOM      5  O   UNL d   1      29.120 -16.347  -1.412  0.00  0.00    -0.267 OA
ATOM      6  H   UNL d   1      27.544 -16.315  -4.193  0.00  0.00     0.171 HD
BRANCH   4   7
ATOM      7  C   UNL d   1      26.834 -16.639  -1.624  0.00  0.00     0.032 A 
ATOM      8  C   UNL d   1      26.784 -17.321  -0.385  0.00  0.00     0.020 A 
ATOM      9  C   UNL d   1      25.569 -17.716   0.194  0.00  0.00     0.038 A 
ATOM     10  C   UNL d   1      24.367 -17.383  -0.420  0.00  0.00     0.068 A 
ATOM     11  C   UNL d   1      24.401 -16.668  -1.620  0.00  0.00     0.038 A 
ATOM     12  C   UNL d   1      25.621 -16.302  -2.224  0.00  0.00     0.020 A 
BRANCH  10  13
ATOM     13  O   UNL d   1      23.228 -17.700   0.270  0.00  0.00    -0.351 OA
BRANCH  13  14
ATOM     14  C   UNL d   1      22.626 -18.950  -0.068  0.00  0.00     0.175 C 
BRANCH  14  15
ATOM     15  C   UNL d   1      21.701 -18.745  -1.267  0.00  0.00     0.027 C 
BRANCH  15  16
ATOM     16  C   UNL d   1      20.258 -19.074  -0.897  0.00  0.00     0.002 C 
BRANCH  16  17
ATOM     17  C   UNL d   1      20.199 -20.109   0.220  0.00  0.00    -0.000 C 
BRANCH  17  18
ATOM     18  C   UNL d   1      18.824 -20.119   0.881  0.00  0.00    -0.005 C 
ATOM     19  C   UNL d   1      18.301 -21.539   1.011  0.00  0.00     0.005 C 
ENDBRANCH  17  18
ENDBRANCH  16  17
ENDBRANCH  15  16
ENDBRANCH  14  15
ENDBRANCH  13  14
ENDBRANCH  10  13
ENDBRANCH   4   7
ENDBRANCH   1   3
BRANCH   1  20
ATOM     20  N   UNL d   1      29.678 -14.930  -5.128  0.00  0.00    -0.343 N 
ATOM     21  C   UNL d   1      30.492 -13.771  -4.671  0.00  0.00     0.146 C 
ATOM     22  C   UNL d   1      31.136 -13.149  -5.898  0.00  0.00     0.142 C 
ATOM     23  N   UNL d   1      30.132 -12.716  -6.847  0.00  0.00    -0.358 N 
ATOM     24  C   UNL d   1      28.975 -13.418  -7.075  0.00  0.00     0.241 C 
ATOM     25  H   UNL d   1      30.362 -12.019  -7.547  0.00  0.00     0.162 HD
ATOM     26  O   UNL d   1      28.222 -13.063  -7.983  0.00  0.00    -0.271 OA
ATOM     27  C   UNL d   1      28.566 -14.505  -6.045  0.00  0.00     0.188 C 
BRANCH  27  28
ATOM     28  C   UNL d   1      27.437 -13.872  -5.216  0.00  0.00     0.146 C 
BRANCH  28  29
ATOM     29  C   UNL d   1      26.238 -14.752  -5.097  0.00  0.00     0.261 C 
ATOM     30  O   UNL d   1      26.237 -15.905  -5.534  0.00  0.00    -0.265 OA
BRANCH  29  31
ATOM     31  O   UNL d   1      25.161 -14.260  -4.445  0.00  0.00    -0.316 OA
BRANCH  31  32
ATOM     32  C   UNL d   1      25.084 -13.084  -3.587  0.00  0.00     0.127 C 
ATOM     33  C   UNL d   1      25.532 -11.795  -4.268  0.00  0.00     0.040 C 
BRANCH  32  34
ATOM     34  C   UNL d   1      26.060 -13.313  -2.419  0.00  0.00     0.027 C 
ATOM     35  C   UNL d   1      27.048 -12.179  -2.227  0.00  0.00     0.007 C 
ENDBRANCH  32  34
ENDBRANCH  31  32
ENDBRANCH  29  31
ENDBRANCH  28  29
ENDBRANCH  27  28
ENDBRANCH   1  20
TORSDOF 14
ENDMDL
MODEL 3
REMARK VINA RESULT:    -8.078      5.863      8.526
REMARK INTER + INTRA:         -14.005
REMARK INTER:                 -12.255
REMARK INTRA:                  -1.750
REMARK CONF_INDEPENDENT:        4.176
REMARK UNBOUND:                -1.750
REMARK  14 active torsions:
REMARK  status: ('A' for Active; 'I' for Inactive)
REMARK    1  A    between atoms: C_2  and  C_3 
REMARK    2  A    between atoms: C_3  and  C_4 
REMARK    3  A    between atoms: C_4  and  C_5 
REMARK    4  A    between atoms: C_5  and  C_6 
REMARK    5  A    between atoms: C_6  and  O_7 
REMARK    6  A    between atoms: O_7  and  C_8 
REMARK    7  A    between atoms: C_11  and  C_12 
REMARK       I    between atoms: C_12  and  N_14 
REMARK    8  A    between atoms: N_14  and  C_15 
REMARK    9  A    between atoms: C_15  and  N_17 
REMARK   10  A    between atoms: C_23  and  C_24 
REMARK   11  A    between atoms: C_24  and  C_25 
REMARK   12  A    between atoms: C_25  and  O_27 
REMARK   13  A    between atoms: C_28  and  O_27 
REMARK   14  A    between atoms: C_28  and  C_30 
ROOT
ATOM      1  C   UNL d   1      27.805 -15.408   0.149  0.00  0.00     0.177 C 
ATOM      2  S   UNL d   1      28.726 -14.850  -1.150  0.00  0.00    -0.041 SA
ENDROOT
BRANCH   1   3
ATOM      3  N   UNL d   1      28.027 -15.057   1.501  0.00  0.00    -0.299 N 
ATOM      4  C   UNL d   1      27.412 -14.009   2.227  0.00  0.00     0.257 C 
ATOM      5  O   UNL d   1      26.535 -13.279   1.764  0.00  0.00    -0.267 OA
ATOM      6  H   UNL d   1      28.766 -15.560   1.962  0.00  0.00     0.171 HD
BRANCH   4   7
ATOM      7  C   UNL d   1      27.848 -13.668   3.630  0.00  0.00     0.032 A 
ATOM      8  C   UNL d   1      28.325 -14.723   4.444  0.00  0.00     0.020 A 
ATOM      9  C   UNL d   1      28.642 -14.531   5.796  0.00  0.00     0.038 A 
ATOM     10  C   UNL d   1      28.554 -13.260   6.355  0.00  0.00     0.068 A 
ATOM     11  C   UNL d   1      28.130 -12.200   5.551  0.00  0.00     0.038 A 
ATOM     12  C   UNL d   1      27.773 -12.398   4.201  0.00  0.00     0.020 A 
BRANCH  10  13
ATOM     13  O   UNL d   1      28.997 -13.136   7.645  0.00  0.00    -0.351 OA
BRANCH  13  14
ATOM     14  C   UNL d   1      30.414 -13.188   7.821  0.00  0.00     0.175 C 
BRANCH  14  15
ATOM     15  C   UNL d   1      30.768 -14.449   8.607  0.00  0.00     0.027 C 
BRANCH  15  16
ATOM     16  C   UNL d   1      30.146 -14.409  10.000  0.00  0.00     0.002 C 
BRANCH  16  17
ATOM     17  C   UNL d   1      28.731 -14.975   9.985  0.00  0.00    -0.000 C 
BRANCH  17  18
ATOM     18  C   UNL d   1      27.791 -14.114  10.824  0.00  0.00    -0.005 C 
ATOM     19  C   UNL d   1      28.028 -12.639  10.550  0.00  0.00     0.005 C 
ENDBRANCH  17  18
ENDBRANCH  16  17
ENDBRANCH  15  16
ENDBRANCH  14  15
ENDBRANCH  13  14
ENDBRANCH  10  13
ENDBRANCH   4   7
ENDBRANCH   1   3
BRANCH   1  20
ATOM     20  N   UNL d   1      26.765 -16.354  -0.050  0.00  0.00    -0.343 N 
ATOM     21  C   UNL d   1      27.067 -17.811  -0.032  0.00  0.00     0.146 C 
ATOM     22  C   UNL d   1      25.885 -18.519   0.607  0.00  0.00     0.142 C 
ATOM     23  N   UNL d   1      24.667 -18.268  -0.135  0.00  0.00    -0.358 N 
ATOM     24  C   UNL d   1      24.390 -17.057  -0.716  0.00  0.00     0.241 C 
ATOM     25  H   UNL d   1      23.877 -18.896  -0.039  0.00  0.00     0.162 HD
ATOM     26  O   UNL d   1      23.284 -16.870  -1.226  0.00  0.00    -0.271 OA
ATOM     27  C   UNL d   1      25.556 -16.046  -0.889  0.00  0.00     0.188 C 
BRANCH  27  28
ATOM     28  C   UNL d   1      25.937 -16.117  -2.376  0.00  0.00     0.146 C 
BRANCH  28  29
ATOM     29  C   UNL d   1      25.156 -15.171  -3.224  0.00  0.00     0.261 C 
ATOM     30  O   UNL d   1      24.226 -14.506  -2.761  0.00  0.00    -0.265 OA
BRANCH  29  31
ATOM     31  O   UNL d   1      25.534 -15.025  -4.513  0.00  0.00    -0.316 OA
BRANCH  31  32
ATOM     32  C   UNL d   1      26.667 -14.276  -5.043  0.00  0.00     0.127 C 
ATOM     33  C   UNL d   1      27.950 -15.092  -5.144  0.00  0.00     0.040 C 
BRANCH  32  34
ATOM     34  C   UNL d   1      26.960 -13.138  -4.049  0.00  0.00     0.027 C 
ATOM     35  C   UNL d   1      26.146 -11.885  -4.309  0.00  0.00     0.007 C 
ENDBRANCH  32  34
ENDBRANCH  31  32
ENDBRANCH  29  31
ENDBRANCH  28  29
ENDBRANCH  27  28
ENDBRANCH   1  20
TORSDOF 14
ENDMDL
MODEL 4
REMARK VINA RESULT:    -8.056      2.134      3.743
REMARK INTER + INTRA:         -13.969
REMARK INTER:                 -12.233
REMARK INTRA:                  -1.737
REMARK CONF_INDEPENDENT:        4.176
REMARK UNBOUND:                -1.737
REMARK  14 active torsions:
REMARK  status: ('A' for Active; 'I' for Inactive)
REMARK    1  A    between atoms: C_2  and  C_3 
REMARK    2  A    between atoms: C_3  and  C_4 
REMARK    3  A    between atoms: C_4  and  C_5 
REMARK    4  A    between atoms: C_5  and  C_6 
REMARK    5  A    between atoms: C_6  and  O_7 
REMARK    6  A    between atoms: O_7  and  C_8 
REMARK    7  A    between atoms: C_11  and  C_12 
REMARK       I    between atoms: C_12  and  N_14 
REMARK    8  A    between atoms: N_14  and  C_15 
REMARK    9  A    between atoms: C_15  and  N_17 
REMARK   10  A    between atoms: C_23  and  C_24 
REMARK   11  A    between atoms: C_24  and  C_25 
REMARK   12  A    between atoms: C_25  and  O_27 
REMARK   13  A    between atoms: C_28  and  O_27 
REMARK   14  A    between atoms: C_28  and  C_30 
ROOT
ATOM      1  C   UNL d   1      28.155 -16.355  -1.490  0.00  0.00     0.177 C 
ATOM      2  S   UNL d   1      29.250 -16.335  -0.208  0.00  0.00    -0.041 SA
ENDROOT
BRANCH   1   3
ATOM      3  N   UNL d   1      26.835 -16.856  -1.414  0.00  0.00    -0.299 N 
ATOM      4  C   UNL d   1      25.640 -16.109  -1.274  0.00  0.00     0.257 C 
ATOM      5  O   UNL d   1      25.602 -14.879  -1.255  0.00  0.00    -0.267 OA
ATOM      6  H   UNL d   1      26.756 -17.858  -1.368  0.00  0.00     0.171 HD
BRANCH   4   7
ATOM      7  C   UNL d   1      24.310 -16.791  -1.070  0.00  0.00     0.032 A 
ATOM      8  C   UNL d   1      24.303 -18.203  -0.984  0.00  0.00     0.020 A 
ATOM      9  C   UNL d   1      23.108 -18.935  -0.912  0.00  0.00     0.038 A 
ATOM     10  C   UNL d   1      21.889 -18.268  -0.859  0.00  0.00     0.068 A 
ATOM     11  C   UNL d   1      21.884 -16.872  -0.896  0.00  0.00     0.038 A 
ATOM     12  C   UNL d   1      23.082 -16.135  -1.006  0.00  0.00     0.020 A 
BRANCH  10  13
ATOM     13  O   UNL d   1      20.781 -19.050  -0.668  0.00  0.00    -0.351 OA
BRANCH  13  14
ATOM     14  C   UNL d   1      20.861 -19.986   0.408  0.00  0.00     0.175 C 
BRANCH  14  15
ATOM     15  C   UNL d   1      20.325 -19.326   1.678  0.00  0.00     0.027 C 
BRANCH  15  16
ATOM     16  C   UNL d   1      18.812 -19.500   1.777  0.00  0.00     0.002 C 
BRANCH  16  17
ATOM     17  C   UNL d   1      18.444 -20.949   2.077  0.00  0.00    -0.000 C 
BRANCH  17  18
ATOM     18  C   UNL d   1      17.653 -21.559   0.923  0.00  0.00    -0.005 C 
ATOM     19  C   UNL d   1      17.945 -20.825  -0.374  0.00  0.00     0.005 C 
ENDBRANCH  17  18
ENDBRANCH  16  17
ENDBRANCH  15  16
ENDBRANCH  14  15
ENDBRANCH  13  14
ENDBRANCH  10  13
ENDBRANCH   4   7
ENDBRANCH   1   3
BRANCH   1  20
ATOM     20  N   UNL d   1      28.544 -15.918  -2.785  0.00  0.00    -0.343 N 
ATOM     21  C   UNL d   1      29.849 -15.231  -2.980  0.00  0.00     0.146 C 
ATOM     22  C   UNL d   1      30.399 -15.661  -4.329  0.00  0.00     0.142 C 
ATOM     23  N   UNL d   1      29.484 -15.314  -5.397  0.00  0.00    -0.358 N 
ATOM     24  C   UNL d   1      28.121 -15.391  -5.259  0.00  0.00     0.241 C 
ATOM     25  H   UNL d   1      29.821 -15.241  -6.350  0.00  0.00     0.162 HD
ATOM     26  O   UNL d   1      27.403 -15.202  -6.242  0.00  0.00    -0.271 OA
ATOM     27  C   UNL d   1      27.537 -15.510  -3.825  0.00  0.00     0.188 C 
BRANCH  27  28
ATOM     28  C   UNL d   1      26.998 -14.111  -3.489  0.00  0.00     0.146 C 
BRANCH  28  29
ATOM     29  C   UNL d   1      25.714 -13.800  -4.181  0.00  0.00     0.261 C 
ATOM     30  O   UNL d   1      24.669 -14.391  -3.899  0.00  0.00    -0.265 OA
BRANCH  29  31
ATOM     31  O   UNL d   1      25.720 -12.807  -5.099  0.00  0.00    -0.316 OA
BRANCH  31  32
ATOM     32  C   UNL d   1      26.862 -12.072  -5.627  0.00  0.00     0.127 C 
ATOM     33  C   UNL d   1      27.589 -11.233  -4.582  0.00  0.00     0.040 C 
BRANCH  32  34
ATOM     34  C   UNL d   1      26.317 -11.080  -6.670  0.00  0.00     0.027 C 
ATOM     35  C   UNL d   1      25.449  -9.990  -6.071  0.00  0.00     0.007 C 
ENDBRANCH  32  34
ENDBRANCH  31  32
ENDBRANCH  29  31
ENDBRANCH  28  29
ENDBRANCH  27  28
ENDBRANCH   1  20
TORSDOF 14
ENDMDL
MODEL 5
REMARK VINA RESULT:    -7.907      2.491      4.489
REMARK INTER + INTRA:         -14.153
REMARK INTER:                 -12.083
REMARK INTRA:                  -2.069
REMARK CONF_INDEPENDENT:        4.176
REMARK UNBOUND:                -2.069
REMARK  14 active torsions:
REMARK  status: ('A' for Active; 'I' for Inactive)
REMARK    1  A    between atoms: C_2  and  C_3 
REMARK    2  A    between atoms: C_3  and  C_4 
REMARK    3  A    between atoms: C_4  and  C_5 
REMARK    4  A    between atoms: C_5  and  C_6 
REMARK    5  A    between atoms: C_6  and  O_7 
REMARK    6  A    between atoms: O_7  and  C_8 
REMARK    7  A    between atoms: C_11  and  C_12 
REMARK       I    between atoms: C_12  and  N_14 
REMARK    8  A    between atoms: N_14  and  C_15 
REMARK    9  A    between atoms: C_15  and  N_17 
REMARK   10  A    between atoms: C_23  and  C_24 
REMARK   11  A    between atoms: C_24  and  C_25 
REMARK   12  A    between atoms: C_25  and  O_27 
REMARK   13  A    between atoms: C_28  and  O_27 
REMARK   14  A    between atoms: C_28  and  C_30 
ROOT
ATOM      1  C   UNL d   1      28.954 -15.999  -0.858  0.00  0.00     0.177 C 
ATOM      2  S   UNL d   1      29.742 -15.002   0.252  0.00  0.00    -0.041 SA
ENDROOT
BRANCH   1   3
ATOM      3  N   UNL d   1      27.562 -16.250  -0.867  0.00  0.00    -0.299 N 
ATOM      4  C   UNL d   1      26.870 -17.267  -0.166  0.00  0.00     0.257 C 
ATOM      5  O   UNL d   1      27.413 -18.052   0.611  0.00  0.00    -0.267 OA
ATOM      6  H   UNL d   1      27.029 -15.695  -1.514  0.00  0.00     0.171 HD
BRANCH   4   7
ATOM      7  C   UNL d   1      25.395 -17.498  -0.379  0.00  0.00     0.032 A 
ATOM      8  C   UNL d   1      24.612 -16.399  -0.806  0.00  0.00     0.020 A 
ATOM      9  C   UNL d   1      23.217 -16.482  -0.919  0.00  0.00     0.038 A 
ATOM     10  C   UNL d   1      22.572 -17.689  -0.671  0.00  0.00     0.068 A 
ATOM     11  C   UNL d   1      23.338 -18.795  -0.294  0.00  0.00     0.038 A 
ATOM     12  C   UNL d   1      24.737 -18.704  -0.142  0.00  0.00     0.020 A 
BRANCH  10  13
ATOM     13  O   UNL d   1      21.226 -17.717  -0.921  0.00  0.00    -0.351 OA
BRANCH  13  14
ATOM     14  C   UNL d   1      20.679 -19.001  -1.225  0.00  0.00     0.175 C 
BRANCH  14  15
ATOM     15  C   UNL d   1      19.216 -19.031  -0.787  0.00  0.00     0.027 C 
BRANCH  15  16
ATOM     16  C   UNL d   1      18.869 -20.376  -0.155  0.00  0.00     0.002 C 
BRANCH  16  17
ATOM     17  C   UNL d   1      19.911 -20.780   0.882  0.00  0.00    -0.000 C 
BRANCH  17  18
ATOM     18  C   UNL d   1      19.967 -19.765   2.021  0.00  0.00    -0.005 C 
ATOM     19  C   UNL d   1      19.787 -20.453   3.362  0.00  0.00     0.005 C 
ENDBRANCH  17  18
ENDBRANCH  16  17
ENDBRANCH  15  16
ENDBRANCH  14  15
ENDBRANCH  13  14
ENDBRANCH  10  13
ENDBRANCH   4   7
ENDBRANCH   1   3
BRANCH   1  20
ATOM     20  N   UNL d   1      29.690 -16.725  -1.833  0.00  0.00    -0.343 N 
ATOM     21  C   UNL d   1      31.160 -16.898  -1.682  0.00  0.00     0.146 C 
ATOM     22  C   UNL d   1      31.516 -18.280  -2.203  0.00  0.00     0.142 C 
ATOM     23  N   UNL d   1      31.133 -18.425  -3.592  0.00  0.00    -0.358 N 
ATOM     24  C   UNL d   1      29.986 -17.874  -4.106  0.00  0.00     0.241 C 
ATOM     25  H   UNL d   1      31.567 -19.138  -4.166  0.00  0.00     0.162 HD
ATOM     26  O   UNL d   1      29.655 -18.138  -5.263  0.00  0.00    -0.271 OA
ATOM     27  C   UNL d   1      29.266 -16.778  -3.274  0.00  0.00     0.188 C 
BRANCH  27  28
ATOM     28  C   UNL d   1      29.624 -15.450  -3.959  0.00  0.00     0.146 C 
BRANCH  28  29
ATOM     29  C   UNL d   1      28.795 -15.175  -5.168  0.00  0.00     0.261 C 
ATOM     30  O   UNL d   1      29.308 -14.899  -6.254  0.00  0.00    -0.265 OA
BRANCH  29  31
ATOM     31  O   UNL d   1      27.453 -15.290  -5.048  0.00  0.00    -0.316 OA
BRANCH  31  32
ATOM     32  C   UNL d   1      26.615 -14.939  -3.908  0.00  0.00     0.127 C 
ATOM     33  C   UNL d   1      25.193 -14.543  -4.289  0.00  0.00     0.040 C 
BRANCH  32  34
ATOM     34  C   UNL d   1      27.245 -13.697  -3.251  0.00  0.00     0.027 C 
ATOM     35  C   UNL d   1      26.434 -12.431  -3.453  0.00  0.00     0.007 C 
ENDBRANCH  32  34
ENDBRANCH  31  32
ENDBRANCH  29  31
ENDBRANCH  28  29
ENDBRANCH  27  28
ENDBRANCH   1  20
TORSDOF 14
ENDMDL
MODEL 6
REMARK VINA RESULT:    -7.834      2.263      3.561
REMARK INTER + INTRA:         -14.837
REMARK INTER:                 -12.010
REMARK INTRA:                  -2.826
REMARK CONF_INDEPENDENT:        4.176
REMARK UNBOUND:                -2.826
REMARK  14 active torsions:
REMARK  status: ('A' for Active; 'I' for Inactive)
REMARK    1  A    between atoms: C_2  and  C_3 
REMARK    2  A    between atoms: C_3  and  C_4 
REMARK    3  A    between atoms: C_4  and  C_5 
REMARK    4  A    between atoms: C_5  and  C_6 
REMARK    5  A    between atoms: C_6  and  O_7 
REMARK    6  A    between atoms: O_7  and  C_8 
REMARK    7  A    between atoms: C_11  and  C_12 
REMARK       I    between atoms: C_12  and  N_14 
REMARK    8  A    between atoms: N_14  and  C_15 
REMARK    9  A    between atoms: C_15  and  N_17 
REMARK   10  A    between atoms: C_23  and  C_24 
REMARK   11  A    between atoms: C_24  and  C_25 
REMARK   12  A    between atoms: C_25  and  O_27 
REMARK   13  A    between atoms: C_28  and  O_27 
REMARK   14  A    between atoms: C_28  and  C_30 
ROOT
ATOM      1  C   UNL d   1      29.599 -15.328  -2.239  0.00  0.00     0.177 C 
ATOM      2  S   UNL d   1      31.007 -15.285  -1.311  0.00  0.00    -0.041 SA
ENDROOT
BRANCH   1   3
ATOM      3  N   UNL d   1      28.330 -15.726  -1.758  0.00  0.00    -0.299 N 
ATOM      4  C   UNL d   1      27.993 -16.956  -1.142  0.00  0.00     0.257 C 
ATOM      5  O   UNL d   1      28.812 -17.842  -0.894  0.00  0.00    -0.267 OA
ATOM      6  H   UNL d   1      27.574 -15.093  -1.958  0.00  0.00     0.171 HD
BRANCH   4   7
ATOM      7  C   UNL d   1      26.564 -17.295  -0.800  0.00  0.00     0.032 A 
ATOM      8  C   UNL d   1      25.551 -16.817  -1.665  0.00  0.00     0.020 A 
ATOM      9  C   UNL d   1      24.189 -16.979  -1.372  0.00  0.00     0.038 A 
ATOM     10  C   UNL d   1      23.804 -17.682  -0.236  0.00  0.00     0.068 A 
ATOM     11  C   UNL d   1      24.794 -18.201   0.602  0.00  0.00     0.038 A 
ATOM     12  C   UNL d   1      26.164 -18.007   0.329  0.00  0.00     0.020 A 
BRANCH  10  13
ATOM     13  O   UNL d   1      22.460 -17.899  -0.088  0.00  0.00    -0.351 OA
BRANCH  13  14
ATOM     14  C   UNL d   1      21.999 -19.202  -0.446  0.00  0.00     0.175 C 
BRANCH  14  15
ATOM     15  C   UNL d   1      20.667 -19.071  -1.183  0.00  0.00     0.027 C 
BRANCH  15  16
ATOM     16  C   UNL d   1      19.502 -19.395  -0.252  0.00  0.00     0.002 C 
BRANCH  16  17
ATOM     17  C   UNL d   1      19.556 -20.846   0.210  0.00  0.00    -0.000 C 
BRANCH  17  18
ATOM     18  C   UNL d   1      18.432 -21.144   1.199  0.00  0.00    -0.005 C 
ATOM     19  C   UNL d   1      18.369 -20.076   2.277  0.00  0.00     0.005 C 
ENDBRANCH  17  18
ENDBRANCH  16  17
ENDBRANCH  15  16
ENDBRANCH  14  15
ENDBRANCH  13  14
ENDBRANCH  10  13
ENDBRANCH   4   7
ENDBRANCH   1   3
BRANCH   1  20
ATOM     20  N   UNL d   1      29.633 -15.024  -3.626  0.00  0.00    -0.343 N 
ATOM     21  C   UNL d   1      30.642 -14.067  -4.156  0.00  0.00     0.146 C 
ATOM     22  C   UNL d   1      31.063 -14.556  -5.531  0.00  0.00     0.142 C 
ATOM     23  N   UNL d   1      29.927 -14.635  -6.425  0.00  0.00    -0.358 N 
ATOM     24  C   UNL d   1      28.682 -15.035  -6.008  0.00  0.00     0.241 C 
ATOM     25  H   UNL d   1      30.070 -14.635  -7.428  0.00  0.00     0.162 HD
ATOM     26  O   UNL d   1      27.790 -15.200  -6.841  0.00  0.00    -0.271 OA
ATOM     27  C   UNL d   1      28.397 -15.063  -4.482  0.00  0.00     0.188 C 
BRANCH  27  28
ATOM     28  C   UNL d   1      27.547 -13.814  -4.205  0.00  0.00     0.146 C 
BRANCH  28  29
ATOM     29  C   UNL d   1      26.235 -14.130  -3.572  0.00  0.00     0.261 C 
ATOM     30  O   UNL d   1      25.232 -14.368  -4.248  0.00  0.00    -0.265 OA
BRANCH  29  31
ATOM     31  O   UNL d   1      26.190 -14.198  -2.222  0.00  0.00    -0.316 OA
BRANCH  31  32
ATOM     32  C   UNL d   1      26.493 -13.152  -1.254  0.00  0.00     0.127 C 
ATOM     33  C   UNL d   1      27.814 -12.436  -1.516  0.00  0.00     0.040 C 
BRANCH  32  34
ATOM     34  C   UNL d   1      26.639 -13.834   0.117  0.00  0.00     0.027 C 
ATOM     35  C   UNL d   1      26.313 -12.921   1.284  0.00  0.00     0.007 C 
ENDBRANCH  32  34
ENDBRANCH  31  32
ENDBRANCH  29  31
ENDBRANCH  28  29
ENDBRANCH  27  28
ENDBRANCH   1  20
TORSDOF 14
ENDMDL
MODEL 7
REMARK VINA RESULT:    -7.739      1.575      3.079
REMARK INTER + INTRA:         -14.622
REMARK INTER:                 -11.915
REMARK INTRA:                  -2.707
REMARK CONF_INDEPENDENT:        4.176
REMARK UNBOUND:                -2.707
REMARK  14 active torsions:
REMARK  status: ('A' for Active; 'I' for Inactive)
REMARK    1  A    between atoms: C_2  and  C_3 
REMARK    2  A    between atoms: C_3  and  C_4 
REMARK    3  A    between atoms: C_4  and  C_5 
REMARK    4  A    between atoms: C_5  and  C_6 
REMARK    5  A    between atoms: C_6  and  O_7 
REMARK    6  A    between atoms: O_7  and  C_8 
REMARK    7  A    between atoms: C_11  and  C_12 
REMARK       I    between atoms: C_12  and  N_14 
REMARK    8  A    between atoms: N_14  and  C_15 
REMARK    9  A    between atoms: C_15  and  N_17 
REMARK   10  A    between atoms: C_23  and  C_24 
REMARK   11  A    between atoms: C_24  and  C_25 
REMARK   12  A    between atoms: C_25  and  O_27 
REMARK   13  A    between atoms: C_28  and  O_27 
REMARK   14  A    between atoms: C_28  and  C_30 
ROOT
ATOM      1  C   UNL d   1      27.826 -13.347  -2.078  0.00  0.00     0.177 C 
ATOM      2  S   UNL d   1      28.269 -12.071  -1.067  0.00  0.00    -0.041 SA
ENDROOT
BRANCH   1   3
ATOM      3  N   UNL d   1      26.896 -14.357  -1.740  0.00  0.00    -0.299 N 
ATOM      4  C   UNL d   1      27.164 -15.589  -1.094  0.00  0.00     0.257 C 
ATOM      5  O   UNL d   1      28.278 -15.917  -0.686  0.00  0.00    -0.267 OA
ATOM      6  H   UNL d   1      25.960 -14.212  -2.077  0.00  0.00     0.171 HD
BRANCH   4   7
ATOM      7  C   UNL d   1      26.088 -16.630  -0.918  0.00  0.00     0.032 A 
ATOM      8  C   UNL d   1      25.143 -16.781  -1.960  0.00  0.00     0.020 A 
ATOM      9  C   UNL d   1      24.039 -17.637  -1.841  0.00  0.00     0.038 A 
ATOM     10  C   UNL d   1      23.887 -18.418  -0.700  0.00  0.00     0.068 A 
ATOM     11  C   UNL d   1      24.839 -18.314   0.317  0.00  0.00     0.038 A 
ATOM     12  C   UNL d   1      25.929 -17.426   0.216  0.00  0.00     0.020 A 
BRANCH  10  13
ATOM     13  O   UNL d   1      22.852 -19.314  -0.715  0.00  0.00    -0.351 OA
BRANCH  13  14
ATOM     14  C   UNL d   1      21.704 -18.949   0.053  0.00  0.00     0.175 C 
BRANCH  14  15
ATOM     15  C   UNL d   1      20.570 -18.575  -0.900  0.00  0.00     0.027 C 
BRANCH  15  16
ATOM     16  C   UNL d   1      19.481 -19.644  -0.888  0.00  0.00     0.002 C 
BRANCH  16  17
ATOM     17  C   UNL d   1      19.554 -20.488   0.379  0.00  0.00    -0.000 C 
BRANCH  17  18
ATOM     18  C   UNL d   1      19.151 -19.669   1.602  0.00  0.00    -0.005 C 
ATOM     19  C   UNL d   1      19.438 -20.438   2.880  0.00  0.00     0.005 C 
ENDBRANCH  17  18
ENDBRANCH  16  17
ENDBRANCH  15  16
ENDBRANCH  14  15
ENDBRANCH  13  14
ENDBRANCH  10  13
ENDBRANCH   4   7
ENDBRANCH   1   3
BRANCH   1  20
ATOM     20  N   UNL d   1      28.446 -13.519  -3.345  0.00  0.00    -0.343 N 
ATOM     21  C   UNL d   1      29.244 -12.414  -3.942  0.00  0.00     0.146 C 
ATOM     22  C   UNL d   1      30.413 -13.039  -4.685  0.00  0.00     0.142 C 
ATOM     23  N   UNL d   1      29.948 -13.939  -5.719  0.00  0.00    -0.358 N 
ATOM     24  C   UNL d   1      28.846 -14.742  -5.564  0.00  0.00     0.241 C 
ATOM     25  H   UNL d   1      30.559 -14.185  -6.490  0.00  0.00     0.162 HD
ATOM     26  O   UNL d   1      28.577 -15.573  -6.432  0.00  0.00    -0.271 OA
ATOM     27  C   UNL d   1      27.870 -14.424  -4.398  0.00  0.00     0.188 C 
BRANCH  27  28
ATOM     28  C   UNL d   1      26.665 -13.735  -5.057  0.00  0.00     0.146 C 
BRANCH  28  29
ATOM     29  C   UNL d   1      25.529 -13.522  -4.114  0.00  0.00     0.261 C 
ATOM     30  O   UNL d   1      24.669 -14.387  -3.933  0.00  0.00    -0.265 OA
BRANCH  29  31
ATOM     31  O   UNL d   1      25.498 -12.363  -3.419  0.00  0.00    -0.316 OA
BRANCH  31  32
ATOM     32  C   UNL d   1      25.532 -11.000  -3.935  0.00  0.00     0.127 C 
ATOM     33  C   UNL d   1      25.909 -10.910  -5.410  0.00  0.00     0.040 C 
BRANCH  32  34
ATOM     34  C   UNL d   1      26.635 -10.253  -3.164  0.00  0.00     0.027 C 
ATOM     35  C   UNL d   1      27.610  -9.519  -4.065  0.00  0.00     0.007 C 
ENDBRANCH  32  34
ENDBRANCH  31  32
ENDBRANCH  29  31
ENDBRANCH  28  29
ENDBRANCH  27  28
ENDBRANCH   1  20
TORSDOF 14
ENDMDL
MODEL 8
REMARK VINA RESULT:    -7.588      2.414      4.354
REMARK INTER + INTRA:         -14.615
REMARK INTER:                 -11.764
REMARK INTRA:                  -2.851
REMARK CONF_INDEPENDENT:        4.176
REMARK UNBOUND:                -2.851
REMARK  14 active torsions:
REMARK  status: ('A' for Active; 'I' for Inactive)
REMARK    1  A    between atoms: C_2  and  C_3 
REMARK    2  A    between atoms: C_3  and  C_4 
REMARK    3  A    between atoms: C_4  and  C_5 
REMARK    4  A    between atoms: C_5  and  C_6 
REMARK    5  A    between atoms: C_6  and  O_7 
REMARK    6  A    between atoms: O_7  and  C_8 
REMARK    7  A    between atoms: C_11  and  C_12 
REMARK       I    between atoms: C_12  and  N_14 
REMARK    8  A    between atoms: N_14  and  C_15 
REMARK    9  A    between atoms: C_15  and  N_17 
REMARK   10  A    between atoms: C_23  and  C_24 
REMARK   11  A    between atoms: C_24  and  C_25 
REMARK   12  A    between atoms: C_25  and  O_27 
REMARK   13  A    between atoms: C_28  and  O_27 
REMARK   14  A    between atoms: C_28  and  C_30 
ROOT
ATOM      1  C   UNL d   1      30.347 -14.724  -2.530  0.00  0.00     0.177 C 
ATOM      2  S   UNL d   1      31.233 -13.412  -1.946  0.00  0.00    -0.041 SA
ENDROOT
BRANCH   1   3
ATOM      3  N   UNL d   1      29.131 -15.186  -1.973  0.00  0.00    -0.299 N 
ATOM      4  C   UNL d   1      28.822 -16.506  -1.565  0.00  0.00     0.257 C 
ATOM      5  O   UNL d   1      29.626 -17.437  -1.599  0.00  0.00    -0.267 OA
ATOM      6  H   UNL d   1      28.384 -14.513  -1.949  0.00  0.00     0.171 HD
BRANCH   4   7
ATOM      7  C   UNL d   1      27.433 -16.880  -1.111  0.00  0.00     0.032 A 
ATOM      8  C   UNL d   1      27.317 -17.701   0.036  0.00  0.00     0.020 A 
ATOM      9  C   UNL d   1      26.079 -18.198   0.469  0.00  0.00     0.038 A 
ATOM     10  C   UNL d   1      24.914 -17.833  -0.197  0.00  0.00     0.068 A 
ATOM     11  C   UNL d   1      25.010 -16.984  -1.303  0.00  0.00     0.038 A 
ATOM     12  C   UNL d   1      26.257 -16.513  -1.763  0.00  0.00     0.020 A 
BRANCH  10  13
ATOM     13  O   UNL d   1      23.740 -18.262   0.361  0.00  0.00    -0.351 OA
BRANCH  13  14
ATOM     14  C   UNL d   1      22.550 -17.688  -0.182  0.00  0.00     0.175 C 
BRANCH  14  15
ATOM     15  C   UNL d   1      21.756 -18.780  -0.897  0.00  0.00     0.027 C 
BRANCH  15  16
ATOM     16  C   UNL d   1      20.869 -19.535   0.088  0.00  0.00     0.002 C 
BRANCH  16  17
ATOM     17  C   UNL d   1      19.448 -19.672  -0.446  0.00  0.00    -0.000 C 
BRANCH  17  18
ATOM     18  C   UNL d   1      18.705 -20.800   0.265  0.00  0.00    -0.005 C 
ATOM     19  C   UNL d   1      18.563 -20.498   1.747  0.00  0.00     0.005 C 
ENDBRANCH  17  18
ENDBRANCH  16  17
ENDBRANCH  15  16
ENDBRANCH  14  15
ENDBRANCH  13  14
ENDBRANCH  10  13
ENDBRANCH   4   7
ENDBRANCH   1   3
BRANCH   1  20
ATOM     20  N   UNL d   1      30.834 -15.508  -3.610  0.00  0.00    -0.343 N 
ATOM     21  C   UNL d   1      32.072 -15.101  -4.329  0.00  0.00     0.146 C 
ATOM     22  C   UNL d   1      32.818 -16.366  -4.715  0.00  0.00     0.142 C 
ATOM     23  N   UNL d   1      32.001 -17.213  -5.559  0.00  0.00    -0.358 N 
ATOM     24  C   UNL d   1      30.648 -17.352  -5.382  0.00  0.00     0.241 C 
ATOM     25  H   UNL d   1      32.437 -17.914  -6.147  0.00  0.00     0.162 HD
ATOM     26  O   UNL d   1      30.032 -18.181  -6.054  0.00  0.00    -0.271 OA
ATOM     27  C   UNL d   1      29.917 -16.313  -4.488  0.00  0.00     0.188 C 
BRANCH  27  28
ATOM     28  C   UNL d   1      29.195 -15.374  -5.466  0.00  0.00     0.146 C 
BRANCH  28  29
ATOM     29  C   UNL d   1      27.775 -15.120  -5.089  0.00  0.00     0.261 C 
ATOM     30  O   UNL d   1      26.839 -15.572  -5.753  0.00  0.00    -0.265 OA
BRANCH  29  31
ATOM     31  O   UNL d   1      27.542 -14.416  -3.958  0.00  0.00    -0.316 OA
BRANCH  31  32
ATOM     32  C   UNL d   1      27.089 -13.036  -3.831  0.00  0.00     0.127 C 
ATOM     33  C   UNL d   1      27.115 -12.510  -2.401  0.00  0.00     0.040 C 
BRANCH  32  34
ATOM     34  C   UNL d   1      25.616 -13.002  -4.274  0.00  0.00     0.027 C 
ATOM     35  C   UNL d   1      24.764 -14.073  -3.621  0.00  0.00     0.007 C 
ENDBRANCH  32  34
ENDBRANCH  31  32
ENDBRANCH  29  31
ENDBRANCH  28  29
ENDBRANCH  27  28
ENDBRANCH   1  20
TORSDOF 14
ENDMDL
MODEL 9
REMARK VINA RESULT:    -7.576      2.099      3.611
REMARK INTER + INTRA:         -14.069
REMARK INTER:                 -11.752
REMARK INTRA:                  -2.318
REMARK CONF_INDEPENDENT:        4.176
REMARK UNBOUND:                -2.318
REMARK  14 active torsions:
REMARK  status: ('A' for Active; 'I' for Inactive)
REMARK    1  A    between atoms: C_2  and  C_3 
REMARK    2  A    between atoms: C_3  and  C_4 
REMARK    3  A    between atoms: C_4  and  C_5 
REMARK    4  A    between atoms: C_5  and  C_6 
REMARK    5  A    between atoms: C_6  and  O_7 
REMARK    6  A    between atoms: O_7  and  C_8 
REMARK    7  A    between atoms: C_11  and  C_12 
REMARK       I    between atoms: C_12  and  N_14 
REMARK    8  A    between atoms: N_14  and  C_15 
REMARK    9  A    between atoms: C_15  and  N_17 
REMARK   10  A    between atoms: C_23  and  C_24 
REMARK   11  A    between atoms: C_24  and  C_25 
REMARK   12  A    between atoms: C_25  and  O_27 
REMARK   13  A    between atoms: C_28  and  O_27 
REMARK   14  A    between atoms: C_28  and  C_30 
ROOT
ATOM      1  C   UNL d   1      29.755 -15.915  -3.112  0.00  0.00     0.177 C 
ATOM      2  S   UNL d   1      31.201 -15.850  -2.246  0.00  0.00    -0.041 SA
ENDROOT
BRANCH   1   3
ATOM      3  N   UNL d   1      28.561 -16.509  -2.642  0.00  0.00    -0.299 N 
ATOM      4  C   UNL d   1      27.642 -15.968  -1.711  0.00  0.00     0.257 C 
ATOM      5  O   UNL d   1      27.751 -14.844  -1.220  0.00  0.00    -0.267 OA
ATOM      6  H   UNL d   1      28.403 -17.456  -2.943  0.00  0.00     0.171 HD
BRANCH   4   7
ATOM      7  C   UNL d   1      26.477 -16.777  -1.201  0.00  0.00     0.032 A 
ATOM      8  C   UNL d   1      25.266 -16.718  -1.932  0.00  0.00     0.020 A 
ATOM      9  C   UNL d   1      24.094 -17.339  -1.477  0.00  0.00     0.038 A 
ATOM     10  C   UNL d   1      24.118 -18.092  -0.308  0.00  0.00     0.068 A 
ATOM     11  C   UNL d   1      25.318 -18.198   0.399  0.00  0.00     0.038 A 
ATOM     12  C   UNL d   1      26.489 -17.543  -0.036  0.00  0.00     0.020 A 
BRANCH  10  13
ATOM     13  O   UNL d   1      22.965 -18.764   0.001  0.00  0.00    -0.351 OA
BRANCH  13  14
ATOM     14  C   UNL d   1      21.761 -18.199  -0.520  0.00  0.00     0.175 C 
BRANCH  14  15
ATOM     15  C   UNL d   1      20.883 -19.325  -1.064  0.00  0.00     0.027 C 
BRANCH  15  16
ATOM     16  C   UNL d   1      19.594 -19.442  -0.256  0.00  0.00     0.002 C 
BRANCH  16  17
ATOM     17  C   UNL d   1      19.891 -19.703   1.216  0.00  0.00    -0.000 C 
BRANCH  17  18
ATOM     18  C   UNL d   1      18.771 -20.513   1.862  0.00  0.00    -0.005 C 
ATOM     19  C   UNL d   1      18.039 -21.341   0.820  0.00  0.00     0.005 C 
ENDBRANCH  17  18
ENDBRANCH  16  17
ENDBRANCH  15  16
ENDBRANCH  14  15
ENDBRANCH  13  14
ENDBRANCH  10  13
ENDBRANCH   4   7
ENDBRANCH   1   3
BRANCH   1  20
ATOM     20  N   UNL d   1      29.682 -15.421  -4.443  0.00  0.00    -0.343 N 
ATOM     21  C   UNL d   1      30.876 -15.482  -5.328  0.00  0.00     0.146 C 
ATOM     22  C   UNL d   1      30.390 -15.764  -6.739  0.00  0.00     0.142 C 
ATOM     23  N   UNL d   1      29.481 -14.731  -7.191  0.00  0.00    -0.358 N 
ATOM     24  C   UNL d   1      28.572 -14.128  -6.359  0.00  0.00     0.241 C 
ATOM     25  H   UNL d   1      29.319 -14.596  -8.182  0.00  0.00     0.162 HD
ATOM     26  O   UNL d   1      27.745 -13.347  -6.832  0.00  0.00    -0.271 OA
ATOM     27  C   UNL d   1      28.759 -14.298  -4.827  0.00  0.00     0.188 C 
BRANCH  27  28
ATOM     28  C   UNL d   1      29.349 -12.965  -4.340  0.00  0.00     0.146 C 
BRANCH  28  29
ATOM     29  C   UNL d   1      28.882 -12.586  -2.975  0.00  0.00     0.261 C 
ATOM     30  O   UNL d   1      29.650 -12.572  -2.010  0.00  0.00    -0.265 OA
BRANCH  29  31
ATOM     31  O   UNL d   1      27.593 -12.205  -2.836  0.00  0.00    -0.316 OA
BRANCH  31  32
ATOM     32  C   UNL d   1      26.526 -12.248  -3.829  0.00  0.00     0.127 C 
ATOM     33  C   UNL d   1      25.674 -10.985  -3.871  0.00  0.00     0.040 C 
BRANCH  32  34
ATOM     34  C   UNL d   1      25.579 -13.391  -3.424  0.00  0.00     0.027 C 
ATOM     35  C   UNL d   1      25.422 -14.453  -4.496  0.00  0.00     0.007 C 
ENDBRANCH  32  34
ENDBRANCH  31  32
ENDBRANCH  29  31
ENDBRANCH  28  29
ENDBRANCH  27  28
ENDBRANCH   1  20
TORSDOF 14
ENDMDL
