MODEL 1
REMARK VINA RESULT:    -8.380      0.000      0.000
REMARK INTER + INTRA:         -13.079
REMARK INTER:                 -10.766
REMARK INTRA:                  -2.313
REMARK CONF_INDEPENDENT:        2.386
REMARK UNBOUND:                -2.313
REMARK  8 active torsions:
REMARK  status: ('A' for Active; 'I' for Inactive)
REMARK    1  A    between atoms: CA_4  and  CB_2 
REMARK    2  A    between atoms: CA_4  and  C_31 
REMARK    3  A    between atoms: CA_4  and  N_5 
REMARK       I    between atoms: N_5  and  C_6 
REMARK    4  A    between atoms: C_6  and  C_8 
REMARK    5  A    between atoms: C_8  and  C_9 
REMARK    6  A    between atoms: C_8  and  N_19 
REMARK    7  A    between atoms: C_9  and  C_10 
REMARK    8  A    between atoms: C_29  and  O_30 
ROOT
ATOM      1  C   UNK d   0      28.282 -12.956   1.665  0.00  0.00     0.187 C 
ENDROOT
BRANCH   1   2
ATOM      2  C   UNK d   0      28.179 -11.496   1.083  0.00  0.00     0.241 C 
ATOM      3  N   VAL d   1      27.119 -10.735   1.505  0.00  0.00    -0.344 N 
ATOM      4  H   VAL d   1      26.715 -10.992   2.394  0.00  0.00     0.163 HD
ATOM      5  O   UNK d   0      28.996 -11.009   0.307  0.00  0.00    -0.271 OA
BRANCH   3   6
ATOM      6  CA  VAL d   1      26.973  -9.298   1.073  0.00  0.00     0.189 C 
BRANCH   6   7
ATOM      7  C   VAL d   1      25.897  -8.488   1.817  0.00  0.00     0.197 C 
ATOM      8  O   VAL d   1      25.623  -7.361   1.306  0.00  0.00    -0.646 OA
ATOM      9  OXT VAL d   1      25.508  -8.995   2.912  0.00  0.00    -0.646 OA
ENDBRANCH   6   7
BRANCH   6  10
ATOM     10  CB  VAL d   1      26.655  -9.084  -0.446  0.00  0.00     0.010 C 
ATOM     11  CG1 VAL d   1      27.030 -10.060  -1.542  0.00  0.00     0.012 C 
ATOM     12  CG2 VAL d   1      27.492  -7.974  -0.953  0.00  0.00     0.012 C 
ENDBRANCH   6  10
ENDBRANCH   3   6
ENDBRANCH   1   2
BRANCH   1  13
ATOM     13  C   UNK d   0      27.264 -13.293   2.804  0.00  0.00     0.076 C 
BRANCH  13  14
ATOM     14  C   UNK d   0      27.774 -13.857   4.114  0.00  0.00    -0.028 C 
ATOM     15  C   UNK d   0      28.145 -15.160   4.396  0.00  0.00     0.096 C 
ATOM     16  N   UNK d   0      28.719 -15.181   5.648  0.00  0.00    -0.365 N 
ATOM     17  C   UNK d   0      28.538 -13.965   6.285  0.00  0.00     0.042 A 
ATOM     18  H   UNK d   0      29.266 -15.950   6.014  0.00  0.00     0.165 HD
ATOM     19  C   UNK d   0      29.074 -13.481   7.510  0.00  0.00     0.030 A 
ATOM     20  C   UNK d   0      27.956 -13.106   5.336  0.00  0.00    -0.002 A 
ATOM     21  C   UNK d   0      29.070 -12.077   7.735  0.00  0.00     0.002 A 
ATOM     22  C   UNK d   0      28.510 -11.197   6.797  0.00  0.00     0.001 A 
ATOM     23  C   UNK d   0      27.922 -11.702   5.615  0.00  0.00     0.014 A 
ENDBRANCH  13  14
ENDBRANCH   1  13
BRANCH   1  24
ATOM     24  N   UNK d   0      28.172 -13.976   0.555  0.00  0.00    -0.295 N 
ATOM     25  C   UNK d   0      27.010 -14.088  -0.200  0.00  0.00     0.259 C 
ATOM     26  O   UNK d   0      26.345 -13.172  -0.709  0.00  0.00    -0.267 OA
ATOM     27  C   UNK d   0      26.445 -15.431  -0.362  0.00  0.00     0.053 A 
ATOM     28  C   UNK d   0      25.159 -15.575  -0.907  0.00  0.00     0.019 A 
ATOM     29  C   UNK d   0      27.173 -16.513   0.141  0.00  0.00     0.027 A 
ATOM     30  C   UNK d   0      24.576 -16.830  -0.973  0.00  0.00     0.001 A 
ATOM     31  C   UNK d   0      25.290 -17.931  -0.504  0.00  0.00     0.002 A 
ATOM     32  C   UNK d   0      26.573 -17.774   0.058  0.00  0.00     0.024 A 
ATOM     33  N   UNK d   0      28.369 -16.279   0.847  0.00  0.00    -0.248 NA
ATOM     34  C   UNK d   0      29.058 -15.091   0.396  0.00  0.00     0.308 C 
ATOM     35  H   UNK d   0      28.970 -17.081   0.981  0.00  0.00     0.132 HD
BRANCH  34  36
ATOM     36  O   UNK d   0      30.246 -14.976   1.127  0.00  0.00    -0.363 OA
ATOM     37  H   UNK d   0      30.155 -15.609   1.849  0.00  0.00     0.213 HD
ENDBRANCH  34  36
ENDBRANCH   1  24
TORSDOF 8
ENDMDL
MODEL 2
REMARK VINA RESULT:    -7.375      3.215      4.968
REMARK INTER + INTRA:         -12.596
REMARK INTER:                  -9.761
REMARK INTRA:                  -2.835
REMARK CONF_INDEPENDENT:        2.386
REMARK UNBOUND:                -2.835
REMARK  8 active torsions:
REMARK  status: ('A' for Active; 'I' for Inactive)
REMARK    1  A    between atoms: CA_4  and  CB_2 
REMARK    2  A    between atoms: CA_4  and  C_31 
REMARK    3  A    between atoms: CA_4  and  N_5 
REMARK       I    between atoms: N_5  and  C_6 
REMARK    4  A    between atoms: C_6  and  C_8 
REMARK    5  A    between atoms: C_8  and  C_9 
REMARK    6  A    between atoms: C_8  and  N_19 
REMARK    7  A    between atoms: C_9  and  C_10 
REMARK    8  A    between atoms: C_29  and  O_30 
ROOT
ATOM      1  C   UNK d   0      28.015 -14.543  -1.112  0.00  0.00     0.187 C 
ENDROOT
BRANCH   1   2
ATOM      2  C   UNK d   0      28.257 -13.820  -2.490  0.00  0.00     0.241 C 
ATOM      3  N   VAL d   1      28.270 -14.611  -3.610  0.00  0.00    -0.344 N 
ATOM      4  H   VAL d   1      27.773 -15.486  -3.540  0.00  0.00     0.163 HD
ATOM      5  O   UNK d   0      28.406 -12.607  -2.610  0.00  0.00    -0.271 OA
BRANCH   3   6
ATOM      6  CA  VAL d   1      28.411 -14.008  -4.985  0.00  0.00     0.189 C 
BRANCH   6   7
ATOM      7  C   VAL d   1      27.781 -14.819  -6.132  0.00  0.00     0.197 C 
ATOM      8  O   VAL d   1      26.822 -15.575  -5.792  0.00  0.00    -0.646 OA
ATOM      9  OXT VAL d   1      28.379 -14.723  -7.246  0.00  0.00    -0.646 OA
ENDBRANCH   6   7
BRANCH   6  10
ATOM     10  CB  VAL d   1      29.882 -13.737  -5.449  0.00  0.00     0.010 C 
ATOM     11  CG1 VAL d   1      31.045 -13.502  -4.507  0.00  0.00     0.012 C 
ATOM     12  CG2 VAL d   1      29.940 -12.399  -6.081  0.00  0.00     0.012 C 
ENDBRANCH   6  10
ENDBRANCH   3   6
ENDBRANCH   1   2
BRANCH   1  13
ATOM     13  C   UNK d   0      27.186 -13.727  -0.066  0.00  0.00     0.076 C 
BRANCH  13  14
ATOM     14  C   UNK d   0      27.418 -13.961   1.412  0.00  0.00    -0.028 C 
ATOM     15  C   UNK d   0      27.781 -15.138   2.044  0.00  0.00     0.096 C 
ATOM     16  N   UNK d   0      28.060 -14.848   3.361  0.00  0.00    -0.365 N 
ATOM     17  C   UNK d   0      27.681 -13.551   3.664  0.00  0.00     0.042 A 
ATOM     18  H   UNK d   0      28.548 -15.471   3.993  0.00  0.00     0.165 HD
ATOM     19  C   UNK d   0      27.905 -12.779   4.837  0.00  0.00     0.030 A 
ATOM     20  C   UNK d   0      27.284 -12.963   2.450  0.00  0.00    -0.002 A 
ATOM     21  C   UNK d   0      27.781 -11.366   4.742  0.00  0.00     0.002 A 
ATOM     22  C   UNK d   0      27.402 -10.753   3.539  0.00  0.00     0.001 A 
ATOM     23  C   UNK d   0      27.119 -11.542   2.401  0.00  0.00     0.014 A 
ENDBRANCH  13  14
ENDBRANCH   1  13
BRANCH   1  24
ATOM     24  N   UNK d   0      27.382 -15.898  -1.331  0.00  0.00    -0.295 N 
ATOM     25  C   UNK d   0      26.121 -16.013  -1.902  0.00  0.00     0.259 C 
ATOM     26  O   UNK d   0      25.688 -15.430  -2.909  0.00  0.00    -0.267 OA
ATOM     27  C   UNK d   0      25.145 -16.858  -1.208  0.00  0.00     0.053 A 
ATOM     28  C   UNK d   0      23.798 -16.823  -1.603  0.00  0.00     0.019 A 
ATOM     29  C   UNK d   0      25.583 -17.586  -0.097  0.00  0.00     0.027 A 
ATOM     30  C   UNK d   0      22.853 -17.543  -0.891  0.00  0.00     0.001 A 
ATOM     31  C   UNK d   0      23.265 -18.299   0.204  0.00  0.00     0.002 A 
ATOM     32  C   UNK d   0      24.616 -18.313   0.605  0.00  0.00     0.024 A 
ATOM     33  N   UNK d   0      26.905 -17.427   0.361  0.00  0.00    -0.248 NA
ATOM     34  C   UNK d   0      27.829 -17.106  -0.703  0.00  0.00     0.308 C 
ATOM     35  H   UNK d   0      27.241 -18.133   1.004  0.00  0.00     0.132 HD
BRANCH  34  36
ATOM     36  O   UNK d   0      29.111 -17.014  -0.149  0.00  0.00    -0.363 OA
ATOM     37  H   UNK d   0      29.233 -17.839   0.334  0.00  0.00     0.213 HD
ENDBRANCH  34  36
ENDBRANCH   1  24
TORSDOF 8
ENDMDL
MODEL 3
REMARK VINA RESULT:    -7.328      4.901      8.280
REMARK INTER + INTRA:         -12.858
REMARK INTER:                  -9.715
REMARK INTRA:                  -3.143
REMARK CONF_INDEPENDENT:        2.386
REMARK UNBOUND:                -3.143
REMARK  8 active torsions:
REMARK  status: ('A' for Active; 'I' for Inactive)
REMARK    1  A    between atoms: CA_4  and  CB_2 
REMARK    2  A    between atoms: CA_4  and  C_31 
REMARK    3  A    between atoms: CA_4  and  N_5 
REMARK       I    between atoms: N_5  and  C_6 
REMARK    4  A    between atoms: C_6  and  C_8 
REMARK    5  A    between atoms: C_8  and  C_9 
REMARK    6  A    between atoms: C_8  and  N_19 
REMARK    7  A    between atoms: C_9  and  C_10 
REMARK    8  A    between atoms: C_29  and  O_30 
ROOT
ATOM      1  C   UNK d   0      25.619 -13.608  -4.321  0.00  0.00     0.187 C 
ENDROOT
BRANCH   1   2
ATOM      2  C   UNK d   0      26.523 -14.668  -5.057  0.00  0.00     0.241 C 
ATOM      3  N   VAL d   1      27.877 -14.564  -4.866  0.00  0.00    -0.344 N 
ATOM      4  H   VAL d   1      28.171 -14.097  -4.021  0.00  0.00     0.163 HD
ATOM      5  O   UNK d   0      26.082 -15.575  -5.756  0.00  0.00    -0.271 OA
BRANCH   3   6
ATOM      6  CA  VAL d   1      28.824 -15.577  -5.458  0.00  0.00     0.189 C 
BRANCH   6   7
ATOM      7  C   VAL d   1      29.904 -16.112  -4.501  0.00  0.00     0.197 C 
ATOM      8  O   VAL d   1      30.079 -15.426  -3.450  0.00  0.00    -0.646 OA
ATOM      9  OXT VAL d   1      30.567 -17.099  -4.941  0.00  0.00    -0.646 OA
ENDBRANCH   6   7
BRANCH   6  10
ATOM     10  CB  VAL d   1      29.613 -15.097  -6.723  0.00  0.00     0.010 C 
ATOM     11  CG1 VAL d   1      31.001 -14.490  -6.684  0.00  0.00     0.012 C 
ATOM     12  CG2 VAL d   1      28.947 -13.893  -7.267  0.00  0.00     0.012 C 
ENDBRANCH   6  10
ENDBRANCH   3   6
ENDBRANCH   1   2
BRANCH   1  13
ATOM     13  C   UNK d   0      25.096 -14.041  -2.912  0.00  0.00     0.076 C 
BRANCH  13  14
ATOM     14  C   UNK d   0      25.730 -15.226  -2.216  0.00  0.00    -0.028 C 
ATOM     15  C   UNK d   0      27.077 -15.503  -2.056  0.00  0.00     0.096 C 
ATOM     16  N   UNK d   0      27.195 -16.580  -1.205  0.00  0.00    -0.365 N 
ATOM     17  C   UNK d   0      25.957 -17.154  -0.974  0.00  0.00     0.042 A 
ATOM     18  H   UNK d   0      28.056 -16.858  -0.751  0.00  0.00     0.165 HD
ATOM     19  C   UNK d   0      25.575 -18.179  -0.064  0.00  0.00     0.030 A 
ATOM     20  C   UNK d   0      25.012 -16.314  -1.589  0.00  0.00    -0.002 A 
ATOM     21  C   UNK d   0      24.198 -18.298   0.269  0.00  0.00     0.002 A 
ATOM     22  C   UNK d   0      23.237 -17.462  -0.318  0.00  0.00     0.001 A 
ATOM     23  C   UNK d   0      23.628 -16.494  -1.270  0.00  0.00     0.014 A 
ENDBRANCH  13  14
ENDBRANCH   1  13
BRANCH   1  24
ATOM     24  N   UNK d   0      26.336 -12.281  -4.222  0.00  0.00    -0.295 N 
ATOM     25  C   UNK d   0      27.094 -11.961  -3.102  0.00  0.00     0.259 C 
ATOM     26  O   UNK d   0      27.925 -12.676  -2.519  0.00  0.00    -0.267 OA
ATOM     27  C   UNK d   0      26.846 -10.660  -2.474  0.00  0.00     0.053 A 
ATOM     28  C   UNK d   0      27.406 -10.384  -1.216  0.00  0.00     0.019 A 
ATOM     29  C   UNK d   0      25.962  -9.784  -3.111  0.00  0.00     0.027 A 
ATOM     30  C   UNK d   0      27.098  -9.198  -0.571  0.00  0.00     0.001 A 
ATOM     31  C   UNK d   0      26.241  -8.293  -1.194  0.00  0.00     0.002 A 
ATOM     32  C   UNK d   0      25.669  -8.587  -2.448  0.00  0.00     0.024 A 
ATOM     33  N   UNK d   0      25.287 -10.201  -4.274  0.00  0.00    -0.248 NA
ATOM     34  C   UNK d   0      26.051 -11.148  -5.053  0.00  0.00     0.308 C 
ATOM     35  H   UNK d   0      24.851  -9.470  -4.821  0.00  0.00     0.132 HD
BRANCH  34  36
ATOM     36  O   UNK d   0      25.313 -11.461  -6.200  0.00  0.00    -0.363 OA
ATOM     37  H   UNK d   0      24.405 -11.561  -5.891  0.00  0.00     0.213 HD
ENDBRANCH  34  36
ENDBRANCH   1  24
TORSDOF 8
ENDMDL
MODEL 4
REMARK VINA RESULT:    -7.198      5.282      7.844
REMARK INTER + INTRA:         -13.226
REMARK INTER:                  -9.584
REMARK INTRA:                  -3.641
REMARK CONF_INDEPENDENT:        2.386
REMARK UNBOUND:                -3.641
REMARK  8 active torsions:
REMARK  status: ('A' for Active; 'I' for Inactive)
REMARK    1  A    between atoms: CA_4  and  CB_2 
REMARK    2  A    between atoms: CA_4  and  C_31 
REMARK    3  A    between atoms: CA_4  and  N_5 
REMARK       I    between atoms: N_5  and  C_6 
REMARK    4  A    between atoms: C_6  and  C_8 
REMARK    5  A    between atoms: C_8  and  C_9 
REMARK    6  A    between atoms: C_8  and  N_19 
REMARK    7  A    between atoms: C_9  and  C_10 
REMARK    8  A    between atoms: C_29  and  O_30 
ROOT
ATOM      1  C   UNK d   0      28.007 -14.707  -1.478  0.00  0.00     0.187 C 
ENDROOT
BRANCH   1   2
ATOM      2  C   UNK d   0      29.058 -14.572  -2.643  0.00  0.00     0.241 C 
ATOM      3  N   VAL d   1      28.779 -15.241  -3.808  0.00  0.00    -0.344 N 
ATOM      4  H   VAL d   1      27.806 -15.444  -3.980  0.00  0.00     0.163 HD
ATOM      5  O   UNK d   0      30.078 -13.894  -2.569  0.00  0.00    -0.271 OA
BRANCH   3   6
ATOM      6  CA  VAL d   1      29.678 -15.111  -5.012  0.00  0.00     0.189 C 
BRANCH   6   7
ATOM      7  C   VAL d   1      28.959 -14.914  -6.358  0.00  0.00     0.197 C 
ATOM      8  O   VAL d   1      29.658 -14.378  -7.268  0.00  0.00    -0.646 OA
ATOM      9  OXT VAL d   1      27.724 -15.200  -6.350  0.00  0.00    -0.646 OA
ENDBRANCH   6   7
BRANCH   6  10
ATOM     10  CB  VAL d   1      30.652 -16.314  -5.252  0.00  0.00     0.010 C 
ATOM     11  CG1 VAL d   1      30.406 -17.425  -6.253  0.00  0.00     0.012 C 
ATOM     12  CG2 VAL d   1      30.625 -17.190  -4.059  0.00  0.00     0.012 C 
ENDBRANCH   6  10
ENDBRANCH   3   6
ENDBRANCH   1   2
BRANCH   1  13
ATOM     13  C   UNK d   0      26.808 -13.703  -1.542  0.00  0.00     0.076 C 
BRANCH  13  14
ATOM     14  C   UNK d   0      26.211 -13.343  -2.886  0.00  0.00    -0.028 C 
ATOM     15  C   UNK d   0      24.993 -13.735  -3.413  0.00  0.00     0.096 C 
ATOM     16  N   UNK d   0      24.780 -13.026  -4.574  0.00  0.00    -0.365 N 
ATOM     17  C   UNK d   0      25.924 -12.337  -4.939  0.00  0.00     0.042 A 
ATOM     18  H   UNK d   0      23.887 -12.956  -5.047  0.00  0.00     0.165 HD
ATOM     19  C   UNK d   0      26.129 -11.375  -5.967  0.00  0.00     0.030 A 
ATOM     20  C   UNK d   0      26.840 -12.509  -3.886  0.00  0.00    -0.002 A 
ATOM     21  C   UNK d   0      27.266 -10.527  -5.872  0.00  0.00     0.002 A 
ATOM     22  C   UNK d   0      28.186 -10.666  -4.823  0.00  0.00     0.001 A 
ATOM     23  C   UNK d   0      28.001 -11.672  -3.848  0.00  0.00     0.014 A 
ENDBRANCH  13  14
ENDBRANCH   1  13
BRANCH   1  24
ATOM     24  N   UNK d   0      27.490 -16.125  -1.394  0.00  0.00    -0.295 N 
ATOM     25  C   UNK d   0      26.325 -16.501  -2.053  0.00  0.00     0.259 C 
ATOM     26  O   UNK d   0      25.997 -16.242  -3.221  0.00  0.00    -0.267 OA
ATOM     27  C   UNK d   0      25.317 -17.224  -1.271  0.00  0.00     0.053 A 
ATOM     28  C   UNK d   0      24.036 -17.417  -1.811  0.00  0.00     0.019 A 
ATOM     29  C   UNK d   0      25.645 -17.594   0.037  0.00  0.00     0.027 A 
ATOM     30  C   UNK d   0      23.048 -18.012  -1.042  0.00  0.00     0.001 A 
ATOM     31  C   UNK d   0      23.355 -18.416   0.256  0.00  0.00     0.002 A 
ATOM     32  C   UNK d   0      24.638 -18.200   0.795  0.00  0.00     0.024 A 
ATOM     33  N   UNK d   0      26.882 -17.199   0.582  0.00  0.00    -0.248 NA
ATOM     34  C   UNK d   0      27.920 -17.082  -0.418  0.00  0.00     0.308 C 
ATOM     35  H   UNK d   0      27.171 -17.680   1.424  0.00  0.00     0.132 HD
BRANCH  34  36
ATOM     36  O   UNK d   0      29.109 -16.730   0.232  0.00  0.00    -0.363 OA
ATOM     37  H   UNK d   0      29.440 -17.555   0.606  0.00  0.00     0.213 HD
ENDBRANCH  34  36
ENDBRANCH   1  24
TORSDOF 8
ENDMDL
MODEL 5
REMARK VINA RESULT:    -6.914      3.289      5.234
REMARK INTER + INTRA:         -12.600
REMARK INTER:                  -9.300
REMARK INTRA:                  -3.300
REMARK CONF_INDEPENDENT:        2.386
REMARK UNBOUND:                -3.300
REMARK  8 active torsions:
REMARK  status: ('A' for Active; 'I' for Inactive)
REMARK    1  A    between atoms: CA_4  and  CB_2 
REMARK    2  A    between atoms: CA_4  and  C_31 
REMARK    3  A    between atoms: CA_4  and  N_5 
REMARK       I    between atoms: N_5  and  C_6 
REMARK    4  A    between atoms: C_6  and  C_8 
REMARK    5  A    between atoms: C_8  and  C_9 
REMARK    6  A    between atoms: C_8  and  N_19 
REMARK    7  A    between atoms: C_9  and  C_10 
REMARK    8  A    between atoms: C_29  and  O_30 
ROOT
ATOM      1  C   UNK d   0      28.686 -15.888  -0.840  0.00  0.00     0.187 C 
ENDROOT
BRANCH   1   2
ATOM      2  C   UNK d   0      28.525 -15.942  -2.406  0.00  0.00     0.241 C 
ATOM      3  N   VAL d   1      27.449 -15.279  -2.939  0.00  0.00    -0.344 N 
ATOM      4  H   VAL d   1      27.073 -14.526  -2.383  0.00  0.00     0.163 HD
ATOM      5  O   UNK d   0      29.310 -16.514  -3.156  0.00  0.00    -0.271 OA
BRANCH   3   6
ATOM      6  CA  VAL d   1      27.249 -15.199  -4.432  0.00  0.00     0.189 C 
BRANCH   6   7
ATOM      7  C   VAL d   1      28.508 -14.867  -5.252  0.00  0.00     0.197 C 
ATOM      8  O   VAL d   1      29.300 -14.039  -4.710  0.00  0.00    -0.646 OA
ATOM      9  OXT VAL d   1      28.535 -15.366  -6.417  0.00  0.00    -0.646 OA
ENDBRANCH   6   7
BRANCH   6  10
ATOM     10  CB  VAL d   1      26.177 -14.162  -4.909  0.00  0.00     0.010 C 
ATOM     11  CG1 VAL d   1      26.374 -12.660  -4.889  0.00  0.00     0.012 C 
ATOM     12  CG2 VAL d   1      25.051 -14.169  -3.948  0.00  0.00     0.012 C 
ENDBRANCH   6  10
ENDBRANCH   3   6
ENDBRANCH   1   2
BRANCH   1  13
ATOM     13  C   UNK d   0      29.568 -14.714  -0.300  0.00  0.00     0.076 C 
BRANCH  13  14
ATOM     14  C   UNK d   0      29.991 -14.710   1.154  0.00  0.00    -0.028 C 
ATOM     15  C   UNK d   0      31.248 -14.958   1.679  0.00  0.00     0.096 C 
ATOM     16  N   UNK d   0      31.215 -14.666   3.024  0.00  0.00    -0.365 N 
ATOM     17  C   UNK d   0      29.914 -14.441   3.441  0.00  0.00     0.042 A 
ATOM     18  H   UNK d   0      32.037 -14.553   3.606  0.00  0.00     0.165 HD
ATOM     19  C   UNK d   0      29.417 -13.972   4.688  0.00  0.00     0.030 A 
ATOM     20  C   UNK d   0      29.122 -14.450   2.279  0.00  0.00    -0.002 A 
ATOM     21  C   UNK d   0      28.099 -13.441   4.727  0.00  0.00     0.002 A 
ATOM     22  C   UNK d   0      27.293 -13.424   3.579  0.00  0.00     0.001 A 
ATOM     23  C   UNK d   0      27.781 -13.955   2.363  0.00  0.00     0.014 A 
ENDBRANCH  13  14
ENDBRANCH   1  13
BRANCH   1  24
ATOM     24  N   UNK d   0      27.332 -15.869  -0.170  0.00  0.00    -0.295 N 
ATOM     25  C   UNK d   0      26.754 -17.040   0.306  0.00  0.00     0.259 C 
ATOM     26  O   UNK d   0      27.292 -17.933   0.979  0.00  0.00    -0.267 OA
ATOM     27  C   UNK d   0      25.366 -17.309  -0.085  0.00  0.00     0.053 A 
ATOM     28  C   UNK d   0      24.814 -18.575   0.165  0.00  0.00     0.019 A 
ATOM     29  C   UNK d   0      24.684 -16.319  -0.798  0.00  0.00     0.027 A 
ATOM     30  C   UNK d   0      23.539 -18.871  -0.288  0.00  0.00     0.001 A 
ATOM     31  C   UNK d   0      22.824 -17.894  -0.978  0.00  0.00     0.002 A 
ATOM     32  C   UNK d   0      23.395 -16.632  -1.240  0.00  0.00     0.024 A 
ATOM     33  N   UNK d   0      25.362 -15.146  -1.182  0.00  0.00    -0.248 NA
ATOM     34  C   UNK d   0      26.407 -14.777  -0.254  0.00  0.00     0.308 C 
ATOM     35  H   UNK d   0      24.780 -14.373  -1.480  0.00  0.00     0.132 HD
BRANCH  34  36
ATOM     36  O   UNK d   0      26.983 -13.583  -0.704  0.00  0.00    -0.363 OA
ATOM     37  H   UNK d   0      26.967 -12.996   0.061  0.00  0.00     0.213 HD
ENDBRANCH  34  36
ENDBRANCH   1  24
TORSDOF 8
ENDMDL
MODEL 6
REMARK VINA RESULT:    -6.471      3.270      5.303
REMARK INTER + INTRA:         -13.618
REMARK INTER:                  -8.857
REMARK INTRA:                  -4.761
REMARK CONF_INDEPENDENT:        2.386
REMARK UNBOUND:                -4.761
REMARK  8 active torsions:
REMARK  status: ('A' for Active; 'I' for Inactive)
REMARK    1  A    between atoms: CA_4  and  CB_2 
REMARK    2  A    between atoms: CA_4  and  C_31 
REMARK    3  A    between atoms: CA_4  and  N_5 
REMARK       I    between atoms: N_5  and  C_6 
REMARK    4  A    between atoms: C_6  and  C_8 
REMARK    5  A    between atoms: C_8  and  C_9 
REMARK    6  A    between atoms: C_8  and  N_19 
REMARK    7  A    between atoms: C_9  and  C_10 
REMARK    8  A    between atoms: C_29  and  O_30 
ROOT
ATOM      1  C   UNK d   0      29.067 -14.882  -0.592  0.00  0.00     0.187 C 
ENDROOT
BRANCH   1   2
ATOM      2  C   UNK d   0      29.385 -14.727  -2.126  0.00  0.00     0.241 C 
ATOM      3  N   VAL d   1      28.481 -15.271  -3.002  0.00  0.00    -0.344 N 
ATOM      4  H   VAL d   1      27.541 -15.387  -2.655  0.00  0.00     0.163 HD
ATOM      5  O   UNK d   0      30.366 -14.134  -2.566  0.00  0.00    -0.271 OA
BRANCH   3   6
ATOM      6  CA  VAL d   1      28.648 -15.106  -4.492  0.00  0.00     0.189 C 
BRANCH   6   7
ATOM      7  C   VAL d   1      27.349 -14.873  -5.283  0.00  0.00     0.197 C 
ATOM      8  O   VAL d   1      26.356 -14.502  -4.588  0.00  0.00    -0.646 OA
ATOM      9  OXT VAL d   1      27.402 -15.199  -6.507  0.00  0.00    -0.646 OA
ENDBRANCH   6   7
BRANCH   6  10
ATOM     10  CB  VAL d   1      29.351 -16.300  -5.223  0.00  0.00     0.010 C 
ATOM     11  CG1 VAL d   1      30.219 -17.332  -4.533  0.00  0.00     0.012 C 
ATOM     12  CG2 VAL d   1      30.430 -15.760  -6.082  0.00  0.00     0.012 C 
ENDBRANCH   6  10
ENDBRANCH   3   6
ENDBRANCH   1   2
BRANCH   1  13
ATOM     13  C   UNK d   0      29.695 -13.788   0.334  0.00  0.00     0.076 C 
BRANCH  13  14
ATOM     14  C   UNK d   0      30.027 -14.131   1.771  0.00  0.00    -0.028 C 
ATOM     15  C   UNK d   0      31.266 -14.420   2.317  0.00  0.00     0.096 C 
ATOM     16  N   UNK d   0      31.126 -14.489   3.685  0.00  0.00    -0.365 N 
ATOM     17  C   UNK d   0      29.787 -14.468   4.038  0.00  0.00     0.042 A 
ATOM     18  H   UNK d   0      31.897 -14.474   4.340  0.00  0.00     0.165 HD
ATOM     19  C   UNK d   0      29.176 -14.372   5.318  0.00  0.00     0.030 A 
ATOM     20  C   UNK d   0      29.071 -14.230   2.851  0.00  0.00    -0.002 A 
ATOM     21  C   UNK d   0      27.817 -13.961   5.383  0.00  0.00     0.002 A 
ATOM     22  C   UNK d   0      27.084 -13.702   4.215  0.00  0.00     0.001 A 
ATOM     23  C   UNK d   0      27.689 -13.866   2.949  0.00  0.00     0.014 A 
ENDBRANCH  13  14
ENDBRANCH   1  13
BRANCH   1  24
ATOM     24  N   UNK d   0      27.575 -14.957  -0.366  0.00  0.00    -0.295 N 
ATOM     25  C   UNK d   0      27.019 -15.973   0.403  0.00  0.00     0.259 C 
ATOM     26  O   UNK d   0      27.405 -16.386   1.508  0.00  0.00    -0.267 OA
ATOM     27  C   UNK d   0      25.889 -16.708  -0.173  0.00  0.00     0.053 A 
ATOM     28  C   UNK d   0      25.445 -17.886   0.448  0.00  0.00     0.019 A 
ATOM     29  C   UNK d   0      25.370 -16.259  -1.392  0.00  0.00     0.027 A 
ATOM     30  C   UNK d   0      24.444 -18.640  -0.142  0.00  0.00     0.001 A 
ATOM     31  C   UNK d   0      23.888 -18.202  -1.343  0.00  0.00     0.002 A 
ATOM     32  C   UNK d   0      24.354 -17.028  -1.969  0.00  0.00     0.024 A 
ATOM     33  N   UNK d   0      25.988 -15.183  -2.057  0.00  0.00    -0.248 NA
ATOM     34  C   UNK d   0      26.606 -14.246  -1.146  0.00  0.00     0.308 C 
ATOM     35  H   UNK d   0      25.450 -14.749  -2.796  0.00  0.00     0.132 HD
BRANCH  34  36
ATOM     36  O   UNK d   0      27.148 -13.200  -1.902  0.00  0.00    -0.363 OA
ATOM     37  H   UNK d   0      27.123 -13.515  -2.813  0.00  0.00     0.213 HD
ENDBRANCH  34  36
ENDBRANCH   1  24
TORSDOF 8
ENDMDL
MODEL 7
REMARK VINA RESULT:    -6.143      4.835      6.925
REMARK INTER + INTRA:         -12.578
REMARK INTER:                  -8.530
REMARK INTRA:                  -4.049
REMARK CONF_INDEPENDENT:        2.386
REMARK UNBOUND:                -4.049
REMARK  8 active torsions:
REMARK  status: ('A' for Active; 'I' for Inactive)
REMARK    1  A    between atoms: CA_4  and  CB_2 
REMARK    2  A    between atoms: CA_4  and  C_31 
REMARK    3  A    between atoms: CA_4  and  N_5 
REMARK       I    between atoms: N_5  and  C_6 
REMARK    4  A    between atoms: C_6  and  C_8 
REMARK    5  A    between atoms: C_8  and  C_9 
REMARK    6  A    between atoms: C_8  and  N_19 
REMARK    7  A    between atoms: C_9  and  C_10 
REMARK    8  A    between atoms: C_29  and  O_30 
ROOT
ATOM      1  C   UNK d   0      27.044 -13.885  -2.435  0.00  0.00     0.187 C 
ENDROOT
BRANCH   1   2
ATOM      2  C   UNK d   0      27.556 -12.450  -2.034  0.00  0.00     0.241 C 
ATOM      3  N   VAL d   1      27.019 -11.390  -2.719  0.00  0.00    -0.344 N 
ATOM      4  H   VAL d   1      26.112 -11.544  -3.134  0.00  0.00     0.163 HD
ATOM      5  O   UNK d   0      28.373 -12.239  -1.144  0.00  0.00    -0.271 OA
BRANCH   3   6
ATOM      6  CA  VAL d   1      27.379  -9.971  -2.357  0.00  0.00     0.189 C 
BRANCH   6   7
ATOM      7  C   VAL d   1      26.212  -8.968  -2.370  0.00  0.00     0.197 C 
ATOM      8  O   VAL d   1      26.419  -7.893  -1.731  0.00  0.00    -0.646 OA
ATOM      9  OXT VAL d   1      25.148  -9.393  -2.912  0.00  0.00    -0.646 OA
ENDBRANCH   6   7
BRANCH   6  10
ATOM     10  CB  VAL d   1      28.482  -9.311  -3.253  0.00  0.00     0.010 C 
ATOM     11  CG1 VAL d   1      28.413  -9.219  -4.763  0.00  0.00     0.012 C 
ATOM     12  CG2 VAL d   1      29.692 -10.163  -3.218  0.00  0.00     0.012 C 
ENDBRANCH   6  10
ENDBRANCH   3   6
ENDBRANCH   1   2
BRANCH   1  13
ATOM     13  C   UNK d   0      25.855 -14.433  -1.578  0.00  0.00     0.076 C 
BRANCH  13  14
ATOM     14  C   UNK d   0      25.815 -15.902  -1.216  0.00  0.00    -0.028 C 
ATOM     15  C   UNK d   0      26.881 -16.751  -0.969  0.00  0.00     0.096 C 
ATOM     16  N   UNK d   0      26.379 -17.943  -0.497  0.00  0.00    -0.365 N 
ATOM     17  C   UNK d   0      25.001 -17.977  -0.633  0.00  0.00     0.042 A 
ATOM     18  H   UNK d   0      26.933 -18.657  -0.041  0.00  0.00     0.165 HD
ATOM     19  C   UNK d   0      24.055 -18.927  -0.158  0.00  0.00     0.030 A 
ATOM     20  C   UNK d   0      24.617 -16.699  -1.073  0.00  0.00    -0.002 A 
ATOM     21  C   UNK d   0      22.693 -18.530  -0.072  0.00  0.00     0.002 A 
ATOM     22  C   UNK d   0      22.285 -17.254  -0.489  0.00  0.00     0.001 A 
ATOM     23  C   UNK d   0      23.230 -16.347  -1.020  0.00  0.00     0.014 A 
ENDBRANCH  13  14
ENDBRANCH   1  13
BRANCH   1  24
ATOM     24  N   UNK d   0      26.688 -13.928  -3.903  0.00  0.00    -0.295 N 
ATOM     25  C   UNK d   0      27.636 -14.280  -4.857  0.00  0.00     0.259 C 
ATOM     26  O   UNK d   0      28.433 -15.231  -4.821  0.00  0.00    -0.267 OA
ATOM     27  C   UNK d   0      27.780 -13.393  -6.016  0.00  0.00     0.053 A 
ATOM     28  C   UNK d   0      28.871 -13.565  -6.883  0.00  0.00     0.019 A 
ATOM     29  C   UNK d   0      26.877 -12.333  -6.146  0.00  0.00     0.027 A 
ATOM     30  C   UNK d   0      29.071 -12.673  -7.923  0.00  0.00     0.001 A 
ATOM     31  C   UNK d   0      28.171 -11.622  -8.093  0.00  0.00     0.002 A 
ATOM     32  C   UNK d   0      27.090 -11.447  -7.207  0.00  0.00     0.024 A 
ATOM     33  N   UNK d   0      25.923 -12.106  -5.136  0.00  0.00    -0.248 NA
ATOM     34  C   UNK d   0      25.519 -13.321  -4.466  0.00  0.00     0.308 C 
ATOM     35  H   UNK d   0      25.156 -11.492  -5.379  0.00  0.00     0.132 HD
BRANCH  34  36
ATOM     36  O   UNK d   0      24.543 -12.989  -3.519  0.00  0.00    -0.363 OA
ATOM     37  H   UNK d   0      24.376 -12.049  -3.654  0.00  0.00     0.213 HD
ENDBRANCH  34  36
ENDBRANCH   1  24
TORSDOF 8
ENDMDL
MODEL 8
REMARK VINA RESULT:    -6.064      4.851      6.892
REMARK INTER + INTRA:         -13.376
REMARK INTER:                  -8.450
REMARK INTRA:                  -4.926
REMARK CONF_INDEPENDENT:        2.386
REMARK UNBOUND:                -4.926
REMARK  8 active torsions:
REMARK  status: ('A' for Active; 'I' for Inactive)
REMARK    1  A    between atoms: CA_4  and  CB_2 
REMARK    2  A    between atoms: CA_4  and  C_31 
REMARK    3  A    between atoms: CA_4  and  N_5 
REMARK       I    between atoms: N_5  and  C_6 
REMARK    4  A    between atoms: C_6  and  C_8 
REMARK    5  A    between atoms: C_8  and  C_9 
REMARK    6  A    between atoms: C_8  and  N_19 
REMARK    7  A    between atoms: C_9  and  C_10 
REMARK    8  A    between atoms: C_29  and  O_30 
ROOT
ATOM      1  C   UNK d   0      27.017 -14.411  -1.487  0.00  0.00     0.187 C 
ENDROOT
BRANCH   1   2
ATOM      2  C   UNK d   0      26.892 -12.883  -1.849  0.00  0.00     0.241 C 
ATOM      3  N   VAL d   1      27.032 -12.547  -3.171  0.00  0.00    -0.344 N 
ATOM      4  H   VAL d   1      26.832 -13.278  -3.837  0.00  0.00     0.163 HD
ATOM      5  O   UNK d   0      26.655 -12.003  -1.027  0.00  0.00    -0.271 OA
BRANCH   3   6
ATOM      6  CA  VAL d   1      26.848 -11.124  -3.634  0.00  0.00     0.189 C 
BRANCH   6   7
ATOM      7  C   VAL d   1      25.930 -10.938  -4.855  0.00  0.00     0.197 C 
ATOM      8  O   VAL d   1      25.591  -9.741  -5.096  0.00  0.00    -0.646 OA
ATOM      9  OXT VAL d   1      25.531 -12.015  -5.392  0.00  0.00    -0.646 OA
ENDBRANCH   6   7
BRANCH   6  10
ATOM     10  CB  VAL d   1      28.166 -10.365  -4.006  0.00  0.00     0.010 C 
ATOM     11  CG1 VAL d   1      28.624 -10.094  -5.425  0.00  0.00     0.012 C 
ATOM     12  CG2 VAL d   1      29.321 -11.218  -3.645  0.00  0.00     0.012 C 
ENDBRANCH   6  10
ENDBRANCH   3   6
ENDBRANCH   1   2
BRANCH   1  13
ATOM     13  C   UNK d   0      25.905 -14.965  -0.537  0.00  0.00     0.076 C 
BRANCH  13  14
ATOM     14  C   UNK d   0      25.625 -16.453  -0.510  0.00  0.00    -0.028 C 
ATOM     15  C   UNK d   0      26.505 -17.484  -0.230  0.00  0.00     0.096 C 
ATOM     16  N   UNK d   0      25.782 -18.652  -0.138  0.00  0.00    -0.365 N 
ATOM     17  C   UNK d   0      24.480 -18.452  -0.565  0.00  0.00     0.042 A 
ATOM     18  H   UNK d   0      26.134 -19.513   0.263  0.00  0.00     0.165 HD
ATOM     19  C   UNK d   0      23.353 -19.318  -0.512  0.00  0.00     0.030 A 
ATOM     20  C   UNK d   0      24.349 -17.071  -0.794  0.00  0.00    -0.002 A 
ATOM     21  C   UNK d   0      22.059 -18.741  -0.632  0.00  0.00     0.002 A 
ATOM     22  C   UNK d   0      21.899 -17.364  -0.845  0.00  0.00     0.001 A 
ATOM     23  C   UNK d   0      23.034 -16.529  -0.962  0.00  0.00     0.014 A 
ENDBRANCH  13  14
ENDBRANCH   1  13
BRANCH   1  24
ATOM     24  N   UNK d   0      27.088 -15.247  -2.744  0.00  0.00    -0.295 N 
ATOM     25  C   UNK d   0      28.242 -15.950  -3.070  0.00  0.00     0.259 C 
ATOM     26  O   UNK d   0      28.933 -16.661  -2.323  0.00  0.00    -0.267 OA
ATOM     27  C   UNK d   0      28.764 -15.788  -4.430  0.00  0.00     0.053 A 
ATOM     28  C   UNK d   0      30.042 -16.280  -4.740  0.00  0.00     0.019 A 
ATOM     29  C   UNK d   0      28.005 -15.044  -5.338  0.00  0.00     0.027 A 
ATOM     30  C   UNK d   0      30.584 -16.046  -5.993  0.00  0.00     0.001 A 
ATOM     31  C   UNK d   0      29.838 -15.331  -6.928  0.00  0.00     0.002 A 
ATOM     32  C   UNK d   0      28.565 -14.825  -6.601  0.00  0.00     0.024 A 
ATOM     33  N   UNK d   0      26.821 -14.417  -4.905  0.00  0.00    -0.248 NA
ATOM     34  C   UNK d   0      26.167 -15.138  -3.837  0.00  0.00     0.308 C 
ATOM     35  H   UNK d   0      26.195 -14.097  -5.633  0.00  0.00     0.132 HD
BRANCH  34  36
ATOM     36  O   UNK d   0      24.987 -14.457  -3.514  0.00  0.00    -0.363 OA
ATOM     37  H   UNK d   0      25.029 -13.636  -4.018  0.00  0.00     0.213 HD
ENDBRANCH  34  36
ENDBRANCH   1  24
TORSDOF 8
ENDMDL
