MODEL 1
REMARK VINA RESULT:    -9.249      0.000      0.000
REMARK INTER + INTRA:         -13.827
REMARK INTER:                 -11.934
REMARK INTRA:                  -1.893
REMARK CONF_INDEPENDENT:        2.685
REMARK UNBOUND:                -1.893
REMARK  9 active torsions:
REMARK  status: ('A' for Active; 'I' for Inactive)
REMARK    1  A    between atoms: O_2  and  C_3 
REMARK    2  A    between atoms: C_6  and  C_7 
REMARK    3  A    between atoms: C_8  and  C_9 
REMARK       I    between atoms: C_9  and  N_11 
REMARK    4  A    between atoms: N_11  and  C_12 
REMARK    5  A    between atoms: C_12  and  N_14 
REMARK    6  A    between atoms: N_14  and  C_15 
REMARK    7  A    between atoms: C_20  and  C_21 
REMARK       I    between atoms: C_21  and  N_23 
REMARK    8  A    between atoms: N_23  and  C_24 
REMARK    9  A    between atoms: C_24  and  C_25 
ROOT
ATOM      1  N   UNL d   1      27.427 -16.363   0.256  0.00  0.00    -0.332 N 
ATOM      2  H   UNL d   1      26.966 -16.925   0.965  0.00  0.00     0.168 HD
ENDROOT
BRANCH   1   3
ATOM      3  C   UNL d   1      28.480 -15.542   0.786  0.00  0.00     0.179 C 
ATOM      4  S   UNL d   1      29.911 -15.305  -0.082  0.00  0.00    -0.040 SA
BRANCH   3   5
ATOM      5  N   UNL d   1      28.197 -15.060   2.152  0.00  0.00    -0.300 N 
ATOM      6  C   UNL d   1      27.370 -13.945   2.539  0.00  0.00     0.247 C 
ATOM      7  O   UNL d   1      26.589 -13.397   1.762  0.00  0.00    -0.268 OA
ATOM      8  H   UNL d   1      28.768 -15.463   2.884  0.00  0.00     0.171 HD
BRANCH   6   9
ATOM      9  C   UNL d   1      27.475 -13.316   3.938  0.00  0.00     0.075 C 
ATOM     10  C   UNL d   1      28.511 -13.620   4.790  0.00  0.00     0.017 C 
BRANCH  10  11
ATOM     11  C   UNL d   1      28.783 -13.120   6.151  0.00  0.00    -0.036 A 
ATOM     12  C   UNL d   1      28.532 -11.795   6.589  0.00  0.00     0.014 A 
ATOM     13  C   UNL d   1      28.595 -11.489   7.954  0.00  0.00     0.037 A 
ATOM     14  C   UNL d   1      28.844 -12.510   8.869  0.00  0.00     0.068 A 
ATOM     15  C   UNL d   1      29.146 -13.794   8.423  0.00  0.00     0.037 A 
ATOM     16  C   UNL d   1      29.136 -14.082   7.077  0.00  0.00     0.014 A 
BRANCH  14  17
ATOM     17  O   UNL d   1      28.656 -12.205  10.186  0.00  0.00    -0.356 OA
ATOM     18  C   UNL d   1      27.773 -13.086  10.865  0.00  0.00     0.210 C 
ENDBRANCH  14  17
ENDBRANCH  10  11
ENDBRANCH   6   9
ENDBRANCH   3   5
ENDBRANCH   1   3
BRANCH   1  19
ATOM     19  C   UNL d   1      26.469 -15.868  -0.752  0.00  0.00     0.050 A 
ATOM     20  C   UNL d   1      26.794 -14.685  -1.465  0.00  0.00     0.030 A 
ATOM     21  C   UNL d   1      25.908 -14.108  -2.400  0.00  0.00     0.002 A 
ATOM     22  C   UNL d   1      24.702 -14.728  -2.692  0.00  0.00     0.001 A 
ATOM     23  C   UNL d   1      24.367 -15.904  -2.020  0.00  0.00     0.019 A 
ATOM     24  C   UNL d   1      25.219 -16.485  -1.040  0.00  0.00     0.058 A 
BRANCH  24  25
ATOM     25  C   UNL d   1      24.680 -17.723  -0.385  0.00  0.00     0.254 C 
ATOM     26  O   UNL d   1      25.243 -18.186   0.630  0.00  0.00    -0.268 OA
ATOM     27  N   UNL d   1      23.566 -18.322  -0.910  0.00  0.00    -0.354 N 
ATOM     28  H   UNL d   1      23.126 -17.835  -1.678  0.00  0.00     0.162 HD
BRANCH  27  29
ATOM     29  C   UNL d   1      22.806 -19.312  -0.147  0.00  0.00     0.155 C 
BRANCH  29  30
ATOM     30  C   UNL d   1      21.383 -18.887   0.167  0.00  0.00     0.139 C 
ATOM     31  C   UNL d   1      20.644 -20.124   0.577  0.00  0.00     0.035 C 
ATOM     32  C   UNL d   1      19.261 -19.666   0.396  0.00  0.00     0.029 C 
ATOM     33  C   UNL d   1      19.277 -18.951  -0.894  0.00  0.00     0.168 C 
ATOM     34  O   UNL d   1      20.609 -18.376  -0.950  0.00  0.00    -0.384 OA
ENDBRANCH  29  30
ENDBRANCH  27  29
ENDBRANCH  24  25
ENDBRANCH   1  19
TORSDOF 9
ENDMDL
MODEL 2
REMARK VINA RESULT:    -9.197      2.449      3.635
REMARK INTER + INTRA:         -13.421
REMARK INTER:                 -11.881
REMARK INTRA:                  -1.539
REMARK CONF_INDEPENDENT:        2.685
REMARK UNBOUND:                -1.539
REMARK  9 active torsions:
REMARK  status: ('A' for Active; 'I' for Inactive)
REMARK    1  A    between atoms: O_2  and  C_3 
REMARK    2  A    between atoms: C_6  and  C_7 
REMARK    3  A    between atoms: C_8  and  C_9 
REMARK       I    between atoms: C_9  and  N_11 
REMARK    4  A    between atoms: N_11  and  C_12 
REMARK    5  A    between atoms: C_12  and  N_14 
REMARK    6  A    between atoms: N_14  and  C_15 
REMARK    7  A    between atoms: C_20  and  C_21 
REMARK       I    between atoms: C_21  and  N_23 
REMARK    8  A    between atoms: N_23  and  C_24 
REMARK    9  A    between atoms: C_24  and  C_25 
ROOT
ATOM      1  N   UNL d   1      25.137 -16.292  -2.682  0.00  0.00    -0.332 N 
ATOM      2  H   UNL d   1      25.108 -16.947  -3.459  0.00  0.00     0.168 HD
ENDROOT
BRANCH   1   3
ATOM      3  C   UNL d   1      25.687 -15.015  -3.045  0.00  0.00     0.179 C 
ATOM      4  S   UNL d   1      26.092 -14.672  -4.650  0.00  0.00    -0.040 SA
BRANCH   3   5
ATOM      5  N   UNL d   1      25.932 -14.145  -1.878  0.00  0.00    -0.300 N 
ATOM      6  C   UNL d   1      27.200 -13.812  -1.278  0.00  0.00     0.247 C 
ATOM      7  O   UNL d   1      28.275 -14.031  -1.834  0.00  0.00    -0.268 OA
ATOM      8  H   UNL d   1      25.110 -13.877  -1.353  0.00  0.00     0.171 HD
BRANCH   6   9
ATOM      9  C   UNL d   1      27.286 -13.231   0.143  0.00  0.00     0.075 C 
ATOM     10  C   UNL d   1      27.374 -14.042   1.250  0.00  0.00     0.017 C 
BRANCH  10  11
ATOM     11  C   UNL d   1      27.471 -13.676   2.676  0.00  0.00    -0.036 A 
ATOM     12  C   UNL d   1      27.781 -14.581   3.722  0.00  0.00     0.014 A 
ATOM     13  C   UNL d   1      28.088 -14.092   4.998  0.00  0.00     0.037 A 
ATOM     14  C   UNL d   1      28.144 -12.715   5.203  0.00  0.00     0.068 A 
ATOM     15  C   UNL d   1      27.782 -11.838   4.184  0.00  0.00     0.037 A 
ATOM     16  C   UNL d   1      27.428 -12.321   2.945  0.00  0.00     0.014 A 
BRANCH  14  17
ATOM     17  O   UNL d   1      28.679 -12.298   6.388  0.00  0.00    -0.356 OA
ATOM     18  C   UNL d   1      29.881 -12.964   6.747  0.00  0.00     0.210 C 
ENDBRANCH  14  17
ENDBRANCH  10  11
ENDBRANCH   6   9
ENDBRANCH   3   5
ENDBRANCH   1   3
BRANCH   1  19
ATOM     19  C   UNL d   1      25.474 -16.967  -1.415  0.00  0.00     0.050 A 
ATOM     20  C   UNL d   1      26.841 -17.069  -1.049  0.00  0.00     0.030 A 
ATOM     21  C   UNL d   1      27.255 -17.752   0.114  0.00  0.00     0.002 A 
ATOM     22  C   UNL d   1      26.314 -18.302   0.973  0.00  0.00     0.001 A 
ATOM     23  C   UNL d   1      24.962 -18.199   0.647  0.00  0.00     0.019 A 
ATOM     24  C   UNL d   1      24.516 -17.555  -0.541  0.00  0.00     0.058 A 
BRANCH  24  25
ATOM     25  C   UNL d   1      23.031 -17.578  -0.755  0.00  0.00     0.254 C 
ATOM     26  O   UNL d   1      22.408 -16.506  -0.914  0.00  0.00    -0.268 OA
ATOM     27  N   UNL d   1      22.381 -18.783  -0.783  0.00  0.00    -0.354 N 
ATOM     28  H   UNL d   1      22.971 -19.602  -0.731  0.00  0.00     0.162 HD
BRANCH  27  29
ATOM     29  C   UNL d   1      21.021 -18.901  -1.309  0.00  0.00     0.155 C 
BRANCH  29  30
ATOM     30  C   UNL d   1      19.961 -19.086  -0.238  0.00  0.00     0.139 C 
ATOM     31  C   UNL d   1      20.658 -19.642   0.966  0.00  0.00     0.035 C 
ATOM     32  C   UNL d   1      19.506 -20.181   1.700  0.00  0.00     0.029 C 
ATOM     33  C   UNL d   1      18.699 -20.860   0.669  0.00  0.00     0.168 C 
ATOM     34  O   UNL d   1      18.930 -20.066  -0.525  0.00  0.00    -0.384 OA
ENDBRANCH  29  30
ENDBRANCH  27  29
ENDBRANCH  24  25
ENDBRANCH   1  19
TORSDOF 9
ENDMDL
MODEL 3
REMARK VINA RESULT:    -8.510      5.628      9.102
REMARK INTER + INTRA:         -13.338
REMARK INTER:                 -11.195
REMARK INTRA:                  -2.143
REMARK CONF_INDEPENDENT:        2.685
REMARK UNBOUND:                -2.143
REMARK  9 active torsions:
REMARK  status: ('A' for Active; 'I' for Inactive)
REMARK    1  A    between atoms: O_2  and  C_3 
REMARK    2  A    between atoms: C_6  and  C_7 
REMARK    3  A    between atoms: C_8  and  C_9 
REMARK       I    between atoms: C_9  and  N_11 
REMARK    4  A    between atoms: N_11  and  C_12 
REMARK    5  A    between atoms: C_12  and  N_14 
REMARK    6  A    between atoms: N_14  and  C_15 
REMARK    7  A    between atoms: C_20  and  C_21 
REMARK       I    between atoms: C_21  and  N_23 
REMARK    8  A    between atoms: N_23  and  C_24 
REMARK    9  A    between atoms: C_24  and  C_25 
ROOT
ATOM      1  N   UNL d   1      25.504 -14.929  -1.363  0.00  0.00    -0.332 N 
ATOM      2  H   UNL d   1      24.855 -15.098  -2.126  0.00  0.00     0.168 HD
ENDROOT
BRANCH   1   3
ATOM      3  C   UNL d   1      26.437 -13.873  -1.641  0.00  0.00     0.179 C 
ATOM      4  S   UNL d   1      26.655 -12.601  -0.549  0.00  0.00    -0.040 SA
BRANCH   3   5
ATOM      5  N   UNL d   1      27.055 -13.993  -2.976  0.00  0.00    -0.300 N 
ATOM      6  C   UNL d   1      26.551 -14.711  -4.119  0.00  0.00     0.247 C 
ATOM      7  O   UNL d   1      25.393 -15.121  -4.187  0.00  0.00    -0.268 OA
ATOM      8  H   UNL d   1      28.008 -13.661  -3.047  0.00  0.00     0.171 HD
BRANCH   6   9
ATOM      9  C   UNL d   1      27.463 -15.081  -5.300  0.00  0.00     0.075 C 
ATOM     10  C   UNL d   1      28.747 -15.533  -5.107  0.00  0.00     0.017 C 
BRANCH  10  11
ATOM     11  C   UNL d   1      29.758 -15.938  -6.101  0.00  0.00    -0.036 A 
ATOM     12  C   UNL d   1      30.489 -15.041  -6.921  0.00  0.00     0.014 A 
ATOM     13  C   UNL d   1      31.591 -15.504  -7.650  0.00  0.00     0.037 A 
ATOM     14  C   UNL d   1      31.991 -16.833  -7.509  0.00  0.00     0.068 A 
ATOM     15  C   UNL d   1      31.232 -17.716  -6.747  0.00  0.00     0.037 A 
ATOM     16  C   UNL d   1      30.117 -17.273  -6.072  0.00  0.00     0.014 A 
BRANCH  14  17
ATOM     17  O   UNL d   1      33.201 -17.163  -8.047  0.00  0.00    -0.356 OA
ATOM     18  C   UNL d   1      34.290 -17.043  -7.144  0.00  0.00     0.210 C 
ENDBRANCH  14  17
ENDBRANCH  10  11
ENDBRANCH   6   9
ENDBRANCH   3   5
ENDBRANCH   1   3
BRANCH   1  19
ATOM     19  C   UNL d   1      25.905 -16.187  -0.703  0.00  0.00     0.050 A 
ATOM     20  C   UNL d   1      27.277 -16.377  -0.395  0.00  0.00     0.030 A 
ATOM     21  C   UNL d   1      27.756 -17.575   0.178  0.00  0.00     0.002 A 
ATOM     22  C   UNL d   1      26.871 -18.590   0.513  0.00  0.00     0.001 A 
ATOM     23  C   UNL d   1      25.514 -18.420   0.239  0.00  0.00     0.019 A 
ATOM     24  C   UNL d   1      25.008 -17.243  -0.378  0.00  0.00     0.058 A 
BRANCH  24  25
ATOM     25  C   UNL d   1      23.530 -17.250  -0.640  0.00  0.00     0.254 C 
ATOM     26  O   UNL d   1      23.002 -16.298  -1.253  0.00  0.00    -0.268 OA
ATOM     27  N   UNL d   1      22.782 -18.313  -0.207  0.00  0.00    -0.354 N 
ATOM     28  H   UNL d   1      23.301 -19.076   0.204  0.00  0.00     0.162 HD
BRANCH  27  29
ATOM     29  C   UNL d   1      21.428 -18.543  -0.708  0.00  0.00     0.155 C 
BRANCH  29  30
ATOM     30  C   UNL d   1      20.732 -19.735  -0.077  0.00  0.00     0.139 C 
ATOM     31  C   UNL d   1      19.303 -19.686  -0.522  0.00  0.00     0.035 C 
ATOM     32  C   UNL d   1      18.692 -20.564   0.484  0.00  0.00     0.029 C 
ATOM     33  C   UNL d   1      19.307 -20.145   1.758  0.00  0.00     0.168 C 
ATOM     34  O   UNL d   1      20.644 -19.728   1.372  0.00  0.00    -0.384 OA
ENDBRANCH  29  30
ENDBRANCH  27  29
ENDBRANCH  24  25
ENDBRANCH   1  19
TORSDOF 9
ENDMDL
MODEL 4
REMARK VINA RESULT:    -8.484      2.364      9.484
REMARK INTER + INTRA:         -14.012
REMARK INTER:                 -11.169
REMARK INTRA:                  -2.843
REMARK CONF_INDEPENDENT:        2.685
REMARK UNBOUND:                -2.843
REMARK  9 active torsions:
REMARK  status: ('A' for Active; 'I' for Inactive)
REMARK    1  A    between atoms: O_2  and  C_3 
REMARK    2  A    between atoms: C_6  and  C_7 
REMARK    3  A    between atoms: C_8  and  C_9 
REMARK       I    between atoms: C_9  and  N_11 
REMARK    4  A    between atoms: N_11  and  C_12 
REMARK    5  A    between atoms: C_12  and  N_14 
REMARK    6  A    between atoms: N_14  and  C_15 
REMARK    7  A    between atoms: C_20  and  C_21 
REMARK       I    between atoms: C_21  and  N_23 
REMARK    8  A    between atoms: N_23  and  C_24 
REMARK    9  A    between atoms: C_24  and  C_25 
ROOT
ATOM      1  N   UNL d   1      27.079 -14.803  -2.011  0.00  0.00    -0.332 N 
ATOM      2  H   UNL d   1      26.512 -14.310  -1.328  0.00  0.00     0.168 HD
ENDROOT
BRANCH   1   3
ATOM      3  C   UNL d   1      26.297 -15.483  -3.006  0.00  0.00     0.179 C 
ATOM      4  S   UNL d   1      26.586 -15.232  -4.653  0.00  0.00    -0.040 SA
BRANCH   3   5
ATOM      5  N   UNL d   1      25.207 -16.291  -2.424  0.00  0.00    -0.300 N 
ATOM      6  C   UNL d   1      24.926 -16.515  -1.028  0.00  0.00     0.247 C 
ATOM      7  O   UNL d   1      25.435 -15.843  -0.132  0.00  0.00    -0.268 OA
ATOM      8  H   UNL d   1      24.697 -16.870  -3.077  0.00  0.00     0.171 HD
BRANCH   6   9
ATOM      9  C   UNL d   1      24.025 -17.673  -0.568  0.00  0.00     0.075 C 
ATOM     10  C   UNL d   1      22.654 -17.583  -0.612  0.00  0.00     0.017 C 
BRANCH  10  11
ATOM     11  C   UNL d   1      21.635 -18.577  -0.226  0.00  0.00    -0.036 A 
ATOM     12  C   UNL d   1      21.348 -18.961   1.109  0.00  0.00     0.014 A 
ATOM     13  C   UNL d   1      20.206 -19.724   1.384  0.00  0.00     0.037 A 
ATOM     14  C   UNL d   1      19.333 -20.041   0.344  0.00  0.00     0.068 A 
ATOM     15  C   UNL d   1      19.656 -19.708  -0.968  0.00  0.00     0.037 A 
ATOM     16  C   UNL d   1      20.806 -19.005  -1.245  0.00  0.00     0.014 A 
BRANCH  14  17
ATOM     17  O   UNL d   1      18.128 -20.570   0.704  0.00  0.00    -0.356 OA
ATOM     18  C   UNL d   1      18.178 -21.947   1.047  0.00  0.00     0.210 C 
ENDBRANCH  14  17
ENDBRANCH  10  11
ENDBRANCH   6   9
ENDBRANCH   3   5
ENDBRANCH   1   3
BRANCH   1  19
ATOM     19  C   UNL d   1      28.271 -15.412  -1.390  0.00  0.00     0.050 A 
ATOM     20  C   UNL d   1      29.039 -16.325  -2.159  0.00  0.00     0.030 A 
ATOM     21  C   UNL d   1      30.157 -16.999  -1.622  0.00  0.00     0.002 A 
ATOM     22  C   UNL d   1      30.573 -16.737  -0.325  0.00  0.00     0.001 A 
ATOM     23  C   UNL d   1      29.847 -15.829   0.446  0.00  0.00     0.019 A 
ATOM     24  C   UNL d   1      28.690 -15.167  -0.052  0.00  0.00     0.058 A 
BRANCH  24  25
ATOM     25  C   UNL d   1      28.007 -14.259   0.929  0.00  0.00     0.254 C 
ATOM     26  O   UNL d   1      27.251 -13.354   0.518  0.00  0.00    -0.268 OA
ATOM     27  N   UNL d   1      28.219 -14.448   2.269  0.00  0.00    -0.354 N 
ATOM     28  H   UNL d   1      28.776 -15.253   2.517  0.00  0.00     0.162 HD
BRANCH  27  29
ATOM     29  C   UNL d   1      27.347 -13.833   3.270  0.00  0.00     0.155 C 
BRANCH  29  30
ATOM     30  C   UNL d   1      27.723 -14.168   4.702  0.00  0.00     0.139 C 
ATOM     31  C   UNL d   1      28.420 -12.963   5.257  0.00  0.00     0.035 C 
ATOM     32  C   UNL d   1      29.101 -13.571   6.407  0.00  0.00     0.029 C 
ATOM     33  C   UNL d   1      29.655 -14.833   5.881  0.00  0.00     0.168 C 
ATOM     34  O   UNL d   1      28.689 -15.237   4.874  0.00  0.00    -0.384 OA
ENDBRANCH  29  30
ENDBRANCH  27  29
ENDBRANCH  24  25
ENDBRANCH   1  19
TORSDOF 9
ENDMDL
MODEL 5
REMARK VINA RESULT:    -8.353      2.645      5.322
REMARK INTER + INTRA:         -13.363
REMARK INTER:                 -11.038
REMARK INTRA:                  -2.325
REMARK CONF_INDEPENDENT:        2.685
REMARK UNBOUND:                -2.325
REMARK  9 active torsions:
REMARK  status: ('A' for Active; 'I' for Inactive)
REMARK    1  A    between atoms: O_2  and  C_3 
REMARK    2  A    between atoms: C_6  and  C_7 
REMARK    3  A    between atoms: C_8  and  C_9 
REMARK       I    between atoms: C_9  and  N_11 
REMARK    4  A    between atoms: N_11  and  C_12 
REMARK    5  A    between atoms: C_12  and  N_14 
REMARK    6  A    between atoms: N_14  and  C_15 
REMARK    7  A    between atoms: C_20  and  C_21 
REMARK       I    between atoms: C_21  and  N_23 
REMARK    8  A    between atoms: N_23  and  C_24 
REMARK    9  A    between atoms: C_24  and  C_25 
ROOT
ATOM      1  N   UNL d   1      27.629 -17.647  -0.762  0.00  0.00    -0.332 N 
ATOM      2  H   UNL d   1      27.907 -18.548  -0.383  0.00  0.00     0.168 HD
ENDROOT
BRANCH   1   3
ATOM      3  C   UNL d   1      28.538 -16.589  -0.418  0.00  0.00     0.179 C 
ATOM      4  S   UNL d   1      29.891 -16.266  -1.379  0.00  0.00    -0.040 SA
BRANCH   3   5
ATOM      5  N   UNL d   1      28.203 -15.941   0.865  0.00  0.00    -0.300 N 
ATOM      6  C   UNL d   1      27.372 -14.782   1.076  0.00  0.00     0.247 C 
ATOM      7  O   UNL d   1      26.630 -14.330   0.206  0.00  0.00    -0.268 OA
ATOM      8  H   UNL d   1      28.738 -16.253   1.664  0.00  0.00     0.171 HD
BRANCH   6   9
ATOM      9  C   UNL d   1      27.426 -13.986   2.391  0.00  0.00     0.075 C 
ATOM     10  C   UNL d   1      28.326 -14.293   3.384  0.00  0.00     0.017 C 
BRANCH  10  11
ATOM     11  C   UNL d   1      28.531 -13.649   4.695  0.00  0.00    -0.036 A 
ATOM     12  C   UNL d   1      28.127 -12.328   5.018  0.00  0.00     0.014 A 
ATOM     13  C   UNL d   1      28.147 -11.900   6.351  0.00  0.00     0.037 A 
ATOM     14  C   UNL d   1      28.505 -12.803   7.351  0.00  0.00     0.068 A 
ATOM     15  C   UNL d   1      28.954 -14.078   7.016  0.00  0.00     0.037 A 
ATOM     16  C   UNL d   1      28.986 -14.481   5.700  0.00  0.00     0.014 A 
BRANCH  14  17
ATOM     17  O   UNL d   1      28.275 -12.409   8.637  0.00  0.00    -0.356 OA
ATOM     18  C   UNL d   1      28.534 -13.414   9.606  0.00  0.00     0.210 C 
ENDBRANCH  14  17
ENDBRANCH  10  11
ENDBRANCH   6   9
ENDBRANCH   3   5
ENDBRANCH   1   3
BRANCH   1  19
ATOM     19  C   UNL d   1      26.164 -17.473  -0.730  0.00  0.00     0.050 A 
ATOM     20  C   UNL d   1      25.424 -18.174   0.258  0.00  0.00     0.030 A 
ATOM     21  C   UNL d   1      24.016 -18.113   0.321  0.00  0.00     0.002 A 
ATOM     22  C   UNL d   1      23.312 -17.307  -0.563  0.00  0.00     0.001 A 
ATOM     23  C   UNL d   1      24.017 -16.593  -1.532  0.00  0.00     0.019 A 
ATOM     24  C   UNL d   1      25.433 -16.668  -1.648  0.00  0.00     0.058 A 
BRANCH  24  25
ATOM     25  C   UNL d   1      26.020 -15.870  -2.776  0.00  0.00     0.254 C 
ATOM     26  O   UNL d   1      25.527 -15.955  -3.921  0.00  0.00    -0.268 OA
ATOM     27  N   UNL d   1      27.088 -15.050  -2.526  0.00  0.00    -0.354 N 
ATOM     28  H   UNL d   1      27.369 -14.977  -1.558  0.00  0.00     0.162 HD
BRANCH  27  29
ATOM     29  C   UNL d   1      27.489 -14.014  -3.477  0.00  0.00     0.155 C 
BRANCH  29  30
ATOM     30  C   UNL d   1      28.454 -14.499  -4.544  0.00  0.00     0.139 C 
ATOM     31  C   UNL d   1      29.057 -13.277  -5.166  0.00  0.00     0.035 C 
ATOM     32  C   UNL d   1      29.569 -13.854  -6.415  0.00  0.00     0.029 C 
ATOM     33  C   UNL d   1      28.477 -14.724  -6.892  0.00  0.00     0.168 C 
ATOM     34  O   UNL d   1      27.862 -15.203  -5.667  0.00  0.00    -0.384 OA
ENDBRANCH  29  30
ENDBRANCH  27  29
ENDBRANCH  24  25
ENDBRANCH   1  19
TORSDOF 9
ENDMDL
MODEL 6
REMARK VINA RESULT:    -8.253      5.978      8.882
REMARK INTER + INTRA:         -13.878
REMARK INTER:                 -10.938
REMARK INTRA:                  -2.941
REMARK CONF_INDEPENDENT:        2.685
REMARK UNBOUND:                -2.941
REMARK  9 active torsions:
REMARK  status: ('A' for Active; 'I' for Inactive)
REMARK    1  A    between atoms: O_2  and  C_3 
REMARK    2  A    between atoms: C_6  and  C_7 
REMARK    3  A    between atoms: C_8  and  C_9 
REMARK       I    between atoms: C_9  and  N_11 
REMARK    4  A    between atoms: N_11  and  C_12 
REMARK    5  A    between atoms: C_12  and  N_14 
REMARK    6  A    between atoms: N_14  and  C_15 
REMARK    7  A    between atoms: C_20  and  C_21 
REMARK       I    between atoms: C_21  and  N_23 
REMARK    8  A    between atoms: N_23  and  C_24 
REMARK    9  A    between atoms: C_24  and  C_25 
ROOT
ATOM      1  N   UNL d   1      31.878 -18.157  -1.601  0.00  0.00    -0.332 N 
ATOM      2  H   UNL d   1      32.445 -18.758  -1.009  0.00  0.00     0.168 HD
ENDROOT
BRANCH   1   3
ATOM      3  C   UNL d   1      31.067 -17.236  -0.854  0.00  0.00     0.179 C 
ATOM      4  S   UNL d   1      31.745 -15.850  -0.164  0.00  0.00    -0.040 SA
BRANCH   3   5
ATOM      5  N   UNL d   1      29.675 -17.699  -0.694  0.00  0.00    -0.300 N 
ATOM      6  C   UNL d   1      28.470 -17.031  -1.117  0.00  0.00     0.247 C 
ATOM      7  O   UNL d   1      28.477 -16.080  -1.897  0.00  0.00    -0.268 OA
ATOM      8  H   UNL d   1      29.548 -18.499  -0.088  0.00  0.00     0.171 HD
BRANCH   6   9
ATOM      9  C   UNL d   1      27.095 -17.420  -0.548  0.00  0.00     0.075 C 
ATOM     10  C   UNL d   1      25.926 -17.063  -1.177  0.00  0.00     0.017 C 
BRANCH  10  11
ATOM     11  C   UNL d   1      24.530 -17.346  -0.793  0.00  0.00    -0.036 A 
ATOM     12  C   UNL d   1      23.472 -16.403  -0.845  0.00  0.00     0.014 A 
ATOM     13  C   UNL d   1      22.148 -16.833  -0.695  0.00  0.00     0.037 A 
ATOM     14  C   UNL d   1      21.886 -18.196  -0.558  0.00  0.00     0.068 A 
ATOM     15  C   UNL d   1      22.936 -19.104  -0.451  0.00  0.00     0.037 A 
ATOM     16  C   UNL d   1      24.240 -18.674  -0.545  0.00  0.00     0.014 A 
BRANCH  14  17
ATOM     17  O   UNL d   1      20.580 -18.576  -0.659  0.00  0.00    -0.356 OA
ATOM     18  C   UNL d   1      20.188 -19.559   0.288  0.00  0.00     0.210 C 
ENDBRANCH  14  17
ENDBRANCH  10  11
ENDBRANCH   6   9
ENDBRANCH   3   5
ENDBRANCH   1   3
BRANCH   1  19
ATOM     19  C   UNL d   1      31.370 -18.883  -2.781  0.00  0.00     0.050 A 
ATOM     20  C   UNL d   1      31.359 -20.301  -2.746  0.00  0.00     0.030 A 
ATOM     21  C   UNL d   1      30.948 -21.073  -3.854  0.00  0.00     0.002 A 
ATOM     22  C   UNL d   1      30.483 -20.451  -5.004  0.00  0.00     0.001 A 
ATOM     23  C   UNL d   1      30.466 -19.058  -5.057  0.00  0.00     0.019 A 
ATOM     24  C   UNL d   1      30.915 -18.252  -3.973  0.00  0.00     0.058 A 
BRANCH  24  25
ATOM     25  C   UNL d   1      30.868 -16.773  -4.221  0.00  0.00     0.254 C 
ATOM     26  O   UNL d   1      31.912 -16.160  -4.530  0.00  0.00    -0.268 OA
ATOM     27  N   UNL d   1      29.671 -16.117  -4.112  0.00  0.00    -0.354 N 
ATOM     28  H   UNL d   1      28.864 -16.701  -3.942  0.00  0.00     0.162 HD
BRANCH  27  29
ATOM     29  C   UNL d   1      29.490 -14.770  -4.654  0.00  0.00     0.155 C 
BRANCH  29  30
ATOM     30  C   UNL d   1      28.095 -14.504  -5.189  0.00  0.00     0.139 C 
ATOM     31  C   UNL d   1      27.486 -13.460  -4.303  0.00  0.00     0.035 C 
ATOM     32  C   UNL d   1      26.067 -13.645  -4.631  0.00  0.00     0.029 C 
ATOM     33  C   UNL d   1      25.881 -15.109  -4.644  0.00  0.00     0.168 C 
ATOM     34  O   UNL d   1      27.160 -15.612  -5.112  0.00  0.00    -0.384 OA
ENDBRANCH  29  30
ENDBRANCH  27  29
ENDBRANCH  24  25
ENDBRANCH   1  19
TORSDOF 9
ENDMDL
MODEL 7
REMARK VINA RESULT:    -7.506      3.587      8.091
REMARK INTER + INTRA:         -13.275
REMARK INTER:                 -10.191
REMARK INTRA:                  -3.084
REMARK CONF_INDEPENDENT:        2.685
REMARK UNBOUND:                -3.084
REMARK  9 active torsions:
REMARK  status: ('A' for Active; 'I' for Inactive)
REMARK    1  A    between atoms: O_2  and  C_3 
REMARK    2  A    between atoms: C_6  and  C_7 
REMARK    3  A    between atoms: C_8  and  C_9 
REMARK       I    between atoms: C_9  and  N_11 
REMARK    4  A    between atoms: N_11  and  C_12 
REMARK    5  A    between atoms: C_12  and  N_14 
REMARK    6  A    between atoms: N_14  and  C_15 
REMARK    7  A    between atoms: C_20  and  C_21 
REMARK       I    between atoms: C_21  and  N_23 
REMARK    8  A    between atoms: N_23  and  C_24 
REMARK    9  A    between atoms: C_24  and  C_25 
ROOT
ATOM      1  N   UNL d   1      30.440 -13.853   0.821  0.00  0.00    -0.332 N 
ATOM      2  H   UNL d   1      30.534 -13.231   0.024  0.00  0.00     0.168 HD
ENDROOT
BRANCH   1   3
ATOM      3  C   UNL d   1      30.888 -15.190   0.546  0.00  0.00     0.179 C 
ATOM      4  S   UNL d   1      32.517 -15.506   0.221  0.00  0.00    -0.040 SA
BRANCH   3   5
ATOM      5  N   UNL d   1      29.781 -16.164   0.484  0.00  0.00    -0.300 N 
ATOM      6  C   UNL d   1      28.829 -16.349  -0.582  0.00  0.00     0.247 C 
ATOM      7  O   UNL d   1      28.983 -15.862  -1.701  0.00  0.00    -0.268 OA
ATOM      8  H   UNL d   1      29.577 -16.649   1.348  0.00  0.00     0.171 HD
BRANCH   6   9
ATOM      9  C   UNL d   1      27.511 -17.108  -0.357  0.00  0.00     0.075 C 
ATOM     10  C   UNL d   1      26.291 -16.526  -0.610  0.00  0.00     0.017 C 
BRANCH  10  11
ATOM     11  C   UNL d   1      24.935 -17.088  -0.464  0.00  0.00    -0.036 A 
ATOM     12  C   UNL d   1      23.735 -16.345  -0.596  0.00  0.00     0.014 A 
ATOM     13  C   UNL d   1      22.507 -17.013  -0.682  0.00  0.00     0.037 A 
ATOM     14  C   UNL d   1      22.491 -18.407  -0.698  0.00  0.00     0.068 A 
ATOM     15  C   UNL d   1      23.669 -19.124  -0.510  0.00  0.00     0.037 A 
ATOM     16  C   UNL d   1      24.870 -18.466  -0.372  0.00  0.00     0.014 A 
BRANCH  14  17
ATOM     17  O   UNL d   1      21.305 -18.997  -1.024  0.00  0.00    -0.356 OA
ATOM     18  C   UNL d   1      20.516 -19.371   0.096  0.00  0.00     0.210 C 
ENDBRANCH  14  17
ENDBRANCH  10  11
ENDBRANCH   6   9
ENDBRANCH   3   5
ENDBRANCH   1   3
BRANCH   1  19
ATOM     19  C   UNL d   1      29.210 -13.573   1.586  0.00  0.00     0.050 A 
ATOM     20  C   UNL d   1      29.216 -13.817   2.984  0.00  0.00     0.030 A 
ATOM     21  C   UNL d   1      28.065 -13.635   3.780  0.00  0.00     0.002 A 
ATOM     22  C   UNL d   1      26.895 -13.150   3.213  0.00  0.00     0.001 A 
ATOM     23  C   UNL d   1      26.868 -12.883   1.845  0.00  0.00     0.019 A 
ATOM     24  C   UNL d   1      27.999 -13.098   1.008  0.00  0.00     0.058 A 
BRANCH  24  25
ATOM     25  C   UNL d   1      27.777 -12.801  -0.446  0.00  0.00     0.254 C 
ATOM     26  O   UNL d   1      28.756 -12.619  -1.200  0.00  0.00    -0.268 OA
ATOM     27  N   UNL d   1      26.495 -12.745  -0.926  0.00  0.00    -0.354 N 
ATOM     28  H   UNL d   1      25.769 -12.988  -0.268  0.00  0.00     0.162 HD
BRANCH  27  29
ATOM     29  C   UNL d   1      26.219 -12.793  -2.362  0.00  0.00     0.155 C 
BRANCH  29  30
ATOM     30  C   UNL d   1      26.163 -14.198  -2.931  0.00  0.00     0.139 C 
ATOM     31  C   UNL d   1      27.451 -14.417  -3.666  0.00  0.00     0.035 C 
ATOM     32  C   UNL d   1      27.073 -15.559  -4.507  0.00  0.00     0.029 C 
ATOM     33  C   UNL d   1      25.733 -15.211  -5.018  0.00  0.00     0.168 C 
ATOM     34  O   UNL d   1      25.146 -14.438  -3.938  0.00  0.00    -0.384 OA
ENDBRANCH  29  30
ENDBRANCH  27  29
ENDBRANCH  24  25
ENDBRANCH   1  19
TORSDOF 9
ENDMDL
MODEL 8
REMARK VINA RESULT:    -7.384      2.341      3.620
REMARK INTER + INTRA:         -13.667
REMARK INTER:                 -10.069
REMARK INTRA:                  -3.598
REMARK CONF_INDEPENDENT:        2.685
REMARK UNBOUND:                -3.598
REMARK  9 active torsions:
REMARK  status: ('A' for Active; 'I' for Inactive)
REMARK    1  A    between atoms: O_2  and  C_3 
REMARK    2  A    between atoms: C_6  and  C_7 
REMARK    3  A    between atoms: C_8  and  C_9 
REMARK       I    between atoms: C_9  and  N_11 
REMARK    4  A    between atoms: N_11  and  C_12 
REMARK    5  A    between atoms: C_12  and  N_14 
REMARK    6  A    between atoms: N_14  and  C_15 
REMARK    7  A    between atoms: C_20  and  C_21 
REMARK       I    between atoms: C_21  and  N_23 
REMARK    8  A    between atoms: N_23  and  C_24 
REMARK    9  A    between atoms: C_24  and  C_25 
ROOT
ATOM      1  N   UNL d   1      28.154 -16.509  -1.932  0.00  0.00    -0.332 N 
ATOM      2  H   UNL d   1      27.202 -16.438  -1.586  0.00  0.00     0.168 HD
ENDROOT
BRANCH   1   3
ATOM      3  C   UNL d   1      29.113 -16.757  -0.891  0.00  0.00     0.179 C 
ATOM      4  S   UNL d   1      30.437 -17.773  -1.160  0.00  0.00    -0.040 SA
BRANCH   3   5
ATOM      5  N   UNL d   1      28.741 -16.129   0.392  0.00  0.00    -0.300 N 
ATOM      6  C   UNL d   1      27.793 -15.065   0.609  0.00  0.00     0.247 C 
ATOM      7  O   UNL d   1      26.985 -14.711  -0.248  0.00  0.00    -0.268 OA
ATOM      8  H   UNL d   1      29.326 -16.369   1.181  0.00  0.00     0.171 HD
BRANCH   6   9
ATOM      9  C   UNL d   1      27.791 -14.248   1.911  0.00  0.00     0.075 C 
ATOM     10  C   UNL d   1      28.080 -14.823   3.126  0.00  0.00     0.017 C 
BRANCH  10  11
ATOM     11  C   UNL d   1      28.134 -14.209   4.466  0.00  0.00    -0.036 A 
ATOM     12  C   UNL d   1      28.685 -14.829   5.616  0.00  0.00     0.014 A 
ATOM     13  C   UNL d   1      28.908 -14.075   6.775  0.00  0.00     0.037 A 
ATOM     14  C   UNL d   1      28.642 -12.707   6.758  0.00  0.00     0.068 A 
ATOM     15  C   UNL d   1      28.048 -12.122   5.643  0.00  0.00     0.037 A 
ATOM     16  C   UNL d   1      27.778 -12.875   4.523  0.00  0.00     0.014 A 
BRANCH  14  17
ATOM     17  O   UNL d   1      29.101 -11.985   7.821  0.00  0.00    -0.356 OA
ATOM     18  C   UNL d   1      29.716 -12.770   8.832  0.00  0.00     0.210 C 
ENDBRANCH  14  17
ENDBRANCH  10  11
ENDBRANCH   6   9
ENDBRANCH   3   5
ENDBRANCH   1   3
BRANCH   1  19
ATOM     19  C   UNL d   1      28.407 -15.555  -3.029  0.00  0.00     0.050 A 
ATOM     20  C   UNL d   1      29.752 -15.241  -3.352  0.00  0.00     0.030 A 
ATOM     21  C   UNL d   1      30.081 -14.293  -4.344  0.00  0.00     0.002 A 
ATOM     22  C   UNL d   1      29.079 -13.676  -5.080  0.00  0.00     0.001 A 
ATOM     23  C   UNL d   1      27.749 -13.981  -4.795  0.00  0.00     0.019 A 
ATOM     24  C   UNL d   1      27.384 -14.900  -3.771  0.00  0.00     0.058 A 
BRANCH  24  25
ATOM     25  C   UNL d   1      25.907 -15.073  -3.572  0.00  0.00     0.254 C 
ATOM     26  O   UNL d   1      25.157 -15.211  -4.562  0.00  0.00    -0.268 OA
ATOM     27  N   UNL d   1      25.404 -15.086  -2.298  0.00  0.00    -0.354 N 
ATOM     28  H   UNL d   1      26.088 -15.054  -1.555  0.00  0.00     0.162 HD
BRANCH  27  29
ATOM     29  C   UNL d   1      24.054 -15.575  -2.019  0.00  0.00     0.155 C 
BRANCH  29  30
ATOM     30  C   UNL d   1      24.006 -17.016  -1.545  0.00  0.00     0.139 C 
ATOM     31  C   UNL d   1      23.076 -17.053  -0.372  0.00  0.00     0.035 C 
ATOM     32  C   UNL d   1      23.479 -18.329   0.232  0.00  0.00     0.029 C 
ATOM     33  C   UNL d   1      24.954 -18.307   0.187  0.00  0.00     0.168 C 
ATOM     34  O   UNL d   1      25.247 -17.556  -1.020  0.00  0.00    -0.384 OA
ENDBRANCH  29  30
ENDBRANCH  27  29
ENDBRANCH  24  25
ENDBRANCH   1  19
TORSDOF 9
ENDMDL
MODEL 9
REMARK VINA RESULT:    -7.380      2.294      5.206
REMARK INTER + INTRA:         -13.204
REMARK INTER:                 -10.064
REMARK INTRA:                  -3.140
REMARK CONF_INDEPENDENT:        2.685
REMARK UNBOUND:                -3.140
REMARK  9 active torsions:
REMARK  status: ('A' for Active; 'I' for Inactive)
REMARK    1  A    between atoms: O_2  and  C_3 
REMARK    2  A    between atoms: C_6  and  C_7 
REMARK    3  A    between atoms: C_8  and  C_9 
REMARK       I    between atoms: C_9  and  N_11 
REMARK    4  A    between atoms: N_11  and  C_12 
REMARK    5  A    between atoms: C_12  and  N_14 
REMARK    6  A    between atoms: N_14  and  C_15 
REMARK    7  A    between atoms: C_20  and  C_21 
REMARK       I    between atoms: C_21  and  N_23 
REMARK    8  A    between atoms: N_23  and  C_24 
REMARK    9  A    between atoms: C_24  and  C_25 
ROOT
ATOM      1  N   UNL d   1      27.294 -17.415  -1.088  0.00  0.00    -0.332 N 
ATOM      2  H   UNL d   1      27.657 -18.295  -0.733  0.00  0.00     0.168 HD
ENDROOT
BRANCH   1   3
ATOM      3  C   UNL d   1      28.184 -16.309  -0.865  0.00  0.00     0.179 C 
ATOM      4  S   UNL d   1      28.929 -15.524  -2.163  0.00  0.00    -0.040 SA
BRANCH   3   5
ATOM      5  N   UNL d   1      28.424 -16.047   0.568  0.00  0.00    -0.300 N 
ATOM      6  C   UNL d   1      27.835 -15.016   1.385  0.00  0.00     0.247 C 
ATOM      7  O   UNL d   1      26.854 -14.365   1.028  0.00  0.00    -0.268 OA
ATOM      8  H   UNL d   1      29.198 -16.550   0.980  0.00  0.00     0.171 HD
BRANCH   6   9
ATOM      9  C   UNL d   1      28.455 -14.609   2.732  0.00  0.00     0.075 C 
ATOM     10  C   UNL d   1      27.766 -13.844   3.643  0.00  0.00     0.017 C 
BRANCH  10  11
ATOM     11  C   UNL d   1      28.184 -13.364   4.973  0.00  0.00    -0.036 A 
ATOM     12  C   UNL d   1      27.899 -12.076   5.493  0.00  0.00     0.014 A 
ATOM     13  C   UNL d   1      28.126 -11.806   6.848  0.00  0.00     0.037 A 
ATOM     14  C   UNL d   1      28.572 -12.831   7.681  0.00  0.00     0.068 A 
ATOM     15  C   UNL d   1      28.904 -14.073   7.147  0.00  0.00     0.037 A 
ATOM     16  C   UNL d   1      28.731 -14.323   5.805  0.00  0.00     0.014 A 
BRANCH  14  17
ATOM     17  O   UNL d   1      28.544 -12.580   9.022  0.00  0.00    -0.356 OA
ATOM     18  C   UNL d   1      28.706 -13.736   9.831  0.00  0.00     0.210 C 
ENDBRANCH  14  17
ENDBRANCH  10  11
ENDBRANCH   6   9
ENDBRANCH   3   5
ENDBRANCH   1   3
BRANCH   1  19
ATOM     19  C   UNL d   1      25.836 -17.309  -0.889  0.00  0.00     0.050 A 
ATOM     20  C   UNL d   1      25.197 -18.273  -0.066  0.00  0.00     0.030 A 
ATOM     21  C   UNL d   1      23.799 -18.282   0.127  0.00  0.00     0.002 A 
ATOM     22  C   UNL d   1      23.009 -17.297  -0.447  0.00  0.00     0.001 A 
ATOM     23  C   UNL d   1      23.614 -16.326  -1.245  0.00  0.00     0.019 A 
ATOM     24  C   UNL d   1      25.015 -16.316  -1.494  0.00  0.00     0.058 A 
BRANCH  24  25
ATOM     25  C   UNL d   1      25.488 -15.227  -2.412  0.00  0.00     0.254 C 
ATOM     26  O   UNL d   1      25.154 -15.239  -3.616  0.00  0.00    -0.268 OA
ATOM     27  N   UNL d   1      26.274 -14.226  -1.907  0.00  0.00    -0.354 N 
ATOM     28  H   UNL d   1      26.425 -14.247  -0.908  0.00  0.00     0.162 HD
BRANCH  27  29
ATOM     29  C   UNL d   1      26.489 -12.982  -2.647  0.00  0.00     0.155 C 
BRANCH  29  30
ATOM     30  C   UNL d   1      27.063 -11.857  -1.805  0.00  0.00     0.139 C 
ATOM     31  C   UNL d   1      28.525 -11.785  -2.122  0.00  0.00     0.035 C 
ATOM     32  C   UNL d   1      29.001 -11.025  -0.959  0.00  0.00     0.029 C 
ATOM     33  C   UNL d   1      28.304 -11.638   0.189  0.00  0.00     0.168 C 
ATOM     34  O   UNL d   1      27.029 -12.055  -0.368  0.00  0.00    -0.384 OA
ENDBRANCH  29  30
ENDBRANCH  27  29
ENDBRANCH  24  25
ENDBRANCH   1  19
TORSDOF 9
ENDMDL
