MODEL 1
REMARK VINA RESULT:   -29.125      0.000      0.000
REMARK INTER + INTRA:         -33.454
REMARK INTER:                 -31.810
REMARK INTRA:                  -1.645
REMARK CONF_INDEPENDENT:        2.685
REMARK UNBOUND:                -1.645
REMARK  9 active torsions:
REMARK  status: ('A' for Active; 'I' for Inactive)
REMARK    1  A    between atoms: C_2  and  C_5 
REMARK    2  A    between atoms: C_7  and  N_8 
REMARK       I    between atoms: N_8  and  C_9 
REMARK       I    between atoms: C_9  and  N_11 
REMARK    3  A    between atoms: N_11  and  C_12 
REMARK    4  A    between atoms: C_12  and  C_13 
REMARK    5  A    between atoms: C_15  and  C_12 
REMARK    6  A    between atoms: C_13  and  O_14 
REMARK    7  A    between atoms: C_15  and  C_17 
REMARK    8  A    between atoms: C_15  and  O_16 
REMARK    9  A    between atoms: C_20  and  N_21 
ROOT
ATOM      1  C   UNK d   1      25.306 -16.945  -1.296  0.00  0.00     0.143 C 
ENDROOT
BRANCH   1   2
ATOM      2  N   UNK d   1      24.233 -17.893  -1.769  0.00  0.00    -0.333 N 
ATOM      3  C   UNK d   0      23.262 -18.416  -0.941  0.00  0.00     0.322 C 
ATOM      4  N   UNK d   0      22.150 -18.959  -1.568  0.00  0.00    -0.291 N 
ATOM      5  O   UNK d   0      23.318 -18.281   0.256  0.00  0.00    -0.247 OA
ATOM      6  H   UNK d   0      22.234 -19.549  -2.379  0.00  0.00     0.172 HD
ATOM      7  H   UNK d   1      24.424 -18.399  -2.623  0.00  0.00     0.164 HD
BRANCH   4   8
ATOM      8  C   UNK d   0      20.962 -19.087  -0.829  0.00  0.00     0.161 A 
ATOM      9  C   UNK d   0      20.848 -19.745   0.405  0.00  0.00     0.088 A 
ATOM     10  C   UNK d   0      19.533 -19.747   0.760  0.00  0.00     0.090 A 
ATOM     11  O   UNK d   0      18.855 -19.033  -0.186  0.00  0.00    -0.215 OA
ATOM     12  N   UNK d   0      19.767 -18.580  -1.170  0.00  0.00    -0.110 NA
BRANCH  10  13
ATOM     13  C   UNK d   0      18.863 -20.454   1.916  0.00  0.00     0.000 C 
ATOM     14  C   UNK d   0      18.405 -21.850   1.436  0.00  0.00     0.021 C 
ATOM     15  C   UNK d   0      17.658 -19.700   2.480  0.00  0.00     0.021 C 
ATOM     16  C   UNK d   0      19.889 -20.665   3.057  0.00  0.00     0.021 C 
ENDBRANCH  10  13
ENDBRANCH   4   8
ENDBRANCH   1   2
BRANCH   1  17
ATOM     17  C   UNK d   1      25.912 -17.208   0.130  0.00  0.00     0.192 C 
BRANCH  17  18
ATOM     18  O   UNK d   1      25.978 -18.525   0.648  0.00  0.00    -0.399 OA
ATOM     19  H   UNK d   1      25.264 -19.050   0.266  0.00  0.00     0.209 HD
ENDBRANCH  17  18
ENDBRANCH   1  17
BRANCH   1  20
ATOM     20  C   UNK d   1      25.047 -15.394  -1.614  0.00  0.00     0.176 C 
BRANCH  20  21
ATOM     21  C   UNK d   1      25.941 -14.819  -2.709  0.00  0.00    -0.028 C 
ATOM     22  C   UNK d   1      25.474 -14.091  -3.812  0.00  0.00     0.012 C 
ATOM     23  C   UNK d   1      26.226 -14.040  -4.999  0.00  0.00     0.037 C 
ATOM     24  C   UNK d   1      27.457 -14.699  -5.068  0.00  0.00     0.102 C 
ATOM     25  C   UNK d   1      27.958 -15.329  -3.940  0.00  0.00     0.037 C 
ATOM     26  C   UNK d   1      27.264 -15.251  -2.734  0.00  0.00     0.012 C 
BRANCH  24  27
ATOM     27  N   UNK d   1      28.267 -14.689  -6.288  0.00  0.00    -0.116 N 
ATOM     28  O   UNK d   1      28.224 -13.671  -6.992  0.00  0.00    -0.532 OA
ATOM     29  O   UNK d   1      28.976 -15.679  -6.522  0.00  0.00    -0.532 OA
ENDBRANCH  24  27
ENDBRANCH  20  21
BRANCH  20  30
ATOM     30  O   UNK d   1      23.661 -15.215  -1.953  0.00  0.00    -0.389 OA
ATOM     31  H   UNK d   1      23.580 -14.431  -2.522  0.00  0.00     0.210 HD
ENDBRANCH  20  30
ENDBRANCH   1  20
TORSDOF 9
ENDMDL
MODEL 2
REMARK VINA RESULT:   -28.699      1.177      1.934
REMARK INTER + INTRA:         -32.392
REMARK INTER:                 -31.384
REMARK INTRA:                  -1.009
REMARK CONF_INDEPENDENT:        2.685
REMARK UNBOUND:                -1.009
REMARK  9 active torsions:
REMARK  status: ('A' for Active; 'I' for Inactive)
REMARK    1  A    between atoms: C_2  and  C_5 
REMARK    2  A    between atoms: C_7  and  N_8 
REMARK       I    between atoms: N_8  and  C_9 
REMARK       I    between atoms: C_9  and  N_11 
REMARK    3  A    between atoms: N_11  and  C_12 
REMARK    4  A    between atoms: C_12  and  C_13 
REMARK    5  A    between atoms: C_15  and  C_12 
REMARK    6  A    between atoms: C_13  and  O_14 
REMARK    7  A    between atoms: C_15  and  C_17 
REMARK    8  A    between atoms: C_15  and  O_16 
REMARK    9  A    between atoms: C_20  and  N_21 
ROOT
ATOM      1  C   UNK d   1      25.547 -16.982  -0.455  0.00  0.00     0.143 C 
ENDROOT
BRANCH   1   2
ATOM      2  N   UNK d   1      24.451 -17.725  -1.175  0.00  0.00    -0.333 N 
ATOM      3  C   UNK d   0      23.430 -18.389  -0.528  0.00  0.00     0.322 C 
ATOM      4  N   UNK d   0      22.318 -18.700  -1.297  0.00  0.00    -0.291 N 
ATOM      5  O   UNK d   0      23.450 -18.562   0.665  0.00  0.00    -0.247 OA
ATOM      6  H   UNK d   0      22.404 -19.071  -2.228  0.00  0.00     0.172 HD
ATOM      7  H   UNK d   1      24.649 -18.010  -2.125  0.00  0.00     0.164 HD
BRANCH   4   8
ATOM      8  C   UNK d   0      21.100 -18.950  -0.641  0.00  0.00     0.161 A 
ATOM      9  C   UNK d   0      20.969 -19.608   0.591  0.00  0.00     0.088 A 
ATOM     10  C   UNK d   0      19.640 -19.747   0.853  0.00  0.00     0.090 A 
ATOM     11  O   UNK d   0      18.959 -19.116  -0.148  0.00  0.00    -0.215 OA
ATOM     12  N   UNK d   0      19.886 -18.575  -1.072  0.00  0.00    -0.110 NA
BRANCH  10  13
ATOM     13  C   UNK d   0      18.968 -20.514   1.969  0.00  0.00     0.000 C 
ATOM     14  C   UNK d   0      17.769 -19.684   2.480  0.00  0.00     0.021 C 
ATOM     15  C   UNK d   0      19.896 -20.826   3.144  0.00  0.00     0.021 C 
ATOM     16  C   UNK d   0      18.411 -21.849   1.416  0.00  0.00     0.021 C 
ENDBRANCH  10  13
ENDBRANCH   4   8
ENDBRANCH   1   2
BRANCH   1  17
ATOM     17  C   UNK d   1      25.272 -15.476  -0.099  0.00  0.00     0.192 C 
BRANCH  17  18
ATOM     18  O   UNK d   1      26.321 -14.526  -0.143  0.00  0.00    -0.399 OA
ATOM     19  H   UNK d   1      27.115 -14.913   0.246  0.00  0.00     0.209 HD
ENDBRANCH  17  18
ENDBRANCH   1  17
BRANCH   1  20
ATOM     20  C   UNK d   1      27.035 -17.261  -0.984  0.00  0.00     0.176 C 
BRANCH  20  21
ATOM     21  C   UNK d   1      27.505 -16.303  -2.075  0.00  0.00    -0.028 C 
ATOM     22  C   UNK d   1      26.651 -15.511  -2.855  0.00  0.00     0.012 C 
ATOM     23  C   UNK d   1      27.057 -15.070  -4.127  0.00  0.00     0.037 C 
ATOM     24  C   UNK d   1      28.329 -15.402  -4.602  0.00  0.00     0.102 C 
ATOM     25  C   UNK d   1      29.204 -16.097  -3.783  0.00  0.00     0.037 C 
ATOM     26  C   UNK d   1      28.835 -16.406  -2.474  0.00  0.00     0.012 C 
BRANCH  24  27
ATOM     27  N   UNK d   1      28.789 -14.981  -5.927  0.00  0.00    -0.116 N 
ATOM     28  O   UNK d   1      28.042 -15.208  -6.887  0.00  0.00    -0.532 OA
ATOM     29  O   UNK d   1      29.876 -14.387  -6.003  0.00  0.00    -0.532 OA
ENDBRANCH  24  27
ENDBRANCH  20  21
BRANCH  20  30
ATOM     30  O   UNK d   1      27.939 -17.230   0.134  0.00  0.00    -0.389 OA
ATOM     31  H   UNK d   1      28.657 -17.865  -0.030  0.00  0.00     0.210 HD
ENDBRANCH  20  30
ENDBRANCH   1  20
TORSDOF 9
ENDMDL
MODEL 3
REMARK VINA RESULT:   -28.442      2.870      4.662
REMARK INTER + INTRA:         -32.325
REMARK INTER:                 -31.127
REMARK INTRA:                  -1.199
REMARK CONF_INDEPENDENT:        2.685
REMARK UNBOUND:                -1.199
REMARK  9 active torsions:
REMARK  status: ('A' for Active; 'I' for Inactive)
REMARK    1  A    between atoms: C_2  and  C_5 
REMARK    2  A    between atoms: C_7  and  N_8 
REMARK       I    between atoms: N_8  and  C_9 
REMARK       I    between atoms: C_9  and  N_11 
REMARK    3  A    between atoms: N_11  and  C_12 
REMARK    4  A    between atoms: C_12  and  C_13 
REMARK    5  A    between atoms: C_15  and  C_12 
REMARK    6  A    between atoms: C_13  and  O_14 
REMARK    7  A    between atoms: C_15  and  C_17 
REMARK    8  A    between atoms: C_15  and  O_16 
REMARK    9  A    between atoms: C_20  and  N_21 
ROOT
ATOM      1  C   UNK d   1      25.087 -16.453  -1.621  0.00  0.00     0.143 C 
ENDROOT
BRANCH   1   2
ATOM      2  N   UNK d   1      24.194 -17.642  -1.868  0.00  0.00    -0.333 N 
ATOM      3  C   UNK d   0      23.267 -18.100  -0.956  0.00  0.00     0.322 C 
ATOM      4  N   UNK d   0      22.283 -18.943  -1.452  0.00  0.00    -0.291 N 
ATOM      5  O   UNK d   0      23.236 -17.679   0.174  0.00  0.00    -0.247 OA
ATOM      6  H   UNK d   0      22.497 -19.687  -2.094  0.00  0.00     0.172 HD
ATOM      7  H   UNK d   1      24.503 -18.300  -2.571  0.00  0.00     0.164 HD
BRANCH   4   8
ATOM      8  C   UNK d   0      21.089 -19.078  -0.724  0.00  0.00     0.161 A 
ATOM      9  C   UNK d   0      20.966 -19.740   0.508  0.00  0.00     0.088 A 
ATOM     10  C   UNK d   0      19.648 -19.747   0.851  0.00  0.00     0.090 A 
ATOM     11  O   UNK d   0      18.976 -19.034  -0.100  0.00  0.00    -0.215 OA
ATOM     12  N   UNK d   0      19.895 -18.575  -1.075  0.00  0.00    -0.110 NA
BRANCH  10  13
ATOM     13  C   UNK d   0      18.970 -20.460   1.998  0.00  0.00     0.000 C 
ATOM     14  C   UNK d   0      17.782 -19.595   2.478  0.00  0.00     0.021 C 
ATOM     15  C   UNK d   0      19.898 -20.734   3.183  0.00  0.00     0.021 C 
ATOM     16  C   UNK d   0      18.396 -21.810   1.502  0.00  0.00     0.021 C 
ENDBRANCH  10  13
ENDBRANCH   4   8
ENDBRANCH   1   2
BRANCH   1  17
ATOM     17  C   UNK d   1      25.296 -15.457  -2.818  0.00  0.00     0.192 C 
BRANCH  17  18
ATOM     18  O   UNK d   1      24.405 -14.373  -3.011  0.00  0.00    -0.399 OA
ATOM     19  H   UNK d   1      24.389 -13.831  -2.212  0.00  0.00     0.209 HD
ENDBRANCH  17  18
ENDBRANCH   1  17
BRANCH   1  20
ATOM     20  C   UNK d   1      26.424 -16.756  -0.788  0.00  0.00     0.176 C 
BRANCH  20  21
ATOM     21  C   UNK d   1      26.978 -15.553  -0.030  0.00  0.00    -0.028 C 
ATOM     22  C   UNK d   1      28.072 -15.603   0.846  0.00  0.00     0.012 C 
ATOM     23  C   UNK d   1      28.208 -14.646   1.867  0.00  0.00     0.037 C 
ATOM     24  C   UNK d   1      27.261 -13.626   1.991  0.00  0.00     0.102 C 
ATOM     25  C   UNK d   1      26.241 -13.524   1.059  0.00  0.00     0.037 C 
ATOM     26  C   UNK d   1      26.201 -14.398  -0.027  0.00  0.00     0.012 C 
BRANCH  24  27
ATOM     27  N   UNK d   1      27.351 -12.618   3.050  0.00  0.00    -0.116 N 
ATOM     28  O   UNK d   1      26.928 -11.484   2.793  0.00  0.00    -0.532 OA
ATOM     29  O   UNK d   1      27.807 -12.969   4.149  0.00  0.00    -0.532 OA
ENDBRANCH  24  27
ENDBRANCH  20  21
BRANCH  20  30
ATOM     30  O   UNK d   1      26.172 -17.846   0.116  0.00  0.00    -0.389 OA
ATOM     31  H   UNK d   1      25.904 -17.480   0.975  0.00  0.00     0.210 HD
ENDBRANCH  20  30
ENDBRANCH   1  20
TORSDOF 9
ENDMDL
MODEL 4
REMARK VINA RESULT:   -27.933      1.810      2.335
REMARK INTER + INTRA:         -32.021
REMARK INTER:                 -30.618
REMARK INTRA:                  -1.403
REMARK CONF_INDEPENDENT:        2.685
REMARK UNBOUND:                -1.403
REMARK  9 active torsions:
REMARK  status: ('A' for Active; 'I' for Inactive)
REMARK    1  A    between atoms: C_2  and  C_5 
REMARK    2  A    between atoms: C_7  and  N_8 
REMARK       I    between atoms: N_8  and  C_9 
REMARK       I    between atoms: C_9  and  N_11 
REMARK    3  A    between atoms: N_11  and  C_12 
REMARK    4  A    between atoms: C_12  and  C_13 
REMARK    5  A    between atoms: C_15  and  C_12 
REMARK    6  A    between atoms: C_13  and  O_14 
REMARK    7  A    between atoms: C_15  and  C_17 
REMARK    8  A    between atoms: C_15  and  O_16 
REMARK    9  A    between atoms: C_20  and  N_21 
ROOT
ATOM      1  C   UNK d   1      25.477 -16.991  -0.829  0.00  0.00     0.143 C 
ENDROOT
BRANCH   1   2
ATOM      2  N   UNK d   1      24.383 -17.813  -1.463  0.00  0.00    -0.333 N 
ATOM      3  C   UNK d   0      23.372 -18.415  -0.745  0.00  0.00     0.322 C 
ATOM      4  N   UNK d   0      22.258 -18.812  -1.470  0.00  0.00    -0.291 N 
ATOM      5  O   UNK d   0      23.400 -18.466   0.460  0.00  0.00    -0.247 OA
ATOM      6  H   UNK d   0      22.342 -19.275  -2.359  0.00  0.00     0.172 HD
ATOM      7  H   UNK d   1      24.578 -18.191  -2.379  0.00  0.00     0.164 HD
BRANCH   4   8
ATOM      8  C   UNK d   0      21.046 -19.003  -0.784  0.00  0.00     0.161 A 
ATOM      9  C   UNK d   0      20.915 -19.650   0.454  0.00  0.00     0.088 A 
ATOM     10  C   UNK d   0      19.588 -19.728   0.748  0.00  0.00     0.090 A 
ATOM     11  O   UNK d   0      18.913 -19.070  -0.239  0.00  0.00    -0.215 OA
ATOM     12  N   UNK d   0      19.840 -18.575  -1.188  0.00  0.00    -0.110 NA
BRANCH  10  13
ATOM     13  C   UNK d   0      18.909 -20.460   1.884  0.00  0.00     0.000 C 
ATOM     14  C   UNK d   0      18.417 -21.828   1.360  0.00  0.00     0.021 C 
ATOM     15  C   UNK d   0      17.724 -19.699   2.481  0.00  0.00     0.021 C 
ATOM     16  C   UNK d   0      19.936 -20.732   3.010  0.00  0.00     0.021 C 
ENDBRANCH  10  13
ENDBRANCH   4   8
ENDBRANCH   1   2
BRANCH   1  17
ATOM     17  C   UNK d   1      25.047 -15.651  -0.130  0.00  0.00     0.192 C 
BRANCH  17  18
ATOM     18  O   UNK d   1      26.024 -14.709   0.274  0.00  0.00    -0.399 OA
ATOM     19  H   UNK d   1      25.740 -14.293   1.098  0.00  0.00     0.209 HD
ENDBRANCH  17  18
ENDBRANCH   1  17
BRANCH   1  20
ATOM     20  C   UNK d   1      26.834 -16.875  -1.677  0.00  0.00     0.176 C 
BRANCH  20  21
ATOM     21  C   UNK d   1      26.906 -15.648  -2.582  0.00  0.00    -0.028 C 
ATOM     22  C   UNK d   1      27.660 -14.500  -2.303  0.00  0.00     0.012 C 
ATOM     23  C   UNK d   1      27.302 -13.262  -2.864  0.00  0.00     0.037 C 
ATOM     24  C   UNK d   1      26.203 -13.184  -3.725  0.00  0.00     0.102 C 
ATOM     25  C   UNK d   1      25.527 -14.340  -4.076  0.00  0.00     0.037 C 
ATOM     26  C   UNK d   1      25.981 -15.577  -3.621  0.00  0.00     0.012 C 
BRANCH  24  27
ATOM     27  N   UNK d   1      25.781 -11.913  -4.319  0.00  0.00    -0.116 N 
ATOM     28  O   UNK d   1      25.552 -10.972  -3.547  0.00  0.00    -0.532 OA
ATOM     29  O   UNK d   1      25.719 -11.842  -5.555  0.00  0.00    -0.532 OA
ENDBRANCH  24  27
ENDBRANCH  20  21
BRANCH  20  30
ATOM     30  O   UNK d   1      27.951 -16.896  -0.771  0.00  0.00    -0.389 OA
ATOM     31  H   UNK d   1      27.787 -16.250  -0.063  0.00  0.00     0.210 HD
ENDBRANCH  20  30
ENDBRANCH   1  20
TORSDOF 9
ENDMDL
