MODEL 1
REMARK VINA RESULT:   -10.054      0.000      0.000
REMARK INTER + INTRA:         -15.597
REMARK INTER:                 -13.037
REMARK INTRA:                  -2.560
REMARK CONF_INDEPENDENT:        2.983
REMARK UNBOUND:                -2.560
REMARK  10 active torsions:
REMARK  status: ('A' for Active; 'I' for Inactive)
REMARK    1  A    between atoms: C_2  and  O_3 
REMARK    2  A    between atoms: O_3  and  C_4 
REMARK    3  A    between atoms: C_4  and  C_6 
REMARK    4  A    between atoms: C_6  and  N_7 
REMARK    5  A    between atoms: C_11  and  C_12 
REMARK    6  A    between atoms: C_12  and  C_13 
REMARK    7  A    between atoms: C_12  and  N_15 
REMARK    8  A    between atoms: N_15  and  C_16 
REMARK    9  A    between atoms: N_15  and  C_30 
REMARK   10  A    between atoms: C_16  and  C_17 
ROOT
ATOM      1  N   UNL d   1      27.769 -15.401  -0.582  0.00  0.00    -0.052 N 
ATOM      2  H   UNL d   1      28.034 -15.532  -1.565  0.00  0.00     0.281 HD
ENDROOT
BRANCH   1   3
ATOM      3  C   UNL d   1      26.492 -16.046  -0.381  0.00  0.00     0.260 C 
BRANCH   3   4
ATOM      4  C   UNL d   1      25.718 -15.689  -1.483  0.00  0.00     0.174 A 
ATOM      5  N   UNL d   1      26.211 -15.264  -2.625  0.00  0.00    -0.117 NA
ATOM      6  N   UNL d   1      25.192 -14.856  -3.353  0.00  0.00    -0.052 NA
ATOM      7  N   UNL d   1      24.068 -15.000  -2.662  0.00  0.00     0.027 NA
ATOM      8  N   UNL d   1      24.317 -15.714  -1.223  0.00  0.00    -0.247 N 
BRANCH   8   9
ATOM      9  C   UNL d   1      23.278 -17.102  -0.287  0.00  0.00     0.259 C 
BRANCH   9  10
ATOM     10  C   UNL d   1      21.970 -18.290  -1.039  0.00  0.00     0.278 C 
ATOM     11  O   UNL d   1      22.236 -19.324  -1.700  0.00  0.00    -0.263 OA
BRANCH  10  12
ATOM     12  O   UNL d   1      20.665 -18.162  -0.895  0.00  0.00    -0.321 OA
BRANCH  12  13
ATOM     13  C   UNL d   1      20.124 -19.542  -1.050  0.00  0.00     0.174 C 
ATOM     14  C   UNL d   1      19.208 -19.681   0.080  0.00  0.00     0.034 C 
ENDBRANCH  12  13
ENDBRANCH  10  12
ENDBRANCH   9  10
ENDBRANCH   8   9
ENDBRANCH   3   4
BRANCH   3  15
ATOM     15  C   UNL d   1      26.635 -17.507  -0.513  0.00  0.00     0.037 C 
ATOM     16  C   UNL d   1      26.154 -18.200   0.706  0.00  0.00     0.007 C 
ENDBRANCH   3  15
ENDBRANCH   1   3
BRANCH   1  17
ATOM     17  C   UNL d   1      27.421 -14.006  -0.066  0.00  0.00     0.279 C 
BRANCH  17  18
ATOM     18  C   UNL d   1      27.511 -13.513   1.801  0.00  0.00     0.031 C 
ATOM     19  C   UNL d   1      27.433 -14.418   2.786  0.00  0.00     0.027 C 
ATOM     20  C   UNL d   1      27.894 -14.018   4.077  0.00  0.00    -0.013 C 
ATOM     21  C   UNL d   1      28.082 -14.993   4.990  0.00  0.00     0.014 C 
ATOM     22  C   UNL d   1      28.192 -12.719   4.452  0.00  0.00     0.032 C 
ATOM     23  C   UNL d   1      28.636 -14.566   6.162  0.00  0.00     0.008 C 
ATOM     24  C   UNL d   1      28.550 -13.196   6.519  0.00  0.00    -0.054 C 
ATOM     25  C   UNL d   1      28.681 -12.714   7.883  0.00  0.00     0.049 C 
ATOM     26  C   UNL d   1      28.254 -12.205   5.652  0.00  0.00    -0.034 C 
ATOM     27  C   UNL d   1      28.155 -10.709   5.790  0.00  0.00     0.050 C 
ATOM     28  N   UNL d   1      28.717 -11.819   3.635  0.00  0.00    -0.224 NA
ATOM     29  C   UNL d   1      28.509 -12.038   2.468  0.00  0.00     0.233 C 
ATOM     30  H   UNL d   1      28.600 -10.802   3.663  0.00  0.00     0.137 HD
ATOM     31  O   UNL d   1      28.921 -10.930   1.959  0.00  0.00    -0.274 OA
ENDBRANCH  17  18
ENDBRANCH   1  17
BRANCH   1  32
ATOM     32  C   UNL d   1      28.987 -15.978   0.037  0.00  0.00     0.189 C 
ATOM     33  C   UNL d   1      29.480 -16.920  -1.025  0.00  0.00     0.033 C 
ATOM     34  C   UNL d   1      30.884 -17.310  -0.829  0.00  0.00     0.002 C 
ATOM     35  C   UNL d   1      31.718 -16.057  -0.652  0.00  0.00     0.000 C 
ATOM     36  C   UNL d   1      31.297 -15.249   0.579  0.00  0.00     0.002 C 
ATOM     37  C   UNL d   1      29.863 -14.822   0.522  0.00  0.00     0.033 C 
ENDBRANCH   1  32
TORSDOF 10
ENDMDL
MODEL 2
REMARK VINA RESULT:    -9.382      5.650      9.119
REMARK INTER + INTRA:         -15.109
REMARK INTER:                 -12.365
REMARK INTRA:                  -2.744
REMARK CONF_INDEPENDENT:        2.983
REMARK UNBOUND:                -2.744
REMARK  10 active torsions:
REMARK  status: ('A' for Active; 'I' for Inactive)
REMARK    1  A    between atoms: C_2  and  O_3 
REMARK    2  A    between atoms: O_3  and  C_4 
REMARK    3  A    between atoms: C_4  and  C_6 
REMARK    4  A    between atoms: C_6  and  N_7 
REMARK    5  A    between atoms: C_11  and  C_12 
REMARK    6  A    between atoms: C_12  and  C_13 
REMARK    7  A    between atoms: C_12  and  N_15 
REMARK    8  A    between atoms: N_15  and  C_16 
REMARK    9  A    between atoms: N_15  and  C_30 
REMARK   10  A    between atoms: C_16  and  C_17 
ROOT
ATOM      1  N   UNL d   1      31.170 -20.444  -0.588  0.00  0.00    -0.052 N 
ATOM      2  H   UNL d   1      30.286 -20.931  -0.774  0.00  0.00     0.281 HD
ENDROOT
BRANCH   1   3
ATOM      3  C   UNL d   1      31.725 -20.991   0.628  0.00  0.00     0.260 C 
BRANCH   3   4
ATOM      4  C   UNL d   1      30.681 -21.685   1.234  0.00  0.00     0.174 A 
ATOM      5  N   UNL d   1      29.854 -22.481   0.595  0.00  0.00    -0.117 NA
ATOM      6  N   UNL d   1      28.905 -22.810   1.447  0.00  0.00    -0.052 NA
ATOM      7  N   UNL d   1      29.119 -22.201   2.607  0.00  0.00     0.027 NA
ATOM      8  N   UNL d   1      30.510 -21.361   2.612  0.00  0.00    -0.247 N 
BRANCH   8   9
ATOM      9  C   UNL d   1      31.897 -21.190   4.003  0.00  0.00     0.259 C 
BRANCH   9  10
ATOM     10  C   UNL d   1      31.728 -21.579   5.876  0.00  0.00     0.278 C 
ATOM     11  O   UNL d   1      30.780 -21.197   6.605  0.00  0.00    -0.263 OA
BRANCH  10  12
ATOM     12  O   UNL d   1      32.567 -22.323   6.569  0.00  0.00    -0.321 OA
BRANCH  12  13
ATOM     13  C   UNL d   1      33.906 -21.717   6.331  0.00  0.00     0.174 C 
ATOM     14  C   UNL d   1      34.406 -21.446   7.677  0.00  0.00     0.034 C 
ENDBRANCH  12  13
ENDBRANCH  10  12
ENDBRANCH   9  10
ENDBRANCH   8   9
ENDBRANCH   3   4
BRANCH   3  15
ATOM     15  C   UNL d   1      32.706 -22.044   0.309  0.00  0.00     0.037 C 
ATOM     16  C   UNL d   1      32.713 -23.097   1.352  0.00  0.00     0.007 C 
ENDBRANCH   3  15
ENDBRANCH   1   3
BRANCH   1  17
ATOM     17  C   UNL d   1      31.159 -18.965  -0.207  0.00  0.00     0.279 C 
BRANCH  17  18
ATOM     18  C   UNL d   1      29.667 -17.789  -0.566  0.00  0.00     0.031 C 
ATOM     19  C   UNL d   1      29.652 -16.949  -1.610  0.00  0.00     0.027 C 
ATOM     20  C   UNL d   1      28.384 -16.426  -2.007  0.00  0.00    -0.013 C 
ATOM     21  C   UNL d   1      28.321 -15.817  -3.209  0.00  0.00     0.014 C 
ATOM     22  C   UNL d   1      27.214 -16.523  -1.274  0.00  0.00     0.032 C 
ATOM     23  C   UNL d   1      27.063 -15.446  -3.587  0.00  0.00     0.008 C 
ATOM     24  C   UNL d   1      26.054 -15.291  -2.603  0.00  0.00    -0.054 C 
ATOM     25  C   UNL d   1      24.858 -14.492  -2.801  0.00  0.00     0.049 C 
ATOM     26  C   UNL d   1      26.133 -15.792  -1.352  0.00  0.00    -0.034 C 
ATOM     27  C   UNL d   1      25.189 -15.793  -0.180  0.00  0.00     0.050 C 
ATOM     28  N   UNL d   1      26.904 -17.564  -0.516  0.00  0.00    -0.224 NA
ATOM     29  C   UNL d   1      27.858 -18.201  -0.147  0.00  0.00     0.233 C 
ATOM     30  H   UNL d   1      26.327 -17.575   0.330  0.00  0.00     0.137 HD
ATOM     31  O   UNL d   1      27.290 -18.971   0.713  0.00  0.00    -0.274 OA
ENDBRANCH  17  18
ENDBRANCH   1  17
BRANCH   1  32
ATOM     32  C   UNL d   1      31.833 -20.719  -1.886  0.00  0.00     0.189 C 
ATOM     33  C   UNL d   1      31.053 -21.891  -2.411  0.00  0.00     0.033 C 
ATOM     34  C   UNL d   1      31.244 -22.098  -3.854  0.00  0.00     0.002 C 
ATOM     35  C   UNL d   1      30.988 -20.789  -4.573  0.00  0.00     0.000 C 
ATOM     36  C   UNL d   1      31.963 -19.689  -4.140  0.00  0.00     0.002 C 
ATOM     37  C   UNL d   1      31.896 -19.409  -2.672  0.00  0.00     0.033 C 
ENDBRANCH   1  32
TORSDOF 10
ENDMDL
MODEL 3
REMARK VINA RESULT:    -9.195      3.923      8.163
REMARK INTER + INTRA:         -15.427
REMARK INTER:                 -12.178
REMARK INTRA:                  -3.249
REMARK CONF_INDEPENDENT:        2.983
REMARK UNBOUND:                -3.249
REMARK  10 active torsions:
REMARK  status: ('A' for Active; 'I' for Inactive)
REMARK    1  A    between atoms: C_2  and  O_3 
REMARK    2  A    between atoms: O_3  and  C_4 
REMARK    3  A    between atoms: C_4  and  C_6 
REMARK    4  A    between atoms: C_6  and  N_7 
REMARK    5  A    between atoms: C_11  and  C_12 
REMARK    6  A    between atoms: C_12  and  C_13 
REMARK    7  A    between atoms: C_12  and  N_15 
REMARK    8  A    between atoms: N_15  and  C_16 
REMARK    9  A    between atoms: N_15  and  C_30 
REMARK   10  A    between atoms: C_16  and  C_17 
ROOT
ATOM      1  N   UNL d   1      28.899 -15.613   0.686  0.00  0.00    -0.052 N 
ATOM      2  H   UNL d   1      28.599 -16.328   1.360  0.00  0.00     0.281 HD
ENDROOT
BRANCH   1   3
ATOM      3  C   UNL d   1      27.895 -15.538  -0.350  0.00  0.00     0.260 C 
BRANCH   3   4
ATOM      4  C   UNL d   1      27.061 -16.634  -0.140  0.00  0.00     0.174 A 
ATOM      5  N   UNL d   1      27.043 -17.347   0.963  0.00  0.00    -0.117 NA
ATOM      6  N   UNL d   1      26.274 -18.391   0.731  0.00  0.00    -0.052 NA
ATOM      7  N   UNL d   1      25.833 -18.348  -0.520  0.00  0.00     0.027 NA
ATOM      8  N   UNL d   1      26.298 -16.993  -1.289  0.00  0.00    -0.247 N 
BRANCH   8   9
ATOM      9  C   UNL d   1      25.300 -15.807  -2.506  0.00  0.00     0.259 C 
BRANCH   9  10
ATOM     10  C   UNL d   1      25.816 -15.236  -4.266  0.00  0.00     0.278 C 
ATOM     11  O   UNL d   1      25.153 -14.451  -4.988  0.00  0.00    -0.263 OA
BRANCH  10  12
ATOM     12  O   UNL d   1      26.938 -15.575  -4.869  0.00  0.00    -0.321 OA
BRANCH  12  13
ATOM     13  C   UNL d   1      27.665 -14.292  -5.079  0.00  0.00     0.174 C 
ATOM     14  C   UNL d   1      28.201 -14.417  -6.432  0.00  0.00     0.034 C 
ENDBRANCH  12  13
ENDBRANCH  10  12
ENDBRANCH   9  10
ENDBRANCH   8   9
ENDBRANCH   3   4
BRANCH   3  15
ATOM     15  C   UNL d   1      27.014 -14.379  -0.120  0.00  0.00     0.037 C 
ATOM     16  C   UNL d   1      27.219 -13.341  -1.159  0.00  0.00     0.007 C 
ENDBRANCH   3  15
ENDBRANCH   1   3
BRANCH   1  17
ATOM     17  C   UNL d   1      30.130 -15.857  -0.185  0.00  0.00     0.279 C 
BRANCH  17  18
ATOM     18  C   UNL d   1      30.105 -16.968  -1.767  0.00  0.00     0.031 C 
ATOM     19  C   UNL d   1      29.805 -16.482  -2.979  0.00  0.00     0.027 C 
ATOM     20  C   UNL d   1      30.188 -17.266  -4.109  0.00  0.00    -0.013 C 
ATOM     21  C   UNL d   1      30.148 -16.664  -5.316  0.00  0.00     0.014 C 
ATOM     22  C   UNL d   1      30.628 -18.578  -4.060  0.00  0.00     0.032 C 
ATOM     23  C   UNL d   1      30.639 -17.422  -6.339  0.00  0.00     0.008 C 
ATOM     24  C   UNL d   1      30.712 -18.830  -6.194  0.00  0.00    -0.054 C 
ATOM     25  C   UNL d   1      30.775 -19.749  -7.318  0.00  0.00     0.049 C 
ATOM     26  C   UNL d   1      30.644 -19.475  -5.010  0.00  0.00    -0.034 C 
ATOM     27  C   UNL d   1      30.743 -20.925  -4.618  0.00  0.00     0.050 C 
ATOM     28  N   UNL d   1      31.351 -19.075  -3.068  0.00  0.00    -0.224 NA
ATOM     29  C   UNL d   1      31.230 -18.479  -2.028  0.00  0.00     0.233 C 
ATOM     30  H   UNL d   1      31.376 -20.043  -2.733  0.00  0.00     0.137 HD
ATOM     31  O   UNL d   1      31.841 -19.289  -1.237  0.00  0.00    -0.274 OA
ENDBRANCH  17  18
ENDBRANCH   1  17
BRANCH   1  32
ATOM     32  C   UNL d   1      29.056 -14.487   1.638  0.00  0.00     0.189 C 
ATOM     33  C   UNL d   1      28.064 -14.825   2.714  0.00  0.00     0.033 C 
ATOM     34  C   UNL d   1      28.309 -14.089   3.963  0.00  0.00     0.002 C 
ATOM     35  C   UNL d   1      29.761 -14.267   4.357  0.00  0.00     0.000 C 
ATOM     36  C   UNL d   1      30.722 -13.706   3.304  0.00  0.00     0.002 C 
ATOM     37  C   UNL d   1      30.544 -14.349   1.964  0.00  0.00     0.033 C 
ENDBRANCH   1  32
TORSDOF 10
ENDMDL
MODEL 4
REMARK VINA RESULT:    -9.098      4.337      9.013
REMARK INTER + INTRA:         -15.040
REMARK INTER:                 -12.081
REMARK INTRA:                  -2.958
REMARK CONF_INDEPENDENT:        2.983
REMARK UNBOUND:                -2.958
REMARK  10 active torsions:
REMARK  status: ('A' for Active; 'I' for Inactive)
REMARK    1  A    between atoms: C_2  and  O_3 
REMARK    2  A    between atoms: O_3  and  C_4 
REMARK    3  A    between atoms: C_4  and  C_6 
REMARK    4  A    between atoms: C_6  and  N_7 
REMARK    5  A    between atoms: C_11  and  C_12 
REMARK    6  A    between atoms: C_12  and  C_13 
REMARK    7  A    between atoms: C_12  and  N_15 
REMARK    8  A    between atoms: N_15  and  C_16 
REMARK    9  A    between atoms: N_15  and  C_30 
REMARK   10  A    between atoms: C_16  and  C_17 
ROOT
ATOM      1  N   UNL d   1      26.567 -15.761  -1.833  0.00  0.00    -0.052 N 
ATOM      2  H   UNL d   1      25.988 -16.082  -2.618  0.00  0.00     0.281 HD
ENDROOT
BRANCH   1   3
ATOM      3  C   UNL d   1      26.819 -14.352  -2.021  0.00  0.00     0.260 C 
BRANCH   3   4
ATOM      4  C   UNL d   1      26.003 -13.966  -3.082  0.00  0.00     0.174 A 
ATOM      5  N   UNL d   1      25.002 -14.682  -3.543  0.00  0.00    -0.117 NA
ATOM      6  N   UNL d   1      24.586 -14.094  -4.645  0.00  0.00    -0.052 NA
ATOM      7  N   UNL d   1      25.338 -13.029  -4.891  0.00  0.00     0.027 NA
ATOM      8  N   UNL d   1      26.426 -12.760  -3.713  0.00  0.00    -0.247 N 
BRANCH   8   9
ATOM      9  C   UNL d   1      26.999 -11.077  -2.861  0.00  0.00     0.259 C 
BRANCH   9  10
ATOM     10  C   UNL d   1      26.137  -9.364  -2.960  0.00  0.00     0.278 C 
ATOM     11  O   UNL d   1      25.540  -8.805  -2.007  0.00  0.00    -0.263 OA
BRANCH  10  12
ATOM     12  O   UNL d   1      26.128  -8.586  -4.024  0.00  0.00    -0.321 OA
BRANCH  12  13
ATOM     13  C   UNL d   1      25.115  -9.190  -4.934  0.00  0.00     0.174 C 
ATOM     14  C   UNL d   1      25.912 -10.020  -5.835  0.00  0.00     0.034 C 
ENDBRANCH  12  13
ENDBRANCH  10  12
ENDBRANCH   9  10
ENDBRANCH   8   9
ENDBRANCH   3   4
BRANCH   3  15
ATOM     15  C   UNL d   1      26.291 -13.585  -0.878  0.00  0.00     0.037 C 
ATOM     16  C   UNL d   1      27.393 -13.073  -0.028  0.00  0.00     0.007 C 
ENDBRANCH   3  15
ENDBRANCH   1   3
BRANCH   1  17
ATOM     17  C   UNL d   1      28.008 -16.250  -1.700  0.00  0.00     0.279 C 
BRANCH  17  18
ATOM     18  C   UNL d   1      29.187 -16.497  -3.211  0.00  0.00     0.031 C 
ATOM     19  C   UNL d   1      30.030 -17.536  -3.301  0.00  0.00     0.027 C 
ATOM     20  C   UNL d   1      30.557 -17.838  -4.593  0.00  0.00    -0.013 C 
ATOM     21  C   UNL d   1      31.168 -19.031  -4.742  0.00  0.00     0.014 C 
ATOM     22  C   UNL d   1      30.461 -17.021  -5.707  0.00  0.00     0.032 C 
ATOM     23  C   UNL d   1      31.543 -19.315  -6.023  0.00  0.00     0.008 C 
ATOM     24  C   UNL d   1      31.698 -18.259  -6.957  0.00  0.00    -0.054 C 
ATOM     25  C   UNL d   1      32.500 -18.368  -8.163  0.00  0.00     0.049 C 
ATOM     26  C   UNL d   1      31.193 -17.018  -6.788  0.00  0.00    -0.034 C 
ATOM     27  C   UNL d   1      31.192 -15.780  -7.645  0.00  0.00     0.050 C 
ATOM     28  N   UNL d   1      29.418 -16.245  -5.963  0.00  0.00    -0.224 NA
ATOM     29  C   UNL d   1      28.779 -15.948  -4.986  0.00  0.00     0.233 C 
ATOM     30  H   UNL d   1      29.407 -15.359  -6.476  0.00  0.00     0.137 HD
ATOM     31  O   UNL d   1      28.008 -15.050  -5.491  0.00  0.00    -0.274 OA
ENDBRANCH  17  18
ENDBRANCH   1  17
BRANCH   1  32
ATOM     32  C   UNL d   1      25.682 -16.208  -0.730  0.00  0.00     0.189 C 
ATOM     33  C   UNL d   1      24.388 -16.489  -1.441  0.00  0.00     0.033 C 
ATOM     34  C   UNL d   1      23.476 -17.324  -0.647  0.00  0.00     0.002 C 
ATOM     35  C   UNL d   1      24.225 -18.555  -0.178  0.00  0.00     0.000 C 
ATOM     36  C   UNL d   1      25.414 -18.203   0.721  0.00  0.00     0.002 C 
ATOM     37  C   UNL d   1      26.406 -17.313   0.039  0.00  0.00     0.033 C 
ENDBRANCH   1  32
TORSDOF 10
ENDMDL
MODEL 5
REMARK VINA RESULT:    -8.871      3.418      7.583
REMARK INTER + INTRA:         -15.781
REMARK INTER:                 -11.854
REMARK INTRA:                  -3.927
REMARK CONF_INDEPENDENT:        2.983
REMARK UNBOUND:                -3.927
REMARK  10 active torsions:
REMARK  status: ('A' for Active; 'I' for Inactive)
REMARK    1  A    between atoms: C_2  and  O_3 
REMARK    2  A    between atoms: O_3  and  C_4 
REMARK    3  A    between atoms: C_4  and  C_6 
REMARK    4  A    between atoms: C_6  and  N_7 
REMARK    5  A    between atoms: C_11  and  C_12 
REMARK    6  A    between atoms: C_12  and  C_13 
REMARK    7  A    between atoms: C_12  and  N_15 
REMARK    8  A    between atoms: N_15  and  C_16 
REMARK    9  A    between atoms: N_15  and  C_30 
REMARK   10  A    between atoms: C_16  and  C_17 
ROOT
ATOM      1  N   UNL d   1      29.027 -15.227   1.184  0.00  0.00    -0.052 N 
ATOM      2  H   UNL d   1      28.787 -16.072   1.715  0.00  0.00     0.281 HD
ENDROOT
BRANCH   1   3
ATOM      3  C   UNL d   1      28.092 -15.116   0.090  0.00  0.00     0.260 C 
BRANCH   3   4
ATOM      4  C   UNL d   1      27.382 -16.315   0.083  0.00  0.00     0.174 A 
ATOM      5  N   UNL d   1      27.348 -17.158   1.090  0.00  0.00    -0.117 NA
ATOM      6  N   UNL d   1      26.739 -18.243   0.659  0.00  0.00    -0.052 NA
ATOM      7  N   UNL d   1      26.416 -18.093  -0.619  0.00  0.00     0.027 NA
ATOM      8  N   UNL d   1      26.781 -16.610  -1.175  0.00  0.00    -0.247 N 
BRANCH   8   9
ATOM      9  C   UNL d   1      25.764 -15.399  -2.352  0.00  0.00     0.259 C 
BRANCH   9  10
ATOM     10  C   UNL d   1      26.002 -15.128  -4.238  0.00  0.00     0.278 C 
ATOM     11  O   UNL d   1      26.963 -15.575  -4.911  0.00  0.00    -0.263 OA
BRANCH  10  12
ATOM     12  O   UNL d   1      25.155 -14.487  -5.020  0.00  0.00    -0.321 OA
BRANCH  12  13
ATOM     13  C   UNL d   1      25.155 -13.084  -4.519  0.00  0.00     0.174 C 
ATOM     14  C   UNL d   1      26.510 -12.617  -4.802  0.00  0.00     0.034 C 
ENDBRANCH  12  13
ENDBRANCH  10  12
ENDBRANCH   9  10
ENDBRANCH   8   9
ENDBRANCH   3   4
BRANCH   3  15
ATOM     15  C   UNL d   1      27.065 -14.104   0.400  0.00  0.00     0.037 C 
ATOM     16  C   UNL d   1      27.077 -13.010  -0.601  0.00  0.00     0.007 C 
ENDBRANCH   3  15
ENDBRANCH   1   3
BRANCH   1  17
ATOM     17  C   UNL d   1      30.333 -15.168   0.395  0.00  0.00     0.279 C 
BRANCH  17  18
ATOM     18  C   UNL d   1      30.529 -15.894  -1.386  0.00  0.00     0.031 C 
ATOM     19  C   UNL d   1      31.089 -17.089  -1.616  0.00  0.00     0.027 C 
ATOM     20  C   UNL d   1      30.838 -17.694  -2.884  0.00  0.00    -0.013 C 
ATOM     21  C   UNL d   1      31.154 -18.999  -3.016  0.00  0.00     0.014 C 
ATOM     22  C   UNL d   1      30.266 -17.059  -3.974  0.00  0.00     0.032 C 
ATOM     23  C   UNL d   1      30.781 -19.552  -4.206  0.00  0.00     0.008 C 
ATOM     24  C   UNL d   1      30.541 -18.712  -5.323  0.00  0.00    -0.054 C 
ATOM     25  C   UNL d   1      30.587 -19.176  -6.698  0.00  0.00     0.049 C 
ATOM     26  C   UNL d   1      30.330 -17.381  -5.238  0.00  0.00    -0.034 C 
ATOM     27  C   UNL d   1      30.015 -16.320  -6.259  0.00  0.00     0.050 C 
ATOM     28  N   UNL d   1      29.329 -16.128  -3.875  0.00  0.00    -0.224 NA
ATOM     29  C   UNL d   1      29.322 -15.553  -2.816  0.00  0.00     0.233 C 
ATOM     30  H   UNL d   1      29.147 -15.350  -4.517  0.00  0.00     0.137 HD
ATOM     31  O   UNL d   1      28.500 -14.601  -3.088  0.00  0.00    -0.274 OA
ENDBRANCH  17  18
ENDBRANCH   1  17
BRANCH   1  32
ATOM     32  C   UNL d   1      28.964 -14.257   2.304  0.00  0.00     0.189 C 
ATOM     33  C   UNL d   1      27.875 -14.825   3.170  0.00  0.00     0.033 C 
ATOM     34  C   UNL d   1      27.894 -14.280   4.535  0.00  0.00     0.002 C 
ATOM     35  C   UNL d   1      29.294 -14.424   5.098  0.00  0.00     0.000 C 
ATOM     36  C   UNL d   1      30.329 -13.641   4.283  0.00  0.00     0.002 C 
ATOM     37  C   UNL d   1      30.380 -14.075   2.852  0.00  0.00     0.033 C 
ENDBRANCH   1  32
TORSDOF 10
ENDMDL
MODEL 6
REMARK VINA RESULT:    -8.664      2.782      7.674
REMARK INTER + INTRA:         -15.034
REMARK INTER:                 -11.647
REMARK INTRA:                  -3.386
REMARK CONF_INDEPENDENT:        2.983
REMARK UNBOUND:                -3.386
REMARK  10 active torsions:
REMARK  status: ('A' for Active; 'I' for Inactive)
REMARK    1  A    between atoms: C_2  and  O_3 
REMARK    2  A    between atoms: O_3  and  C_4 
REMARK    3  A    between atoms: C_4  and  C_6 
REMARK    4  A    between atoms: C_6  and  N_7 
REMARK    5  A    between atoms: C_11  and  C_12 
REMARK    6  A    between atoms: C_12  and  C_13 
REMARK    7  A    between atoms: C_12  and  N_15 
REMARK    8  A    between atoms: N_15  and  C_16 
REMARK    9  A    between atoms: N_15  and  C_30 
REMARK   10  A    between atoms: C_16  and  C_17 
ROOT
ATOM      1  N   UNL d   1      30.805 -14.834   2.335  0.00  0.00    -0.052 N 
ATOM      2  H   UNL d   1      30.387 -15.557   2.933  0.00  0.00     0.281 HD
ENDROOT
BRANCH   1   3
ATOM      3  C   UNL d   1      30.253 -13.561   2.735  0.00  0.00     0.260 C 
BRANCH   3   4
ATOM      4  C   UNL d   1      29.101 -13.865   3.457  0.00  0.00     0.174 A 
ATOM      5  N   UNL d   1      29.051 -14.749   4.428  0.00  0.00    -0.117 NA
ATOM      6  N   UNL d   1      27.781 -14.896   4.745  0.00  0.00    -0.052 NA
ATOM      7  N   UNL d   1      27.036 -14.129   3.960  0.00  0.00     0.027 NA
ATOM      8  N   UNL d   1      27.935 -13.209   2.966  0.00  0.00    -0.247 N 
BRANCH   8   9
ATOM      9  C   UNL d   1      27.733 -11.320   2.439  0.00  0.00     0.259 C 
BRANCH   9  10
ATOM     10  C   UNL d   1      27.200  -9.847   3.549  0.00  0.00     0.278 C 
ATOM     11  O   UNL d   1      26.279  -9.039   3.275  0.00  0.00    -0.263 OA
BRANCH  10  12
ATOM     12  O   UNL d   1      27.718  -9.567   4.729  0.00  0.00    -0.321 OA
BRANCH  12  13
ATOM     13  C   UNL d   1      27.780 -10.874   5.441  0.00  0.00     0.174 C 
ATOM     14  C   UNL d   1      29.179 -10.978   5.851  0.00  0.00     0.034 C 
ENDBRANCH  12  13
ENDBRANCH  10  12
ENDBRANCH   9  10
ENDBRANCH   8   9
ENDBRANCH   3   4
BRANCH   3  15
ATOM     15  C   UNL d   1      31.130 -12.918   3.731  0.00  0.00     0.037 C 
ATOM     16  C   UNL d   1      31.547 -11.569   3.279  0.00  0.00     0.007 C 
ENDBRANCH   3  15
ENDBRANCH   1   3
BRANCH   1  17
ATOM     17  C   UNL d   1      30.467 -14.788   0.846  0.00  0.00     0.279 C 
BRANCH  17  18
ATOM     18  C   UNL d   1      28.826 -15.497   0.109  0.00  0.00     0.031 C 
ATOM     19  C   UNL d   1      28.485 -16.787   0.230  0.00  0.00     0.027 C 
ATOM     20  C   UNL d   1      27.115 -17.122   0.007  0.00  0.00    -0.013 C 
ATOM     21  C   UNL d   1      26.712 -18.349   0.398  0.00  0.00     0.014 C 
ATOM     22  C   UNL d   1      26.165 -16.280  -0.544  0.00  0.00     0.032 C 
ATOM     23  C   UNL d   1      25.371 -18.568   0.272  0.00  0.00     0.008 C 
ATOM     24  C   UNL d   1      24.612 -17.767  -0.618  0.00  0.00    -0.054 C 
ATOM     25  C   UNL d   1      23.331 -18.174  -1.168  0.00  0.00     0.049 C 
ATOM     26  C   UNL d   1      25.031 -16.584  -1.117  0.00  0.00    -0.034 C 
ATOM     27  C   UNL d   1      24.393 -15.562  -2.019  0.00  0.00     0.050 C 
ATOM     28  N   UNL d   1      26.144 -14.969  -0.354  0.00  0.00    -0.224 NA
ATOM     29  C   UNL d   1      27.215 -14.501  -0.062  0.00  0.00     0.233 C 
ATOM     30  H   UNL d   1      25.787 -14.248  -0.988  0.00  0.00     0.137 HD
ATOM     31  O   UNL d   1      26.943 -13.247  -0.161  0.00  0.00    -0.274 OA
ENDBRANCH  17  18
ENDBRANCH   1  17
BRANCH   1  32
ATOM     32  C   UNL d   1      32.230 -15.136   2.613  0.00  0.00     0.189 C 
ATOM     33  C   UNL d   1      32.280 -16.632   2.480  0.00  0.00     0.033 C 
ATOM     34  C   UNL d   1      33.649 -17.140   2.308  0.00  0.00     0.002 C 
ATOM     35  C   UNL d   1      34.314 -16.378   1.180  0.00  0.00     0.000 C 
ATOM     36  C   UNL d   1      34.421 -14.879   1.477  0.00  0.00     0.002 C 
ATOM     37  C   UNL d   1      33.087 -14.244   1.714  0.00  0.00     0.033 C 
ENDBRANCH   1  32
TORSDOF 10
ENDMDL
MODEL 7
REMARK VINA RESULT:    -8.641      4.411      8.554
REMARK INTER + INTRA:         -15.199
REMARK INTER:                 -11.624
REMARK INTRA:                  -3.576
REMARK CONF_INDEPENDENT:        2.983
REMARK UNBOUND:                -3.576
REMARK  10 active torsions:
REMARK  status: ('A' for Active; 'I' for Inactive)
REMARK    1  A    between atoms: C_2  and  O_3 
REMARK    2  A    between atoms: O_3  and  C_4 
REMARK    3  A    between atoms: C_4  and  C_6 
REMARK    4  A    between atoms: C_6  and  N_7 
REMARK    5  A    between atoms: C_11  and  C_12 
REMARK    6  A    between atoms: C_12  and  C_13 
REMARK    7  A    between atoms: C_12  and  N_15 
REMARK    8  A    between atoms: N_15  and  C_16 
REMARK    9  A    between atoms: N_15  and  C_30 
REMARK   10  A    between atoms: C_16  and  C_17 
ROOT
ATOM      1  N   UNL d   1      30.114 -16.911   0.087  0.00  0.00    -0.052 N 
ATOM      2  H   UNL d   1      29.699 -16.966   1.024  0.00  0.00     0.281 HD
ENDROOT
BRANCH   1   3
ATOM      3  C   UNL d   1      29.145 -16.293  -0.787  0.00  0.00     0.260 C 
BRANCH   3   4
ATOM      4  C   UNL d   1      27.927 -16.896  -0.478  0.00  0.00     0.174 A 
ATOM      5  N   UNL d   1      27.704 -17.591   0.613  0.00  0.00    -0.117 NA
ATOM      6  N   UNL d   1      26.520 -18.150   0.476  0.00  0.00    -0.052 NA
ATOM      7  N   UNL d   1      26.013 -17.829  -0.708  0.00  0.00     0.027 NA
ATOM      8  N   UNL d   1      26.963 -16.791  -1.522  0.00  0.00    -0.247 N 
BRANCH   8   9
ATOM      9  C   UNL d   1      26.498 -15.204  -2.595  0.00  0.00     0.259 C 
BRANCH   9  10
ATOM     10  C   UNL d   1      26.172 -15.125  -4.485  0.00  0.00     0.278 C 
ATOM     11  O   UNL d   1      25.073 -14.821  -5.012  0.00  0.00    -0.263 OA
BRANCH  10  12
ATOM     12  O   UNL d   1      27.082 -15.336  -5.416  0.00  0.00    -0.321 OA
BRANCH  12  13
ATOM     13  C   UNL d   1      27.579 -13.980  -5.783  0.00  0.00     0.174 C 
ATOM     14  C   UNL d   1      28.824 -14.251  -6.498  0.00  0.00     0.034 C 
ENDBRANCH  12  13
ENDBRANCH  10  12
ENDBRANCH   9  10
ENDBRANCH   8   9
ENDBRANCH   3   4
BRANCH   3  15
ATOM     15  C   UNL d   1      28.943 -14.883  -0.405  0.00  0.00     0.037 C 
ATOM     16  C   UNL d   1      28.363 -14.780   0.956  0.00  0.00     0.007 C 
ENDBRANCH   3  15
ENDBRANCH   1   3
BRANCH   1  17
ATOM     17  C   UNL d   1      30.375 -18.190  -0.706  0.00  0.00     0.279 C 
BRANCH  17  18
ATOM     18  C   UNL d   1      30.751 -18.204  -2.603  0.00  0.00     0.031 C 
ATOM     19  C   UNL d   1      31.116 -19.317  -3.253  0.00  0.00     0.027 C 
ATOM     20  C   UNL d   1      30.989 -19.312  -4.675  0.00  0.00    -0.013 C 
ATOM     21  C   UNL d   1      31.081 -20.502  -5.303  0.00  0.00     0.014 C 
ATOM     22  C   UNL d   1      30.747 -18.193  -5.453  0.00  0.00     0.032 C 
ATOM     23  C   UNL d   1      30.833 -20.452  -6.644  0.00  0.00     0.008 C 
ATOM     24  C   UNL d   1      30.953 -19.218  -7.332  0.00  0.00    -0.054 C 
ATOM     25  C   UNL d   1      31.160 -19.118  -8.766  0.00  0.00     0.049 C 
ATOM     26  C   UNL d   1      30.977 -18.012  -6.726  0.00  0.00    -0.034 C 
ATOM     27  C   UNL d   1      31.049 -16.600  -7.243  0.00  0.00     0.050 C 
ATOM     28  N   UNL d   1      29.994 -17.175  -5.064  0.00  0.00    -0.224 NA
ATOM     29  C   UNL d   1      29.902 -17.064  -3.867  0.00  0.00     0.233 C 
ATOM     30  H   UNL d   1      30.074 -16.192  -5.341  0.00  0.00     0.137 HD
ATOM     31  O   UNL d   1      29.329 -15.915  -3.795  0.00  0.00    -0.274 OA
ENDBRANCH  17  18
ENDBRANCH   1  17
BRANCH   1  32
ATOM     32  C   UNL d   1      31.348 -16.174   0.452  0.00  0.00     0.189 C 
ATOM     33  C   UNL d   1      32.038 -17.131   1.383  0.00  0.00     0.033 C 
ATOM     34  C   UNL d   1      33.462 -16.816   1.565  0.00  0.00     0.002 C 
ATOM     35  C   UNL d   1      34.109 -16.677   0.201  0.00  0.00     0.000 C 
ATOM     36  C   UNL d   1      33.495 -15.537  -0.618  0.00  0.00     0.002 C 
ATOM     37  C   UNL d   1      32.026 -15.718  -0.841  0.00  0.00     0.033 C 
ENDBRANCH   1  32
TORSDOF 10
ENDMDL
MODEL 8
REMARK VINA RESULT:    -8.226      4.529      8.342
REMARK INTER + INTRA:         -14.876
REMARK INTER:                 -11.209
REMARK INTRA:                  -3.667
REMARK CONF_INDEPENDENT:        2.983
REMARK UNBOUND:                -3.667
REMARK  10 active torsions:
REMARK  status: ('A' for Active; 'I' for Inactive)
REMARK    1  A    between atoms: C_2  and  O_3 
REMARK    2  A    between atoms: O_3  and  C_4 
REMARK    3  A    between atoms: C_4  and  C_6 
REMARK    4  A    between atoms: C_6  and  N_7 
REMARK    5  A    between atoms: C_11  and  C_12 
REMARK    6  A    between atoms: C_12  and  C_13 
REMARK    7  A    between atoms: C_12  and  N_15 
REMARK    8  A    between atoms: N_15  and  C_16 
REMARK    9  A    between atoms: N_15  and  C_30 
REMARK   10  A    between atoms: C_16  and  C_17 
ROOT
ATOM      1  N   UNL d   1      25.090 -15.937  -0.991  0.00  0.00    -0.052 N 
ATOM      2  H   UNL d   1      24.834 -15.112  -0.435  0.00  0.00     0.281 HD
ENDROOT
BRANCH   1   3
ATOM      3  C   UNL d   1      26.525 -16.083  -0.926  0.00  0.00     0.260 C 
BRANCH   3   4
ATOM      4  C   UNL d   1      27.031 -14.785  -0.904  0.00  0.00     0.174 A 
ATOM      5  N   UNL d   1      26.539 -13.814  -0.169  0.00  0.00    -0.117 NA
ATOM      6  N   UNL d   1      27.147 -12.706  -0.541  0.00  0.00    -0.052 NA
ATOM      7  N   UNL d   1      27.997 -12.977  -1.524  0.00  0.00     0.027 NA
ATOM      8  N   UNL d   1      28.072 -14.567  -1.852  0.00  0.00    -0.247 N 
BRANCH   8   9
ATOM      9  C   UNL d   1      29.622 -15.720  -2.244  0.00  0.00     0.259 C 
BRANCH   9  10
ATOM     10  C   UNL d   1      29.889 -16.837  -3.783  0.00  0.00     0.278 C 
ATOM     11  O   UNL d   1      30.632 -17.848  -3.815  0.00  0.00    -0.263 OA
BRANCH  10  12
ATOM     12  O   UNL d   1      29.281 -16.679  -4.942  0.00  0.00    -0.321 OA
BRANCH  12  13
ATOM     13  C   UNL d   1      30.377 -16.658  -5.951  0.00  0.00     0.174 C 
ATOM     14  C   UNL d   1      30.347 -15.290  -6.465  0.00  0.00     0.034 C 
ENDBRANCH  12  13
ENDBRANCH  10  12
ENDBRANCH   9  10
ENDBRANCH   8   9
ENDBRANCH   3   4
BRANCH   3  15
ATOM     15  C   UNL d   1      26.920 -16.634   0.384  0.00  0.00     0.037 C 
ATOM     16  C   UNL d   1      27.777 -17.833   0.219  0.00  0.00     0.007 C 
ENDBRANCH   3  15
ENDBRANCH   1   3
BRANCH   1  17
ATOM     17  C   UNL d   1      24.917 -15.916  -2.509  0.00  0.00     0.279 C 
BRANCH  17  18
ATOM     18  C   UNL d   1      25.328 -14.375  -3.601  0.00  0.00     0.031 C 
ATOM     19  C   UNL d   1      25.157 -13.119  -3.163  0.00  0.00     0.027 C 
ATOM     20  C   UNL d   1      25.839 -12.084  -3.870  0.00  0.00    -0.013 C 
ATOM     21  C   UNL d   1      25.902 -10.874  -3.277  0.00  0.00     0.014 C 
ATOM     22  C   UNL d   1      26.467 -12.232  -5.095  0.00  0.00     0.032 C 
ATOM     23  C   UNL d   1      26.667  -9.960  -3.941  0.00  0.00     0.008 C 
ATOM     24  C   UNL d   1      26.938 -10.145  -5.320  0.00  0.00    -0.054 C 
ATOM     25  C   UNL d   1      27.330  -9.066  -6.211  0.00  0.00     0.049 C 
ATOM     26  C   UNL d   1      26.781 -11.316  -5.973  0.00  0.00    -0.034 C 
ATOM     27  C   UNL d   1      27.043 -11.750  -7.390  0.00  0.00     0.050 C 
ATOM     28  N   UNL d   1      27.089 -13.337  -5.475  0.00  0.00    -0.224 NA
ATOM     29  C   UNL d   1      26.706 -14.332  -4.912  0.00  0.00     0.233 C 
ATOM     30  H   UNL d   1      27.211 -13.693  -6.428  0.00  0.00     0.137 HD
ATOM     31  O   UNL d   1      27.300 -15.229  -5.617  0.00  0.00    -0.274 OA
ENDBRANCH  17  18
ENDBRANCH   1  17
BRANCH   1  32
ATOM     32  C   UNL d   1      24.220 -16.923  -0.307  0.00  0.00     0.189 C 
ATOM     33  C   UNL d   1      22.844 -16.503  -0.739  0.00  0.00     0.033 C 
ATOM     34  C   UNL d   1      21.838 -17.555  -0.529  0.00  0.00     0.002 C 
ATOM     35  C   UNL d   1      22.338 -18.840  -1.156  0.00  0.00     0.000 C 
ATOM     36  C   UNL d   1      23.643 -19.328  -0.519  0.00  0.00     0.002 C 
ATOM     37  C   UNL d   1      24.746 -18.323  -0.629  0.00  0.00     0.033 C 
ENDBRANCH   1  32
TORSDOF 10
ENDMDL
MODEL 9
REMARK VINA RESULT:    -8.106      4.785      9.278
REMARK INTER + INTRA:         -14.987
REMARK INTER:                 -11.089
REMARK INTRA:                  -3.897
REMARK CONF_INDEPENDENT:        2.983
REMARK UNBOUND:                -3.897
REMARK  10 active torsions:
REMARK  status: ('A' for Active; 'I' for Inactive)
REMARK    1  A    between atoms: C_2  and  O_3 
REMARK    2  A    between atoms: O_3  and  C_4 
REMARK    3  A    between atoms: C_4  and  C_6 
REMARK    4  A    between atoms: C_6  and  N_7 
REMARK    5  A    between atoms: C_11  and  C_12 
REMARK    6  A    between atoms: C_12  and  C_13 
REMARK    7  A    between atoms: C_12  and  N_15 
REMARK    8  A    between atoms: N_15  and  C_16 
REMARK    9  A    between atoms: N_15  and  C_30 
REMARK   10  A    between atoms: C_16  and  C_17 
ROOT
ATOM      1  N   UNL d   1      26.580 -16.012  -2.054  0.00  0.00    -0.052 N 
ATOM      2  H   UNL d   1      25.973 -16.315  -2.825  0.00  0.00     0.281 HD
ENDROOT
BRANCH   1   3
ATOM      3  C   UNL d   1      26.924 -14.629  -2.284  0.00  0.00     0.260 C 
BRANCH   3   4
ATOM      4  C   UNL d   1      25.980 -14.156  -3.193  0.00  0.00     0.174 A 
ATOM      5  N   UNL d   1      24.687 -14.361  -3.087  0.00  0.00    -0.117 NA
ATOM      6  N   UNL d   1      24.139 -13.931  -4.205  0.00  0.00    -0.052 NA
ATOM      7  N   UNL d   1      25.086 -13.483  -5.019  0.00  0.00     0.027 NA
ATOM      8  N   UNL d   1      26.557 -13.519  -4.329  0.00  0.00    -0.247 N 
BRANCH   8   9
ATOM      9  C   UNL d   1      28.023 -12.202  -4.372  0.00  0.00     0.259 C 
BRANCH   9  10
ATOM     10  C   UNL d   1      29.648 -12.294  -5.391  0.00  0.00     0.278 C 
ATOM     11  O   UNL d   1      30.647 -11.554  -5.216  0.00  0.00    -0.263 OA
BRANCH  10  12
ATOM     12  O   UNL d   1      29.892 -13.174  -6.342  0.00  0.00    -0.321 OA
BRANCH  12  13
ATOM     13  C   UNL d   1      28.938 -12.834  -7.435  0.00  0.00     0.174 C 
ATOM     14  C   UNL d   1      29.802 -12.353  -8.510  0.00  0.00     0.034 C 
ENDBRANCH  12  13
ENDBRANCH  10  12
ENDBRANCH   9  10
ENDBRANCH   8   9
ENDBRANCH   3   4
BRANCH   3  15
ATOM     15  C   UNL d   1      26.667 -13.834  -1.068  0.00  0.00     0.037 C 
ATOM     16  C   UNL d   1      27.453 -12.577  -1.080  0.00  0.00     0.007 C 
ENDBRANCH   3  15
ENDBRANCH   1   3
BRANCH   1  17
ATOM     17  C   UNL d   1      27.986 -16.593  -1.920  0.00  0.00     0.279 C 
BRANCH  17  18
ATOM     18  C   UNL d   1      29.263 -16.625  -3.371  0.00  0.00     0.031 C 
ATOM     19  C   UNL d   1      30.221 -17.557  -3.463  0.00  0.00     0.027 C 
ATOM     20  C   UNL d   1      30.845 -17.728  -4.736  0.00  0.00    -0.013 C 
ATOM     21  C   UNL d   1      31.595 -18.836  -4.908  0.00  0.00     0.014 C 
ATOM     22  C   UNL d   1      30.715 -16.867  -5.812  0.00  0.00     0.032 C 
ATOM     23  C   UNL d   1      32.065 -19.006  -6.178  0.00  0.00     0.008 C 
ATOM     24  C   UNL d   1      32.147 -17.890  -7.049  0.00  0.00    -0.054 C 
ATOM     25  C   UNL d   1      33.017 -17.843  -8.211  0.00  0.00     0.049 C 
ATOM     26  C   UNL d   1      31.497 -16.724  -6.849  0.00  0.00    -0.034 C 
ATOM     27  C   UNL d   1      31.399 -15.448  -7.643  0.00  0.00     0.050 C 
ATOM     28  N   UNL d   1      29.606 -16.198  -6.090  0.00  0.00    -0.224 NA
ATOM     29  C   UNL d   1      28.887 -16.027  -5.138  0.00  0.00     0.233 C 
ATOM     30  H   UNL d   1      29.520 -15.292  -6.559  0.00  0.00     0.137 HD
ATOM     31  O   UNL d   1      28.046 -15.194  -5.642  0.00  0.00    -0.274 OA
ENDBRANCH  17  18
ENDBRANCH   1  17
BRANCH   1  32
ATOM     32  C   UNL d   1      25.679 -16.369  -0.932  0.00  0.00     0.189 C 
ATOM     33  C   UNL d   1      24.419 -16.779  -1.640  0.00  0.00     0.033 C 
ATOM     34  C   UNL d   1      23.514 -17.557  -0.781  0.00  0.00     0.002 C 
ATOM     35  C   UNL d   1      24.294 -18.697  -0.158  0.00  0.00     0.000 C 
ATOM     36  C   UNL d   1      25.441 -18.199   0.727  0.00  0.00     0.002 C 
ATOM     37  C   UNL d   1      26.420 -17.352  -0.025  0.00  0.00     0.033 C 
ENDBRANCH   1  32
TORSDOF 10
ENDMDL
