MODEL 1
REMARK VINA RESULT:   -10.691      0.000      0.000
REMARK INTER + INTRA:         -14.732
REMARK INTER:                 -13.674
REMARK INTRA:                  -1.058
REMARK CONF_INDEPENDENT:        2.983
REMARK UNBOUND:                -1.058
REMARK  10 active torsions:
REMARK  status: ('A' for Active; 'I' for Inactive)
REMARK    1  A    between atoms: O_2  and  C_3 
REMARK    2  A    between atoms: C_6  and  C_7 
REMARK    3  A    between atoms: C_7  and  C_8 
REMARK    4  A    between atoms: C_7  and  N_27 
REMARK    5  A    between atoms: C_8  and  N_9 
REMARK       I    between atoms: N_9  and  C_10 
REMARK    6  A    between atoms: C_10  and  C_12 
REMARK    7  A    between atoms: C_15  and  S_16 
REMARK    8  A    between atoms: S_16  and  C_17 
REMARK    9  A    between atoms: C_17  and  C_18 
REMARK   10  A    between atoms: C_31  and  O_32 
ROOT
ATOM      1  N   UNL d   1      27.942 -15.030   1.509  0.00  0.00    -0.354 N 
ATOM      2  C   UNL d   1      27.548 -15.149   0.198  0.00  0.00     0.256 C 
ATOM      3  O   UNL d   1      28.102 -14.534  -0.718  0.00  0.00    -0.268 OA
ATOM      4  H   UNL d   1      27.524 -15.666   2.173  0.00  0.00     0.162 HD
ENDROOT
BRANCH   1   5
ATOM      5  C   UNL d   1      28.946 -14.064   1.959  0.00  0.00     0.161 C 
BRANCH   5   6
ATOM      6  C   UNL d   1      29.804 -14.515   3.203  0.00  0.00     0.237 C 
BRANCH   6   7
ATOM      7  C   UNL d   1      29.247 -13.871   4.470  0.00  0.00    -0.023 C 
ATOM      8  C   UNL d   1      29.520 -14.375   5.736  0.00  0.00     0.012 C 
ATOM      9  C   UNL d   1      28.860 -13.878   6.870  0.00  0.00     0.040 C 
ATOM     10  C   UNL d   1      28.097 -12.704   6.832  0.00  0.00     0.101 C 
ATOM     11  C   UNL d   1      27.933 -12.106   5.581  0.00  0.00     0.102 C 
ATOM     12  C   UNL d   1      28.416 -12.751   4.437  0.00  0.00     0.049 C 
BRANCH  10  13
ATOM     13  O   UNL d   1      27.862 -12.201   8.084  0.00  0.00    -0.353 OA
ATOM     14  C   UNL d   1      28.849 -11.461   8.795  0.00  0.00     0.210 C 
ENDBRANCH  10  13
BRANCH  11  15
ATOM     15  O   UNL d   1      27.435 -10.893   5.179  0.00  0.00    -0.353 OA
ATOM     16  C   UNL d   1      27.405 -10.728   3.796  0.00  0.00     0.210 C 
ENDBRANCH  11  15
ENDBRANCH   6   7
BRANCH   6  17
ATOM     17  N   UNL d   1      31.305 -14.196   2.996  0.00  0.00    -0.069 N 
ATOM     18  C   UNL d   1      31.977 -15.142   2.006  0.00  0.00     0.270 C 
ATOM     19  C   UNL d   1      31.590 -12.792   2.544  0.00  0.00     0.270 C 
ATOM     20  H   UNL d   1      31.748 -14.304   3.919  0.00  0.00     0.279 HD
ENDBRANCH   6  17
ENDBRANCH   5   6
ENDBRANCH   1   5
BRANCH   2  21
ATOM     21  C   UNL d   1      26.464 -16.102  -0.090  0.00  0.00     0.090 A 
ATOM     22  C   UNL d   1      26.344 -17.284   0.605  0.00  0.00     0.139 A 
ATOM     23  N   UNL d   1      25.373 -18.210   0.372  0.00  0.00    -0.234 NA
ATOM     24  C   UNL d   1      24.502 -17.932  -0.608  0.00  0.00     0.189 A 
ATOM     25  N   UNL d   1      24.530 -16.811  -1.329  0.00  0.00    -0.210 NA
ATOM     26  C   UNL d   1      25.523 -15.952  -1.077  0.00  0.00     0.146 A 
ATOM     27 CL   UNL d   1      25.525 -14.703  -2.237  0.00  0.00    -0.061 Cl
BRANCH  24  28
ATOM     28  S   UNL d   1      23.264 -19.053  -1.139  0.00  0.00    -0.086 SA
BRANCH  28  29
ATOM     29  C   UNL d   1      21.697 -18.189  -0.807  0.00  0.00     0.121 C 
BRANCH  29  30
ATOM     30  C   UNL d   1      20.687 -19.112  -0.140  0.00  0.00    -0.049 A 
ATOM     31  C   UNL d   1      19.629 -19.699  -0.859  0.00  0.00     0.008 A 
ATOM     32  C   UNL d   1      18.645 -20.450  -0.222  0.00  0.00     0.001 A 
ATOM     33  C   UNL d   1      18.729 -20.680   1.145  0.00  0.00     0.000 A 
ATOM     34  C   UNL d   1      19.771 -20.115   1.879  0.00  0.00     0.001 A 
ATOM     35  C   UNL d   1      20.737 -19.326   1.246  0.00  0.00     0.008 A 
ENDBRANCH  29  30
ENDBRANCH  28  29
ENDBRANCH  24  28
ENDBRANCH   2  21
TORSDOF 10
ENDMDL
MODEL 2
REMARK VINA RESULT:   -10.050      1.047      2.281
REMARK INTER + INTRA:         -14.136
REMARK INTER:                 -13.033
REMARK INTRA:                  -1.103
REMARK CONF_INDEPENDENT:        2.983
REMARK UNBOUND:                -1.103
REMARK  10 active torsions:
REMARK  status: ('A' for Active; 'I' for Inactive)
REMARK    1  A    between atoms: O_2  and  C_3 
REMARK    2  A    between atoms: C_6  and  C_7 
REMARK    3  A    between atoms: C_7  and  C_8 
REMARK    4  A    between atoms: C_7  and  N_27 
REMARK    5  A    between atoms: C_8  and  N_9 
REMARK       I    between atoms: N_9  and  C_10 
REMARK    6  A    between atoms: C_10  and  C_12 
REMARK    7  A    between atoms: C_15  and  S_16 
REMARK    8  A    between atoms: S_16  and  C_17 
REMARK    9  A    between atoms: C_17  and  C_18 
REMARK   10  A    between atoms: C_31  and  O_32 
ROOT
ATOM      1  N   UNL d   1      28.987 -15.727   0.675  0.00  0.00    -0.354 N 
ATOM      2  C   UNL d   1      27.990 -15.360  -0.196  0.00  0.00     0.256 C 
ATOM      3  O   UNL d   1      28.063 -14.346  -0.896  0.00  0.00    -0.268 OA
ATOM      4  H   UNL d   1      28.906 -16.636   1.108  0.00  0.00     0.162 HD
ENDROOT
BRANCH   1   5
ATOM      5  C   UNL d   1      30.149 -14.885   0.964  0.00  0.00     0.161 C 
BRANCH   5   6
ATOM      6  C   UNL d   1      30.330 -14.481   2.477  0.00  0.00     0.237 C 
BRANCH   6   7
ATOM      7  C   UNL d   1      29.383 -13.335   2.820  0.00  0.00    -0.023 C 
ATOM      8  C   UNL d   1      28.981 -12.401   1.874  0.00  0.00     0.012 C 
ATOM      9  C   UNL d   1      28.255 -11.260   2.247  0.00  0.00     0.040 C 
ATOM     10  C   UNL d   1      27.684 -11.124   3.518  0.00  0.00     0.101 C 
ATOM     11  C   UNL d   1      27.965 -12.135   4.441  0.00  0.00     0.102 C 
ATOM     12  C   UNL d   1      28.876 -13.143   4.105  0.00  0.00     0.049 C 
BRANCH  10  13
ATOM     13  O   UNL d   1      26.727 -10.145   3.553  0.00  0.00    -0.353 OA
ATOM     14  C   UNL d   1      25.816  -9.946   2.477  0.00  0.00     0.210 C 
ENDBRANCH  10  13
BRANCH  11  15
ATOM     15  O   UNL d   1      27.457 -12.445   5.676  0.00  0.00    -0.353 OA
ATOM     16  C   UNL d   1      28.158 -13.454   6.335  0.00  0.00     0.210 C 
ENDBRANCH  11  15
ENDBRANCH   6   7
BRANCH   6  17
ATOM     17  N   UNL d   1      31.806 -14.135   2.793  0.00  0.00    -0.069 N 
ATOM     18  C   UNL d   1      32.759 -14.542   1.674  0.00  0.00     0.270 C 
ATOM     19  C   UNL d   1      32.059 -12.686   3.098  0.00  0.00     0.270 C 
ATOM     20  H   UNL d   1      32.045 -14.661   3.646  0.00  0.00     0.279 HD
ENDBRANCH   6  17
ENDBRANCH   5   6
ENDBRANCH   1   5
BRANCH   2  21
ATOM     21  C   UNL d   1      26.839 -16.270  -0.316  0.00  0.00     0.090 A 
ATOM     22  C   UNL d   1      26.622 -17.277   0.596  0.00  0.00     0.139 A 
ATOM     23  N   UNL d   1      25.586 -18.158   0.528  0.00  0.00    -0.234 NA
ATOM     24  C   UNL d   1      24.749 -18.019  -0.509  0.00  0.00     0.189 A 
ATOM     25  N   UNL d   1      24.870 -17.071  -1.438  0.00  0.00    -0.210 NA
ATOM     26  C   UNL d   1      25.922 -16.253  -1.337  0.00  0.00     0.146 A 
ATOM     27 CL   UNL d   1      26.032 -15.265  -2.722  0.00  0.00    -0.061 Cl
BRANCH  24  28
ATOM     28  S   UNL d   1      23.435 -19.131  -0.839  0.00  0.00    -0.086 SA
BRANCH  28  29
ATOM     29  C   UNL d   1      21.929 -18.158  -0.528  0.00  0.00     0.121 C 
BRANCH  29  30
ATOM     30  C   UNL d   1      20.793 -19.040  -0.029  0.00  0.00    -0.049 A 
ATOM     31  C   UNL d   1      19.788 -19.516  -0.893  0.00  0.00     0.008 A 
ATOM     32  C   UNL d   1      18.692 -20.226  -0.411  0.00  0.00     0.001 A 
ATOM     33  C   UNL d   1      18.606 -20.528   0.942  0.00  0.00     0.000 A 
ATOM     34  C   UNL d   1      19.592 -20.076   1.817  0.00  0.00     0.001 A 
ATOM     35  C   UNL d   1      20.672 -19.325   1.339  0.00  0.00     0.008 A 
ENDBRANCH  29  30
ENDBRANCH  28  29
ENDBRANCH  24  28
ENDBRANCH   2  21
TORSDOF 10
ENDMDL
MODEL 3
REMARK VINA RESULT:    -9.674      3.414      6.139
REMARK INTER + INTRA:         -14.195
REMARK INTER:                 -12.657
REMARK INTRA:                  -1.538
REMARK CONF_INDEPENDENT:        2.983
REMARK UNBOUND:                -1.538
REMARK  10 active torsions:
REMARK  status: ('A' for Active; 'I' for Inactive)
REMARK    1  A    between atoms: O_2  and  C_3 
REMARK    2  A    between atoms: C_6  and  C_7 
REMARK    3  A    between atoms: C_7  and  C_8 
REMARK    4  A    between atoms: C_7  and  N_27 
REMARK    5  A    between atoms: C_8  and  N_9 
REMARK       I    between atoms: N_9  and  C_10 
REMARK    6  A    between atoms: C_10  and  C_12 
REMARK    7  A    between atoms: C_15  and  S_16 
REMARK    8  A    between atoms: S_16  and  C_17 
REMARK    9  A    between atoms: C_17  and  C_18 
REMARK   10  A    between atoms: C_31  and  O_32 
ROOT
ATOM      1  N   UNL d   1      28.569 -15.505   0.598  0.00  0.00    -0.354 N 
ATOM      2  C   UNL d   1      27.753 -15.554  -0.507  0.00  0.00     0.256 C 
ATOM      3  O   UNL d   1      27.966 -14.879  -1.517  0.00  0.00    -0.268 OA
ATOM      4  H   UNL d   1      28.399 -16.186   1.325  0.00  0.00     0.162 HD
ENDROOT
BRANCH   1   5
ATOM      5  C   UNL d   1      29.671 -14.551   0.738  0.00  0.00     0.161 C 
BRANCH   5   6
ATOM      6  C   UNL d   1      31.116 -15.160   0.566  0.00  0.00     0.237 C 
BRANCH   6   7
ATOM      7  C   UNL d   1      31.155 -16.046  -0.675  0.00  0.00    -0.023 C 
ATOM      8  C   UNL d   1      31.414 -15.534  -1.940  0.00  0.00     0.012 C 
ATOM      9  C   UNL d   1      31.273 -16.331  -3.086  0.00  0.00     0.040 C 
ATOM     10  C   UNL d   1      31.117 -17.721  -3.011  0.00  0.00     0.101 C 
ATOM     11  C   UNL d   1      30.997 -18.268  -1.731  0.00  0.00     0.102 C 
ATOM     12  C   UNL d   1      30.917 -17.419  -0.621  0.00  0.00     0.049 C 
BRANCH  10  13
ATOM     13  O   UNL d   1      31.373 -18.335  -4.208  0.00  0.00    -0.353 OA
ATOM     14  C   UNL d   1      30.406 -19.155  -4.855  0.00  0.00     0.210 C 
ENDBRANCH  10  13
BRANCH  11  15
ATOM     15  O   UNL d   1      31.021 -19.554  -1.254  0.00  0.00    -0.353 OA
ATOM     16  C   UNL d   1      31.875 -19.735  -0.168  0.00  0.00     0.210 C 
ENDBRANCH  11  15
ENDBRANCH   6   7
BRANCH   6  17
ATOM     17  N   UNL d   1      31.560 -15.918   1.841  0.00  0.00    -0.069 N 
ATOM     18  C   UNL d   1      32.960 -16.511   1.716  0.00  0.00     0.270 C 
ATOM     19  C   UNL d   1      31.527 -15.100   3.100  0.00  0.00     0.270 C 
ATOM     20  H   UNL d   1      30.881 -16.682   1.969  0.00  0.00     0.279 HD
ENDBRANCH   6  17
ENDBRANCH   5   6
ENDBRANCH   1   5
BRANCH   2  21
ATOM     21  C   UNL d   1      26.631 -16.507  -0.466  0.00  0.00     0.090 A 
ATOM     22  C   UNL d   1      26.686 -17.649   0.300  0.00  0.00     0.139 A 
ATOM     23  N   UNL d   1      25.688 -18.573   0.364  0.00  0.00    -0.234 NA
ATOM     24  C   UNL d   1      24.602 -18.335  -0.384  0.00  0.00     0.189 A 
ATOM     25  N   UNL d   1      24.451 -17.254  -1.149  0.00  0.00    -0.210 NA
ATOM     26  C   UNL d   1      25.476 -16.396  -1.197  0.00  0.00     0.146 A 
ATOM     27 CL   UNL d   1      25.191 -15.211  -2.388  0.00  0.00    -0.061 Cl
BRANCH  24  28
ATOM     28  S   UNL d   1      23.271 -19.465  -0.532  0.00  0.00    -0.086 SA
BRANCH  28  29
ATOM     29  C   UNL d   1      21.785 -18.418  -0.539  0.00  0.00     0.121 C 
BRANCH  29  30
ATOM     30  C   UNL d   1      20.600 -19.133   0.095  0.00  0.00    -0.049 A 
ATOM     31  C   UNL d   1      20.507 -19.325   1.486  0.00  0.00     0.008 A 
ATOM     32  C   UNL d   1      19.479 -20.077   2.049  0.00  0.00     0.001 A 
ATOM     33  C   UNL d   1      18.485 -20.606   1.235  0.00  0.00     0.000 A 
ATOM     34  C   UNL d   1      18.551 -20.423  -0.145  0.00  0.00     0.001 A 
ATOM     35  C   UNL d   1      19.607 -19.703  -0.715  0.00  0.00     0.008 A 
ENDBRANCH  29  30
ENDBRANCH  28  29
ENDBRANCH  24  28
ENDBRANCH   2  21
TORSDOF 10
ENDMDL
MODEL 4
REMARK VINA RESULT:    -9.668      3.530      5.276
REMARK INTER + INTRA:         -13.684
REMARK INTER:                 -12.651
REMARK INTRA:                  -1.033
REMARK CONF_INDEPENDENT:        2.983
REMARK UNBOUND:                -1.033
REMARK  10 active torsions:
REMARK  status: ('A' for Active; 'I' for Inactive)
REMARK    1  A    between atoms: O_2  and  C_3 
REMARK    2  A    between atoms: C_6  and  C_7 
REMARK    3  A    between atoms: C_7  and  C_8 
REMARK    4  A    between atoms: C_7  and  N_27 
REMARK    5  A    between atoms: C_8  and  N_9 
REMARK       I    between atoms: N_9  and  C_10 
REMARK    6  A    between atoms: C_10  and  C_12 
REMARK    7  A    between atoms: C_15  and  S_16 
REMARK    8  A    between atoms: S_16  and  C_17 
REMARK    9  A    between atoms: C_17  and  C_18 
REMARK   10  A    between atoms: C_31  and  O_32 
ROOT
ATOM      1  N   UNL d   1      29.608 -16.622  -0.181  0.00  0.00    -0.354 N 
ATOM      2  C   UNL d   1      28.783 -16.893  -1.246  0.00  0.00     0.256 C 
ATOM      3  O   UNL d   1      29.219 -17.151  -2.371  0.00  0.00    -0.268 OA
ATOM      4  H   UNL d   1      29.174 -16.553   0.729  0.00  0.00     0.162 HD
ENDROOT
BRANCH   1   5
ATOM      5  C   UNL d   1      31.058 -16.470  -0.309  0.00  0.00     0.161 C 
BRANCH   5   6
ATOM      6  C   UNL d   1      31.770 -15.753   0.901  0.00  0.00     0.237 C 
BRANCH   6   7
ATOM      7  C   UNL d   1      32.731 -16.724   1.581  0.00  0.00    -0.023 C 
ATOM      8  C   UNL d   1      34.109 -16.616   1.446  0.00  0.00     0.012 C 
ATOM      9  C   UNL d   1      34.965 -17.617   1.931  0.00  0.00     0.040 C 
ATOM     10  C   UNL d   1      34.514 -18.632   2.784  0.00  0.00     0.101 C 
ATOM     11  C   UNL d   1      33.141 -18.665   3.044  0.00  0.00     0.102 C 
ATOM     12  C   UNL d   1      32.287 -17.790   2.364  0.00  0.00     0.049 C 
BRANCH  10  13
ATOM     13  O   UNL d   1      35.545 -19.261   3.429  0.00  0.00    -0.353 OA
ATOM     14  C   UNL d   1      36.591 -18.533   4.064  0.00  0.00     0.210 C 
ENDBRANCH  10  13
BRANCH  11  15
ATOM     15  O   UNL d   1      32.373 -19.361   3.943  0.00  0.00    -0.353 OA
ATOM     16  C   UNL d   1      31.932 -20.595   3.470  0.00  0.00     0.210 C 
ENDBRANCH  11  15
ENDBRANCH   6   7
BRANCH   6  17
ATOM     17  N   UNL d   1      30.736 -15.163   1.892  0.00  0.00    -0.069 N 
ATOM     18  C   UNL d   1      31.374 -14.673   3.187  0.00  0.00     0.270 C 
ATOM     19  C   UNL d   1      29.912 -14.036   1.339  0.00  0.00     0.270 C 
ATOM     20  H   UNL d   1      30.081 -15.929   2.107  0.00  0.00     0.279 HD
ENDBRANCH   6  17
ENDBRANCH   5   6
ENDBRANCH   1   5
BRANCH   2  21
ATOM     21  C   UNL d   1      27.336 -16.928  -0.978  0.00  0.00     0.090 A 
ATOM     22  C   UNL d   1      26.803 -17.758  -0.018  0.00  0.00     0.139 A 
ATOM     23  N   UNL d   1      25.474 -17.846   0.262  0.00  0.00    -0.234 NA
ATOM     24  C   UNL d   1      24.656 -17.073  -0.467  0.00  0.00     0.189 A 
ATOM     25  N   UNL d   1      25.076 -16.231  -1.410  0.00  0.00    -0.210 NA
ATOM     26  C   UNL d   1      26.389 -16.209  -1.663  0.00  0.00     0.146 A 
ATOM     27 CL   UNL d   1      26.705 -15.252  -3.038  0.00  0.00    -0.061 Cl
BRANCH  24  28
ATOM     28  S   UNL d   1      22.909 -17.139  -0.342  0.00  0.00    -0.086 SA
BRANCH  28  29
ATOM     29  C   UNL d   1      22.472 -18.795  -0.953  0.00  0.00     0.121 C 
BRANCH  29  30
ATOM     30  C   UNL d   1      21.177 -19.294  -0.327  0.00  0.00    -0.049 A 
ATOM     31  C   UNL d   1      20.080 -19.697  -1.111  0.00  0.00     0.008 A 
ATOM     32  C   UNL d   1      18.861 -20.044  -0.534  0.00  0.00     0.001 A 
ATOM     33  C   UNL d   1      18.730 -20.051   0.849  0.00  0.00     0.000 A 
ATOM     34  C   UNL d   1      19.804 -19.663   1.648  0.00  0.00     0.001 A 
ATOM     35  C   UNL d   1      21.016 -19.274   1.066  0.00  0.00     0.008 A 
ENDBRANCH  29  30
ENDBRANCH  28  29
ENDBRANCH  24  28
ENDBRANCH   2  21
TORSDOF 10
ENDMDL
MODEL 5
REMARK VINA RESULT:    -9.469      3.751      9.323
REMARK INTER + INTRA:         -13.974
REMARK INTER:                 -12.452
REMARK INTRA:                  -1.522
REMARK CONF_INDEPENDENT:        2.983
REMARK UNBOUND:                -1.522
REMARK  10 active torsions:
REMARK  status: ('A' for Active; 'I' for Inactive)
REMARK    1  A    between atoms: O_2  and  C_3 
REMARK    2  A    between atoms: C_6  and  C_7 
REMARK    3  A    between atoms: C_7  and  C_8 
REMARK    4  A    between atoms: C_7  and  N_27 
REMARK    5  A    between atoms: C_8  and  N_9 
REMARK       I    between atoms: N_9  and  C_10 
REMARK    6  A    between atoms: C_10  and  C_12 
REMARK    7  A    between atoms: C_15  and  S_16 
REMARK    8  A    between atoms: S_16  and  C_17 
REMARK    9  A    between atoms: C_17  and  C_18 
REMARK   10  A    between atoms: C_31  and  O_32 
ROOT
ATOM      1  N   UNL d   1      29.222 -14.798   0.934  0.00  0.00    -0.354 N 
ATOM      2  C   UNL d   1      28.128 -14.164   1.471  0.00  0.00     0.256 C 
ATOM      3  O   UNL d   1      27.116 -13.916   0.810  0.00  0.00    -0.268 OA
ATOM      4  H   UNL d   1      29.950 -15.079   1.575  0.00  0.00     0.162 HD
ENDROOT
BRANCH   1   5
ATOM      5  C   UNL d   1      29.349 -15.107  -0.491  0.00  0.00     0.161 C 
BRANCH   5   6
ATOM      6  C   UNL d   1      29.118 -16.619  -0.877  0.00  0.00     0.237 C 
BRANCH   6   7
ATOM      7  C   UNL d   1      27.668 -17.004  -0.596  0.00  0.00    -0.023 C 
ATOM      8  C   UNL d   1      27.302 -17.730   0.529  0.00  0.00     0.012 C 
ATOM      9  C   UNL d   1      25.997 -18.224   0.678  0.00  0.00     0.040 C 
ATOM     10  C   UNL d   1      24.945 -17.809  -0.149  0.00  0.00     0.101 C 
ATOM     11  C   UNL d   1      25.280 -16.960  -1.206  0.00  0.00     0.102 C 
ATOM     12  C   UNL d   1      26.625 -16.669  -1.460  0.00  0.00     0.049 C 
BRANCH  10  13
ATOM     13  O   UNL d   1      23.720 -18.105   0.386  0.00  0.00    -0.353 OA
ATOM     14  C   UNL d   1      22.547 -18.179  -0.417  0.00  0.00     0.210 C 
ENDBRANCH  10  13
BRANCH  11  15
ATOM     15  O   UNL d   1      24.534 -16.216  -2.084  0.00  0.00    -0.353 OA
ATOM     16  C   UNL d   1      25.099 -14.980  -2.395  0.00  0.00     0.210 C 
ENDBRANCH  11  15
ENDBRANCH   6   7
BRANCH   6  17
ATOM     17  N   UNL d   1      30.122 -17.544  -0.146  0.00  0.00    -0.069 N 
ATOM     18  C   UNL d   1      30.465 -18.793  -0.951  0.00  0.00     0.270 C 
ATOM     19  C   UNL d   1      31.415 -16.885   0.239  0.00  0.00     0.270 C 
ATOM     20  H   UNL d   1      29.662 -17.825   0.732  0.00  0.00     0.279 HD
ENDBRANCH   6  17
ENDBRANCH   5   6
ENDBRANCH   1   5
BRANCH   2  21
ATOM     21  C   UNL d   1      28.182 -13.839   2.906  0.00  0.00     0.090 A 
ATOM     22  C   UNL d   1      28.212 -14.827   3.865  0.00  0.00     0.139 A 
ATOM     23  N   UNL d   1      28.245 -14.588   5.205  0.00  0.00    -0.234 NA
ATOM     24  C   UNL d   1      28.235 -13.303   5.585  0.00  0.00     0.189 A 
ATOM     25  N   UNL d   1      28.217 -12.278   4.733  0.00  0.00    -0.210 NA
ATOM     26  C   UNL d   1      28.154 -12.572   3.430  0.00  0.00     0.146 A 
ATOM     27 CL   UNL d   1      27.912 -11.151   2.520  0.00  0.00    -0.061 Cl
BRANCH  24  28
ATOM     28  S   UNL d   1      28.146 -12.797   7.261  0.00  0.00    -0.086 SA
BRANCH  28  29
ATOM     29  C   UNL d   1      29.520 -13.670   8.071  0.00  0.00     0.121 C 
BRANCH  29  30
ATOM     30  C   UNL d   1      29.231 -13.911   9.547  0.00  0.00    -0.049 A 
ATOM     31  C   UNL d   1      29.918 -14.890  10.288  0.00  0.00     0.008 A 
ATOM     32  C   UNL d   1      29.571 -15.182  11.605  0.00  0.00     0.001 A 
ATOM     33  C   UNL d   1      28.565 -14.458  12.229  0.00  0.00     0.000 A 
ATOM     34  C   UNL d   1      27.874 -13.477  11.520  0.00  0.00     0.001 A 
ATOM     35  C   UNL d   1      28.194 -13.213  10.183  0.00  0.00     0.008 A 
ENDBRANCH  29  30
ENDBRANCH  28  29
ENDBRANCH  24  28
ENDBRANCH   2  21
TORSDOF 10
ENDMDL
MODEL 6
REMARK VINA RESULT:    -9.241      1.215      2.027
REMARK INTER + INTRA:         -14.099
REMARK INTER:                 -12.224
REMARK INTRA:                  -1.874
REMARK CONF_INDEPENDENT:        2.983
REMARK UNBOUND:                -1.874
REMARK  10 active torsions:
REMARK  status: ('A' for Active; 'I' for Inactive)
REMARK    1  A    between atoms: O_2  and  C_3 
REMARK    2  A    between atoms: C_6  and  C_7 
REMARK    3  A    between atoms: C_7  and  C_8 
REMARK    4  A    between atoms: C_7  and  N_27 
REMARK    5  A    between atoms: C_8  and  N_9 
REMARK       I    between atoms: N_9  and  C_10 
REMARK    6  A    between atoms: C_10  and  C_12 
REMARK    7  A    between atoms: C_15  and  S_16 
REMARK    8  A    between atoms: S_16  and  C_17 
REMARK    9  A    between atoms: C_17  and  C_18 
REMARK   10  A    between atoms: C_31  and  O_32 
ROOT
ATOM      1  N   UNL d   1      28.479 -15.376   0.984  0.00  0.00    -0.354 N 
ATOM      2  C   UNL d   1      27.673 -15.342  -0.128  0.00  0.00     0.256 C 
ATOM      3  O   UNL d   1      27.876 -14.570  -1.069  0.00  0.00    -0.268 OA
ATOM      4  H   UNL d   1      28.320 -16.125   1.643  0.00  0.00     0.162 HD
ENDROOT
BRANCH   1   5
ATOM      5  C   UNL d   1      29.557 -14.414   1.223  0.00  0.00     0.161 C 
BRANCH   5   6
ATOM      6  C   UNL d   1      29.088 -12.969   1.646  0.00  0.00     0.237 C 
BRANCH   6   7
ATOM      7  C   UNL d   1      28.908 -12.911   3.160  0.00  0.00    -0.023 C 
ATOM      8  C   UNL d   1      29.314 -13.945   3.993  0.00  0.00     0.012 C 
ATOM      9  C   UNL d   1      28.982 -13.949   5.357  0.00  0.00     0.040 C 
ATOM     10  C   UNL d   1      28.457 -12.820   5.998  0.00  0.00     0.101 C 
ATOM     11  C   UNL d   1      28.175 -11.716   5.189  0.00  0.00     0.102 C 
ATOM     12  C   UNL d   1      28.308 -11.826   3.800  0.00  0.00     0.049 C 
BRANCH  10  13
ATOM     13  O   UNL d   1      28.558 -12.907   7.361  0.00  0.00    -0.353 OA
ATOM     14  C   UNL d   1      29.057 -14.074   8.005  0.00  0.00     0.210 C 
ENDBRANCH  10  13
BRANCH  11  15
ATOM     15  O   UNL d   1      27.845 -10.413   5.461  0.00  0.00    -0.353 OA
ATOM     16  C   UNL d   1      28.947  -9.581   5.642  0.00  0.00     0.210 C 
ENDBRANCH  11  15
ENDBRANCH   6   7
BRANCH   6  17
ATOM     17  N   UNL d   1      27.805 -12.550   0.887  0.00  0.00    -0.069 N 
ATOM     18  C   UNL d   1      26.530 -12.928   1.633  0.00  0.00     0.270 C 
ATOM     19  C   UNL d   1      27.721 -11.087   0.558  0.00  0.00     0.270 C 
ATOM     20  H   UNL d   1      27.830 -13.053  -0.012  0.00  0.00     0.279 HD
ENDBRANCH   6  17
ENDBRANCH   5   6
ENDBRANCH   1   5
BRANCH   2  21
ATOM     21  C   UNL d   1      26.574 -16.320  -0.187  0.00  0.00     0.090 A 
ATOM     22  C   UNL d   1      26.600 -17.475   0.561  0.00  0.00     0.139 A 
ATOM     23  N   UNL d   1      25.623 -18.422   0.536  0.00  0.00    -0.234 NA
ATOM     24  C   UNL d   1      24.589 -18.195  -0.287  0.00  0.00     0.189 A 
ATOM     25  N   UNL d   1      24.468 -17.103  -1.042  0.00  0.00    -0.210 NA
ATOM     26  C   UNL d   1      25.473 -16.221  -0.999  0.00  0.00     0.146 A 
ATOM     27 CL   UNL d   1      25.248 -15.020  -2.187  0.00  0.00    -0.061 Cl
BRANCH  24  28
ATOM     28  S   UNL d   1      23.300 -19.352  -0.552  0.00  0.00    -0.086 SA
BRANCH  28  29
ATOM     29  C   UNL d   1      21.782 -18.349  -0.551  0.00  0.00     0.121 C 
BRANCH  29  30
ATOM     30  C   UNL d   1      20.621 -19.102   0.083  0.00  0.00    -0.049 A 
ATOM     31  C   UNL d   1      20.563 -19.349   1.467  0.00  0.00     0.008 A 
ATOM     32  C   UNL d   1      19.557 -20.135   2.024  0.00  0.00     0.001 A 
ATOM     33  C   UNL d   1      18.551 -20.644   1.214  0.00  0.00     0.000 A 
ATOM     34  C   UNL d   1      18.581 -20.408  -0.159  0.00  0.00     0.001 A 
ATOM     35  C   UNL d   1      19.616 -19.653  -0.725  0.00  0.00     0.008 A 
ENDBRANCH  29  30
ENDBRANCH  28  29
ENDBRANCH  24  28
ENDBRANCH   2  21
TORSDOF 10
ENDMDL
MODEL 7
REMARK VINA RESULT:    -8.873      3.737      9.265
REMARK INTER + INTRA:         -13.876
REMARK INTER:                 -11.856
REMARK INTRA:                  -2.020
REMARK CONF_INDEPENDENT:        2.983
REMARK UNBOUND:                -2.020
REMARK  10 active torsions:
REMARK  status: ('A' for Active; 'I' for Inactive)
REMARK    1  A    between atoms: O_2  and  C_3 
REMARK    2  A    between atoms: C_6  and  C_7 
REMARK    3  A    between atoms: C_7  and  C_8 
REMARK    4  A    between atoms: C_7  and  N_27 
REMARK    5  A    between atoms: C_8  and  N_9 
REMARK       I    between atoms: N_9  and  C_10 
REMARK    6  A    between atoms: C_10  and  C_12 
REMARK    7  A    between atoms: C_15  and  S_16 
REMARK    8  A    between atoms: S_16  and  C_17 
REMARK    9  A    between atoms: C_17  and  C_18 
REMARK   10  A    between atoms: C_31  and  O_32 
ROOT
ATOM      1  N   UNL d   1      29.293 -15.009   1.283  0.00  0.00    -0.354 N 
ATOM      2  C   UNL d   1      28.380 -14.345   2.068  0.00  0.00     0.256 C 
ATOM      3  O   UNL d   1      27.362 -13.826   1.603  0.00  0.00    -0.268 OA
ATOM      4  H   UNL d   1      30.025 -15.515   1.760  0.00  0.00     0.162 HD
ENDROOT
BRANCH   1   5
ATOM      5  C   UNL d   1      29.221 -15.038  -0.179  0.00  0.00     0.161 C 
BRANCH   5   6
ATOM      6  C   UNL d   1      29.022 -16.467  -0.815  0.00  0.00     0.237 C 
BRANCH   6   7
ATOM      7  C   UNL d   1      27.583 -16.927  -0.603  0.00  0.00    -0.023 C 
ATOM      8  C   UNL d   1      27.240 -17.855   0.372  0.00  0.00     0.012 C 
ATOM      9  C   UNL d   1      25.946 -18.394   0.435  0.00  0.00     0.040 C 
ATOM     10  C   UNL d   1      24.880 -17.857  -0.297  0.00  0.00     0.101 C 
ATOM     11  C   UNL d   1      25.189 -16.822  -1.183  0.00  0.00     0.102 C 
ATOM     12  C   UNL d   1      26.526 -16.461  -1.385  0.00  0.00     0.049 C 
BRANCH  10  13
ATOM     13  O   UNL d   1      23.665 -18.271   0.180  0.00  0.00    -0.353 OA
ATOM     14  C   UNL d   1      22.555 -18.497  -0.682  0.00  0.00     0.210 C 
ENDBRANCH  10  13
BRANCH  11  15
ATOM     15  O   UNL d   1      24.421 -15.945  -1.906  0.00  0.00    -0.353 OA
ATOM     16  C   UNL d   1      25.157 -15.125  -2.759  0.00  0.00     0.210 C 
ENDBRANCH  11  15
ENDBRANCH   6   7
BRANCH   6  17
ATOM     17  N   UNL d   1      30.050 -17.480  -0.253  0.00  0.00    -0.069 N 
ATOM     18  C   UNL d   1      30.407 -18.573  -1.255  0.00  0.00     0.270 C 
ATOM     19  C   UNL d   1      31.335 -16.868   0.226  0.00  0.00     0.270 C 
ATOM     20  H   UNL d   1      29.604 -17.910   0.570  0.00  0.00     0.279 HD
ENDBRANCH   6  17
ENDBRANCH   5   6
ENDBRANCH   1   5
BRANCH   2  21
ATOM     21  C   UNL d   1      28.633 -14.329   3.518  0.00  0.00     0.090 A 
ATOM     22  C   UNL d   1      27.612 -14.492   4.426  0.00  0.00     0.139 A 
ATOM     23  N   UNL d   1      27.782 -14.469   5.777  0.00  0.00    -0.234 NA
ATOM     24  C   UNL d   1      29.029 -14.262   6.221  0.00  0.00     0.189 A 
ATOM     25  N   UNL d   1      30.084 -14.103   5.421  0.00  0.00    -0.210 NA
ATOM     26  C   UNL d   1      29.853 -14.104   4.104  0.00  0.00     0.146 A 
ATOM     27 CL   UNL d   1      31.268 -13.666   3.261  0.00  0.00    -0.061 Cl
BRANCH  24  28
ATOM     28  S   UNL d   1      29.427 -14.074   7.917  0.00  0.00    -0.086 SA
BRANCH  28  29
ATOM     29  C   UNL d   1      28.801 -12.421   8.349  0.00  0.00     0.121 C 
BRANCH  29  30
ATOM     30  C   UNL d   1      28.833 -11.485   7.149  0.00  0.00    -0.049 A 
ATOM     31  C   UNL d   1      27.780 -11.440   6.215  0.00  0.00     0.008 A 
ATOM     32  C   UNL d   1      27.865 -10.666   5.060  0.00  0.00     0.001 A 
ATOM     33  C   UNL d   1      28.985  -9.873   4.843  0.00  0.00     0.000 A 
ATOM     34  C   UNL d   1      30.037  -9.894   5.756  0.00  0.00     0.001 A 
ATOM     35  C   UNL d   1      29.970 -10.704   6.895  0.00  0.00     0.008 A 
ENDBRANCH  29  30
ENDBRANCH  28  29
ENDBRANCH  24  28
ENDBRANCH   2  21
TORSDOF 10
ENDMDL
MODEL 8
REMARK VINA RESULT:    -8.678      1.602      2.546
REMARK INTER + INTRA:         -13.804
REMARK INTER:                 -11.661
REMARK INTRA:                  -2.142
REMARK CONF_INDEPENDENT:        2.983
REMARK UNBOUND:                -2.142
REMARK  10 active torsions:
REMARK  status: ('A' for Active; 'I' for Inactive)
REMARK    1  A    between atoms: O_2  and  C_3 
REMARK    2  A    between atoms: C_6  and  C_7 
REMARK    3  A    between atoms: C_7  and  C_8 
REMARK    4  A    between atoms: C_7  and  N_27 
REMARK    5  A    between atoms: C_8  and  N_9 
REMARK       I    between atoms: N_9  and  C_10 
REMARK    6  A    between atoms: C_10  and  C_12 
REMARK    7  A    between atoms: C_15  and  S_16 
REMARK    8  A    between atoms: S_16  and  C_17 
REMARK    9  A    between atoms: C_17  and  C_18 
REMARK   10  A    between atoms: C_31  and  O_32 
ROOT
ATOM      1  N   UNL d   1      28.598 -15.981   0.528  0.00  0.00    -0.354 N 
ATOM      2  C   UNL d   1      28.044 -16.256  -0.699  0.00  0.00     0.256 C 
ATOM      3  O   UNL d   1      28.632 -16.021  -1.758  0.00  0.00    -0.268 OA
ATOM      4  H   UNL d   1      28.107 -16.325   1.341  0.00  0.00     0.162 HD
ENDROOT
BRANCH   1   5
ATOM      5  C   UNL d   1      29.860 -15.257   0.693  0.00  0.00     0.161 C 
BRANCH   5   6
ATOM      6  C   UNL d   1      29.760 -13.689   0.563  0.00  0.00     0.237 C 
BRANCH   6   7
ATOM      7  C   UNL d   1      29.230 -13.099   1.867  0.00  0.00    -0.023 C 
ATOM      8  C   UNL d   1      29.287 -11.738   2.138  0.00  0.00     0.012 C 
ATOM      9  C   UNL d   1      28.957 -11.239   3.407  0.00  0.00     0.040 C 
ATOM     10  C   UNL d   1      28.322 -12.027   4.375  0.00  0.00     0.101 C 
ATOM     11  C   UNL d   1      28.129 -13.374   4.055  0.00  0.00     0.102 C 
ATOM     12  C   UNL d   1      28.673 -13.888   2.873  0.00  0.00     0.049 C 
BRANCH  10  13
ATOM     13  O   UNL d   1      27.761 -11.272   5.370  0.00  0.00    -0.353 OA
ATOM     14  C   UNL d   1      28.532 -10.367   6.153  0.00  0.00     0.210 C 
ENDBRANCH  10  13
BRANCH  11  15
ATOM     15  O   UNL d   1      27.405 -14.382   4.638  0.00  0.00    -0.353 OA
ATOM     16  C   UNL d   1      28.155 -15.200   5.480  0.00  0.00     0.210 C 
ENDBRANCH  11  15
ENDBRANCH   6   7
BRANCH   6  17
ATOM     17  N   UNL d   1      28.900 -13.281  -0.657  0.00  0.00    -0.069 N 
ATOM     18  C   UNL d   1      27.444 -13.017  -0.290  0.00  0.00     0.270 C 
ATOM     19  C   UNL d   1      29.403 -12.079  -1.404  0.00  0.00     0.270 C 
ATOM     20  H   UNL d   1      28.943 -14.074  -1.314  0.00  0.00     0.279 HD
ENDBRANCH   6  17
ENDBRANCH   5   6
ENDBRANCH   1   5
BRANCH   2  21
ATOM     21  C   UNL d   1      26.726 -16.912  -0.705  0.00  0.00     0.090 A 
ATOM     22  C   UNL d   1      26.446 -17.969   0.131  0.00  0.00     0.139 A 
ATOM     23  N   UNL d   1      25.254 -18.624   0.158  0.00  0.00    -0.234 NA
ATOM     24  C   UNL d   1      24.317 -18.200  -0.701  0.00  0.00     0.189 A 
ATOM     25  N   UNL d   1      24.489 -17.180  -1.541  0.00  0.00    -0.210 NA
ATOM     26  C   UNL d   1      25.690 -16.593  -1.546  0.00  0.00     0.146 A 
ATOM     27 CL   UNL d   1      25.791 -15.475  -2.828  0.00  0.00    -0.061 Cl
BRANCH  24  28
ATOM     28  S   UNL d   1      22.768 -18.995  -0.903  0.00  0.00    -0.086 SA
BRANCH  28  29
ATOM     29  C   UNL d   1      21.842 -18.574   0.605  0.00  0.00     0.121 C 
BRANCH  29  30
ATOM     30  C   UNL d   1      20.588 -19.428   0.742  0.00  0.00    -0.049 A 
ATOM     31  C   UNL d   1      19.795 -19.765  -0.371  0.00  0.00     0.008 A 
ATOM     32  C   UNL d   1      18.591 -20.449  -0.225  0.00  0.00     0.001 A 
ATOM     33  C   UNL d   1      18.182 -20.863   1.036  0.00  0.00     0.000 A 
ATOM     34  C   UNL d   1      18.953 -20.548   2.153  0.00  0.00     0.001 A 
ATOM     35  C   UNL d   1      20.142 -19.824   2.011  0.00  0.00     0.008 A 
ENDBRANCH  29  30
ENDBRANCH  28  29
ENDBRANCH  24  28
ENDBRANCH   2  21
TORSDOF 10
ENDMDL
MODEL 9
REMARK VINA RESULT:    -8.580      5.075     10.166
REMARK INTER + INTRA:         -13.669
REMARK INTER:                 -11.563
REMARK INTRA:                  -2.105
REMARK CONF_INDEPENDENT:        2.983
REMARK UNBOUND:                -2.105
REMARK  10 active torsions:
REMARK  status: ('A' for Active; 'I' for Inactive)
REMARK    1  A    between atoms: O_2  and  C_3 
REMARK    2  A    between atoms: C_6  and  C_7 
REMARK    3  A    between atoms: C_7  and  C_8 
REMARK    4  A    between atoms: C_7  and  N_27 
REMARK    5  A    between atoms: C_8  and  N_9 
REMARK       I    between atoms: N_9  and  C_10 
REMARK    6  A    between atoms: C_10  and  C_12 
REMARK    7  A    between atoms: C_15  and  S_16 
REMARK    8  A    between atoms: S_16  and  C_17 
REMARK    9  A    between atoms: C_17  and  C_18 
REMARK   10  A    between atoms: C_31  and  O_32 
ROOT
ATOM      1  N   UNL d   1      27.374 -13.327   1.496  0.00  0.00    -0.354 N 
ATOM      2  C   UNL d   1      27.672 -13.946   2.686  0.00  0.00     0.256 C 
ATOM      3  O   UNL d   1      27.779 -15.171   2.787  0.00  0.00    -0.268 OA
ATOM      4  H   UNL d   1      27.436 -12.319   1.475  0.00  0.00     0.162 HD
ENDROOT
BRANCH   1   5
ATOM      5  C   UNL d   1      27.014 -14.059   0.280  0.00  0.00     0.161 C 
BRANCH   5   6
ATOM      6  C   UNL d   1      28.184 -14.885  -0.379  0.00  0.00     0.237 C 
BRANCH   6   7
ATOM      7  C   UNL d   1      27.984 -14.942  -1.891  0.00  0.00    -0.023 C 
ATOM      8  C   UNL d   1      29.034 -15.182  -2.768  0.00  0.00     0.012 C 
ATOM      9  C   UNL d   1      28.863 -15.056  -4.154  0.00  0.00     0.040 C 
ATOM     10  C   UNL d   1      27.596 -14.936  -4.740  0.00  0.00     0.101 C 
ATOM     11  C   UNL d   1      26.511 -14.837  -3.865  0.00  0.00     0.102 C 
ATOM     12  C   UNL d   1      26.739 -14.739  -2.488  0.00  0.00     0.049 C 
BRANCH  10  13
ATOM     13  O   UNL d   1      27.621 -15.203  -6.083  0.00  0.00    -0.353 OA
ATOM     14  C   UNL d   1      28.720 -14.826  -6.904  0.00  0.00     0.210 C 
ENDBRANCH  10  13
BRANCH  11  15
ATOM     15  O   UNL d   1      25.153 -14.896  -4.046  0.00  0.00    -0.353 OA
ATOM     16  C   UNL d   1      24.496 -13.699  -3.767  0.00  0.00     0.210 C 
ENDBRANCH  11  15
ENDBRANCH   6   7
BRANCH   6  17
ATOM     17  N   UNL d   1      28.300 -16.296   0.249  0.00  0.00    -0.069 N 
ATOM     18  C   UNL d   1      26.981 -17.061   0.225  0.00  0.00     0.270 C 
ATOM     19  C   UNL d   1      29.344 -17.176  -0.374  0.00  0.00     0.270 C 
ATOM     20  H   UNL d   1      28.586 -16.148   1.228  0.00  0.00     0.279 HD
ENDBRANCH   6  17
ENDBRANCH   5   6
ENDBRANCH   1   5
BRANCH   2  21
ATOM     21  C   UNL d   1      27.926 -13.076   3.846  0.00  0.00     0.090 A 
ATOM     22  C   UNL d   1      27.889 -11.704   3.736  0.00  0.00     0.139 A 
ATOM     23  N   UNL d   1      28.132 -10.850   4.768  0.00  0.00    -0.234 NA
ATOM     24  C   UNL d   1      28.435 -11.407   5.949  0.00  0.00     0.189 A 
ATOM     25  N   UNL d   1      28.485 -12.722   6.157  0.00  0.00    -0.210 NA
ATOM     26  C   UNL d   1      28.268 -13.513   5.101  0.00  0.00     0.146 A 
ATOM     27 CL   UNL d   1      28.595 -15.135   5.507  0.00  0.00    -0.061 Cl
BRANCH  24  28
ATOM     28  S   UNL d   1      28.901 -10.476   7.359  0.00  0.00    -0.086 SA
BRANCH  28  29
ATOM     29  C   UNL d   1      30.015 -11.579   8.282  0.00  0.00     0.121 C 
BRANCH  29  30
ATOM     30  C   UNL d   1      29.234 -12.592   9.107  0.00  0.00    -0.049 A 
ATOM     31  C   UNL d   1      28.415 -12.200  10.183  0.00  0.00     0.008 A 
ATOM     32  C   UNL d   1      27.793 -13.138  11.003  0.00  0.00     0.001 A 
ATOM     33  C   UNL d   1      27.930 -14.492  10.728  0.00  0.00     0.000 A 
ATOM     34  C   UNL d   1      28.729 -14.906   9.664  0.00  0.00     0.001 A 
ATOM     35  C   UNL d   1      29.388 -13.964   8.866  0.00  0.00     0.008 A 
ENDBRANCH  29  30
ENDBRANCH  28  29
ENDBRANCH  24  28
ENDBRANCH   2  21
TORSDOF 10
ENDMDL
