MODEL 1
REMARK VINA RESULT:    -8.096      0.000      0.000
REMARK INTER + INTRA:         -12.552
REMARK INTER:                 -10.781
REMARK INTRA:                  -1.771
REMARK CONF_INDEPENDENT:        2.685
REMARK UNBOUND:                -1.771
REMARK  9 active torsions:
REMARK  status: ('A' for Active; 'I' for Inactive)
REMARK    1  A    between atoms: C_2  and  O_4 
REMARK    2  A    between atoms: O_4  and  C_5 
REMARK    3  A    between atoms: C_9  and  C_10 
REMARK    4  A    between atoms: C_10  and  C_11 
REMARK       I    between atoms: C_11  and  N_13 
REMARK    5  A    between atoms: N_13  and  N_14 
REMARK       I    between atoms: N_14  and  C_15 
REMARK       I    between atoms: C_15  and  N_17 
REMARK    6  A    between atoms: N_17  and  C_18 
REMARK    7  A    between atoms: C_18  and  C_19 
REMARK    8  A    between atoms: C_19  and  C_20 
REMARK    9  A    between atoms: C_20  and  N_21 
ROOT
ATOM      1  C   UNL d   1      25.664 -15.042  -3.393  0.00  0.00     0.240 C 
ATOM      2  O   UNL d   1      25.096 -14.828  -4.468  0.00  0.00    -0.272 OA
ATOM      3  N   UNL d   1      27.009 -15.313  -3.512  0.00  0.00    -0.266 N 
ATOM      4  H   UNL d   1      27.672 -15.433  -2.753  0.00  0.00     0.190 HD
ENDROOT
BRANCH   3   5
ATOM      5  N   UNL d   1      27.527 -15.298  -4.856  0.00  0.00    -0.249 N 
ATOM      6  C   UNL d   1      28.877 -15.266  -5.074  0.00  0.00     0.334 C 
ATOM      7  O   UNL d   1      29.689 -15.231  -4.148  0.00  0.00    -0.246 OA
ATOM      8  N   UNL d   1      29.262 -15.277  -6.400  0.00  0.00    -0.342 N 
ATOM      9  H   UNL d   1      28.552 -15.323  -7.119  0.00  0.00     0.164 HD
ATOM     10  H   UNL d   1      26.811 -15.313  -5.585  0.00  0.00     0.192 HD
BRANCH   8  11
ATOM     11  C   UNL d   1      30.680 -15.263  -6.738  0.00  0.00     0.126 C 
BRANCH  11  12
ATOM     12  C   UNL d   1      31.380 -16.608  -6.541  0.00  0.00     0.040 C 
BRANCH  12  13
ATOM     13  C   UNL d   1      30.409 -17.707  -6.097  0.00  0.00     0.130 C 
BRANCH  13  14
ATOM     14  N   UNL d   1      30.714 -19.015  -6.717  0.00  0.00    -0.352 N 
ATOM     15  C   UNL d   1      30.970 -19.234  -8.071  0.00  0.00     0.108 A 
ATOM     16  C   UNL d   1      31.207 -20.573  -8.222  0.00  0.00     0.106 A 
ATOM     17  N   UNL d   1      31.070 -21.130  -6.975  0.00  0.00    -0.361 N 
ATOM     18  C   UNL d   1      30.751 -20.196  -6.074  0.00  0.00     0.182 A 
ATOM     19  H   UNL d   1      31.185 -22.117  -6.753  0.00  0.00     0.166 HD
ENDBRANCH  13  14
ENDBRANCH  12  13
ENDBRANCH  11  12
ENDBRANCH   8  11
ENDBRANCH   3   5
BRANCH   1  20
ATOM     20  C   UNL d   1      25.003 -15.021  -1.970  0.00  0.00     0.143 C 
BRANCH  20  21
ATOM     21  C   UNL d   1      24.541 -16.359  -1.364  0.00  0.00    -0.047 C 
ATOM     22  C   UNL d   1      25.394 -17.308  -0.794  0.00  0.00     0.007 C 
ATOM     23  C   UNL d   1      24.859 -18.475  -0.201  0.00  0.00     0.003 C 
ATOM     24  C   UNL d   1      23.480 -18.765  -0.260  0.00  0.00     0.037 C 
ATOM     25  C   UNL d   1      22.621 -17.843  -0.829  0.00  0.00     0.069 C 
ATOM     26  C   UNL d   1      23.183 -16.657  -1.271  0.00  0.00     0.044 C 
BRANCH  25  27
ATOM     27  O   UNL d   1      21.259 -17.990  -0.755  0.00  0.00    -0.347 OA
BRANCH  27  28
ATOM     28  C   UNL d   1      20.710 -19.288  -0.393  0.00  0.00     0.120 C 
ATOM     29  C   UNL d   1      20.616 -19.330   1.133  0.00  0.00     0.040 C 
ATOM     30  C   UNL d   1      19.302 -19.645  -0.876  0.00  0.00     0.040 C 
ENDBRANCH  27  28
ENDBRANCH  25  27
ENDBRANCH  20  21
ENDBRANCH   1  20
TORSDOF 9
ENDMDL
MODEL 2
REMARK VINA RESULT:    -8.043      0.905      1.311
REMARK INTER + INTRA:         -12.628
REMARK INTER:                 -10.728
REMARK INTRA:                  -1.901
REMARK CONF_INDEPENDENT:        2.685
REMARK UNBOUND:                -1.901
REMARK  9 active torsions:
REMARK  status: ('A' for Active; 'I' for Inactive)
REMARK    1  A    between atoms: C_2  and  O_4 
REMARK    2  A    between atoms: O_4  and  C_5 
REMARK    3  A    between atoms: C_9  and  C_10 
REMARK    4  A    between atoms: C_10  and  C_11 
REMARK       I    between atoms: C_11  and  N_13 
REMARK    5  A    between atoms: N_13  and  N_14 
REMARK       I    between atoms: N_14  and  C_15 
REMARK       I    between atoms: C_15  and  N_17 
REMARK    6  A    between atoms: N_17  and  C_18 
REMARK    7  A    between atoms: C_18  and  C_19 
REMARK    8  A    between atoms: C_19  and  C_20 
REMARK    9  A    between atoms: C_20  and  N_21 
ROOT
ATOM      1  C   UNL d   1      25.767 -15.113  -3.389  0.00  0.00     0.240 C 
ATOM      2  O   UNL d   1      25.170 -15.006  -4.465  0.00  0.00    -0.272 OA
ATOM      3  N   UNL d   1      27.129 -15.277  -3.515  0.00  0.00    -0.266 N 
ATOM      4  H   UNL d   1      27.808 -15.300  -2.762  0.00  0.00     0.190 HD
ENDROOT
BRANCH   3   5
ATOM      5  N   UNL d   1      27.627 -15.294  -4.867  0.00  0.00    -0.249 N 
ATOM      6  C   UNL d   1      28.923 -15.653  -5.118  0.00  0.00     0.334 C 
ATOM      7  O   UNL d   1      29.706 -15.953  -4.216  0.00  0.00    -0.246 OA
ATOM      8  N   UNL d   1      29.287 -15.655  -6.450  0.00  0.00    -0.342 N 
ATOM      9  H   UNL d   1      28.598 -15.416  -7.151  0.00  0.00     0.164 HD
ATOM     10  H   UNL d   1      26.942 -15.022  -5.574  0.00  0.00     0.192 HD
BRANCH   8  11
ATOM     11  C   UNL d   1      30.643 -16.041  -6.824  0.00  0.00     0.126 C 
BRANCH  11  12
ATOM     12  C   UNL d   1      30.778 -17.501  -7.257  0.00  0.00     0.040 C 
BRANCH  12  13
ATOM     13  C   UNL d   1      31.931 -18.213  -6.541  0.00  0.00     0.130 C 
BRANCH  13  14
ATOM     14  N   UNL d   1      31.465 -19.332  -5.692  0.00  0.00    -0.352 N 
ATOM     15  C   UNL d   1      31.886 -19.593  -4.388  0.00  0.00     0.108 A 
ATOM     16  C   UNL d   1      31.214 -20.708  -3.967  0.00  0.00     0.106 A 
ATOM     17  N   UNL d   1      30.427 -21.103  -5.020  0.00  0.00    -0.361 N 
ATOM     18  C   UNL d   1      30.596 -20.287  -6.065  0.00  0.00     0.182 A 
ATOM     19  H   UNL d   1      29.802 -21.905  -5.022  0.00  0.00     0.166 HD
ENDBRANCH  13  14
ENDBRANCH  12  13
ENDBRANCH  11  12
ENDBRANCH   8  11
ENDBRANCH   3   5
BRANCH   1  20
ATOM     20  C   UNL d   1      25.123 -15.068  -1.958  0.00  0.00     0.143 C 
BRANCH  20  21
ATOM     21  C   UNL d   1      24.637 -16.391  -1.339  0.00  0.00    -0.047 C 
ATOM     22  C   UNL d   1      25.473 -17.348  -0.757  0.00  0.00     0.007 C 
ATOM     23  C   UNL d   1      24.917 -18.500  -0.153  0.00  0.00     0.003 C 
ATOM     24  C   UNL d   1      23.534 -18.767  -0.212  0.00  0.00     0.037 C 
ATOM     25  C   UNL d   1      22.691 -17.837  -0.794  0.00  0.00     0.069 C 
ATOM     26  C   UNL d   1      23.274 -16.666  -1.247  0.00  0.00     0.044 C 
BRANCH  25  27
ATOM     27  O   UNL d   1      21.327 -17.960  -0.722  0.00  0.00    -0.347 OA
BRANCH  27  28
ATOM     28  C   UNL d   1      20.754 -19.256  -0.390  0.00  0.00     0.120 C 
ATOM     29  C   UNL d   1      20.645 -19.326   1.134  0.00  0.00     0.040 C 
ATOM     30  C   UNL d   1      19.345 -19.582  -0.893  0.00  0.00     0.040 C 
ENDBRANCH  27  28
ENDBRANCH  25  27
ENDBRANCH  20  21
ENDBRANCH   1  20
TORSDOF 9
ENDMDL
MODEL 3
REMARK VINA RESULT:    -7.769      3.495      4.677
REMARK INTER + INTRA:         -12.372
REMARK INTER:                 -10.453
REMARK INTRA:                  -1.919
REMARK CONF_INDEPENDENT:        2.685
REMARK UNBOUND:                -1.919
REMARK  9 active torsions:
REMARK  status: ('A' for Active; 'I' for Inactive)
REMARK    1  A    between atoms: C_2  and  O_4 
REMARK    2  A    between atoms: O_4  and  C_5 
REMARK    3  A    between atoms: C_9  and  C_10 
REMARK    4  A    between atoms: C_10  and  C_11 
REMARK       I    between atoms: C_11  and  N_13 
REMARK    5  A    between atoms: N_13  and  N_14 
REMARK       I    between atoms: N_14  and  C_15 
REMARK       I    between atoms: C_15  and  N_17 
REMARK    6  A    between atoms: N_17  and  C_18 
REMARK    7  A    between atoms: C_18  and  C_19 
REMARK    8  A    between atoms: C_19  and  C_20 
REMARK    9  A    between atoms: C_20  and  N_21 
ROOT
ATOM      1  C   UNL d   1      25.195 -14.154  -2.448  0.00  0.00     0.240 C 
ATOM      2  O   UNL d   1      24.287 -14.490  -3.214  0.00  0.00    -0.272 OA
ATOM      3  N   UNL d   1      25.843 -12.996  -2.817  0.00  0.00    -0.266 N 
ATOM      4  H   UNL d   1      26.556 -12.506  -2.287  0.00  0.00     0.190 HD
ENDROOT
BRANCH   3   5
ATOM      5  N   UNL d   1      25.359 -12.374  -4.022  0.00  0.00    -0.249 N 
ATOM      6  C   UNL d   1      26.077 -11.373  -4.617  0.00  0.00     0.334 C 
ATOM      7  O   UNL d   1      27.139 -10.960  -4.147  0.00  0.00    -0.246 OA
ATOM      8  N   UNL d   1      25.531 -10.863  -5.778  0.00  0.00    -0.342 N 
ATOM      9  H   UNL d   1      24.665 -11.251  -6.128  0.00  0.00     0.164 HD
ATOM     10  H   UNL d   1      24.468 -12.742  -4.361  0.00  0.00     0.192 HD
BRANCH   8  11
ATOM     11  C   UNL d   1      26.230  -9.806  -6.499  0.00  0.00     0.126 C 
BRANCH  11  12
ATOM     12  C   UNL d   1      26.723 -10.218  -7.886  0.00  0.00     0.040 C 
BRANCH  12  13
ATOM     13  C   UNL d   1      28.227 -10.515  -7.901  0.00  0.00     0.130 C 
BRANCH  13  14
ATOM     14  N   UNL d   1      28.531 -11.913  -7.522  0.00  0.00    -0.352 N 
ATOM     15  C   UNL d   1      28.800 -12.365  -6.230  0.00  0.00     0.108 A 
ATOM     16  C   UNL d   1      29.024 -13.712  -6.316  0.00  0.00     0.106 A 
ATOM     17  N   UNL d   1      28.906 -14.036  -7.645  0.00  0.00    -0.361 N 
ATOM     18  C   UNL d   1      28.632 -12.949  -8.372  0.00  0.00     0.182 A 
ATOM     19  H   UNL d   1      29.015 -14.969  -8.036  0.00  0.00     0.166 HD
ENDBRANCH  13  14
ENDBRANCH  12  13
ENDBRANCH  11  12
ENDBRANCH   8  11
ENDBRANCH   3   5
BRANCH   1  20
ATOM     20  C   UNL d   1      25.638 -14.905  -1.143  0.00  0.00     0.143 C 
BRANCH  20  21
ATOM     21  C   UNL d   1      25.021 -16.287  -0.856  0.00  0.00    -0.047 C 
ATOM     22  C   UNL d   1      25.748 -17.411  -0.453  0.00  0.00     0.007 C 
ATOM     23  C   UNL d   1      25.075 -18.616  -0.147  0.00  0.00     0.003 C 
ATOM     24  C   UNL d   1      23.684 -18.752  -0.336  0.00  0.00     0.037 C 
ATOM     25  C   UNL d   1      22.949 -17.653  -0.745  0.00  0.00     0.069 C 
ATOM     26  C   UNL d   1      23.640 -16.463  -0.899  0.00  0.00     0.044 C 
BRANCH  25  27
ATOM     27  O   UNL d   1      21.578 -17.678  -0.774  0.00  0.00    -0.347 OA
BRANCH  27  28
ATOM     28  C   UNL d   1      20.893 -18.949  -0.591  0.00  0.00     0.120 C 
ATOM     29  C   UNL d   1      21.004 -19.315   0.890  0.00  0.00     0.040 C 
ATOM     30  C   UNL d   1      19.394 -19.021  -0.895  0.00  0.00     0.040 C 
ENDBRANCH  27  28
ENDBRANCH  25  27
ENDBRANCH  20  21
ENDBRANCH   1  20
TORSDOF 9
ENDMDL
MODEL 4
REMARK VINA RESULT:    -7.755      5.019      7.892
REMARK INTER + INTRA:         -12.389
REMARK INTER:                 -10.439
REMARK INTRA:                  -1.950
REMARK CONF_INDEPENDENT:        2.685
REMARK UNBOUND:                -1.950
REMARK  9 active torsions:
REMARK  status: ('A' for Active; 'I' for Inactive)
REMARK    1  A    between atoms: C_2  and  O_4 
REMARK    2  A    between atoms: O_4  and  C_5 
REMARK    3  A    between atoms: C_9  and  C_10 
REMARK    4  A    between atoms: C_10  and  C_11 
REMARK       I    between atoms: C_11  and  N_13 
REMARK    5  A    between atoms: N_13  and  N_14 
REMARK       I    between atoms: N_14  and  C_15 
REMARK       I    between atoms: C_15  and  N_17 
REMARK    6  A    between atoms: N_17  and  C_18 
REMARK    7  A    between atoms: C_18  and  C_19 
REMARK    8  A    between atoms: C_19  and  C_20 
REMARK    9  A    between atoms: C_20  and  N_21 
ROOT
ATOM      1  C   UNL d   1      25.126 -14.550  -3.399  0.00  0.00     0.240 C 
ATOM      2  O   UNL d   1      23.942 -14.257  -3.587  0.00  0.00    -0.272 OA
ATOM      3  N   UNL d   1      25.978 -13.468  -3.387  0.00  0.00    -0.266 N 
ATOM      4  H   UNL d   1      26.969 -13.479  -3.167  0.00  0.00     0.190 HD
ENDROOT
BRANCH   3   5
ATOM      5  N   UNL d   1      25.353 -12.186  -3.591  0.00  0.00    -0.249 N 
ATOM      6  C   UNL d   1      26.061 -11.034  -3.384  0.00  0.00     0.334 C 
ATOM      7  O   UNL d   1      27.234 -11.044  -3.006  0.00  0.00    -0.246 OA
ATOM      8  N   UNL d   1      25.370  -9.864  -3.629  0.00  0.00    -0.342 N 
ATOM      9  H   UNL d   1      24.414  -9.915  -3.955  0.00  0.00     0.164 HD
ATOM     10  H   UNL d   1      24.377 -12.234  -3.889  0.00  0.00     0.192 HD
BRANCH   8  11
ATOM     11  C   UNL d   1      26.042  -8.582  -3.456  0.00  0.00     0.126 C 
BRANCH  11  12
ATOM     12  C   UNL d   1      26.666  -8.027  -4.737  0.00  0.00     0.040 C 
BRANCH  12  13
ATOM     13  C   UNL d   1      25.673  -8.013  -5.905  0.00  0.00     0.130 C 
BRANCH  13  14
ATOM     14  N   UNL d   1      24.383  -7.385  -5.544  0.00  0.00    -0.352 N 
ATOM     15  C   UNL d   1      24.179  -6.027  -5.300  0.00  0.00     0.108 A 
ATOM     16  C   UNL d   1      22.853  -5.867  -5.004  0.00  0.00     0.106 A 
ATOM     17  N   UNL d   1      22.296  -7.121  -5.055  0.00  0.00    -0.361 N 
ATOM     18  C   UNL d   1      23.222  -8.036  -5.357  0.00  0.00     0.182 A 
ATOM     19  H   UNL d   1      21.317  -7.339  -4.883  0.00  0.00     0.166 HD
ENDBRANCH  13  14
ENDBRANCH  12  13
ENDBRANCH  11  12
ENDBRANCH   8  11
ENDBRANCH   3   5
BRANCH   1  20
ATOM     20  C   UNL d   1      25.706 -15.991  -3.174  0.00  0.00     0.143 C 
BRANCH  20  21
ATOM     21  C   UNL d   1      25.338 -16.726  -1.872  0.00  0.00    -0.047 C 
ATOM     22  C   UNL d   1      26.259 -17.122  -0.898  0.00  0.00     0.007 C 
ATOM     23  C   UNL d   1      25.808 -17.730   0.297  0.00  0.00     0.003 C 
ATOM     24  C   UNL d   1      24.448 -18.046   0.495  0.00  0.00     0.037 C 
ATOM     25  C   UNL d   1      23.523 -17.672  -0.463  0.00  0.00     0.069 C 
ATOM     26  C   UNL d   1      24.003 -16.959  -1.549  0.00  0.00     0.044 C 
BRANCH  25  27
ATOM     27  O   UNL d   1      22.174 -17.794  -0.243  0.00  0.00    -0.347 OA
BRANCH  27  28
ATOM     28  C   UNL d   1      21.550 -19.098  -0.406  0.00  0.00     0.120 C 
ATOM     29  C   UNL d   1      20.659 -19.330   0.815  0.00  0.00     0.040 C 
ATOM     30  C   UNL d   1      20.625 -19.320  -1.606  0.00  0.00     0.040 C 
ENDBRANCH  27  28
ENDBRANCH  25  27
ENDBRANCH  20  21
ENDBRANCH   1  20
TORSDOF 9
ENDMDL
MODEL 5
REMARK VINA RESULT:    -7.542      7.971     11.398
REMARK INTER + INTRA:         -12.109
REMARK INTER:                 -10.227
REMARK INTRA:                  -1.882
REMARK CONF_INDEPENDENT:        2.685
REMARK UNBOUND:                -1.882
REMARK  9 active torsions:
REMARK  status: ('A' for Active; 'I' for Inactive)
REMARK    1  A    between atoms: C_2  and  O_4 
REMARK    2  A    between atoms: O_4  and  C_5 
REMARK    3  A    between atoms: C_9  and  C_10 
REMARK    4  A    between atoms: C_10  and  C_11 
REMARK       I    between atoms: C_11  and  N_13 
REMARK    5  A    between atoms: N_13  and  N_14 
REMARK       I    between atoms: N_14  and  C_15 
REMARK       I    between atoms: C_15  and  N_17 
REMARK    6  A    between atoms: N_17  and  C_18 
REMARK    7  A    between atoms: C_18  and  C_19 
REMARK    8  A    between atoms: C_19  and  C_20 
REMARK    9  A    between atoms: C_20  and  N_21 
ROOT
ATOM      1  C   UNL d   1      27.673 -14.799   1.648  0.00  0.00     0.240 C 
ATOM      2  O   UNL d   1      27.159 -13.705   1.399  0.00  0.00    -0.272 OA
ATOM      3  N   UNL d   1      28.150 -14.916   2.935  0.00  0.00    -0.266 N 
ATOM      4  H   UNL d   1      28.529 -15.753   3.366  0.00  0.00     0.190 HD
ENDROOT
BRANCH   3   5
ATOM      5  N   UNL d   1      27.972 -13.756   3.769  0.00  0.00    -0.249 N 
ATOM      6  C   UNL d   1      28.146 -13.847   5.122  0.00  0.00     0.334 C 
ATOM      7  O   UNL d   1      28.441 -14.908   5.675  0.00  0.00    -0.246 OA
ATOM      8  N   UNL d   1      27.971 -12.670   5.822  0.00  0.00    -0.342 N 
ATOM      9  H   UNL d   1      27.747 -11.824   5.315  0.00  0.00     0.164 HD
ATOM     10  H   UNL d   1      27.714 -12.906   3.263  0.00  0.00     0.192 HD
BRANCH   8  11
ATOM     11  C   UNL d   1      28.153 -12.658   7.269  0.00  0.00     0.126 C 
BRANCH  11  12
ATOM     12  C   UNL d   1      28.833 -11.396   7.801  0.00  0.00     0.040 C 
BRANCH  12  13
ATOM     13  C   UNL d   1      29.595 -11.656   9.105  0.00  0.00     0.130 C 
BRANCH  13  14
ATOM     14  N   UNL d   1      29.020 -12.775   9.883  0.00  0.00    -0.352 N 
ATOM     15  C   UNL d   1      29.436 -14.106   9.822  0.00  0.00     0.108 A 
ATOM     16  C   UNL d   1      28.653 -14.811  10.695  0.00  0.00     0.106 A 
ATOM     17  N   UNL d   1      27.778 -13.905  11.242  0.00  0.00    -0.361 N 
ATOM     18  C   UNL d   1      27.985 -12.686  10.736  0.00  0.00     0.182 A 
ATOM     19  H   UNL d   1      27.062 -14.120  11.932  0.00  0.00     0.166 HD
ENDBRANCH  13  14
ENDBRANCH  12  13
ENDBRANCH  11  12
ENDBRANCH   8  11
ENDBRANCH   3   5
BRANCH   1  20
ATOM     20  C   UNL d   1      27.806 -16.012   0.661  0.00  0.00     0.143 C 
BRANCH  20  21
ATOM     21  C   UNL d   1      26.551 -16.464  -0.107  0.00  0.00    -0.047 C 
ATOM     22  C   UNL d   1      25.778 -17.580   0.226  0.00  0.00     0.007 C 
ATOM     23  C   UNL d   1      24.601 -17.868  -0.505  0.00  0.00     0.003 C 
ATOM     24  C   UNL d   1      24.235 -17.115  -1.639  0.00  0.00     0.037 C 
ATOM     25  C   UNL d   1      24.994 -16.013  -1.991  0.00  0.00     0.069 C 
ATOM     26  C   UNL d   1      26.056 -15.698  -1.160  0.00  0.00     0.044 C 
BRANCH  25  27
ATOM     27  O   UNL d   1      24.587 -15.145  -2.971  0.00  0.00    -0.347 OA
BRANCH  27  28
ATOM     28  C   UNL d   1      25.591 -14.378  -3.693  0.00  0.00     0.120 C 
ATOM     29  C   UNL d   1      26.022 -15.216  -4.897  0.00  0.00     0.040 C 
ATOM     30  C   UNL d   1      25.188 -13.026  -4.288  0.00  0.00     0.040 C 
ENDBRANCH  27  28
ENDBRANCH  25  27
ENDBRANCH  20  21
ENDBRANCH   1  20
TORSDOF 9
ENDMDL
MODEL 6
REMARK VINA RESULT:    -7.516      6.585     10.887
REMARK INTER + INTRA:         -12.006
REMARK INTER:                 -10.200
REMARK INTRA:                  -1.806
REMARK CONF_INDEPENDENT:        2.685
REMARK UNBOUND:                -1.806
REMARK  9 active torsions:
REMARK  status: ('A' for Active; 'I' for Inactive)
REMARK    1  A    between atoms: C_2  and  O_4 
REMARK    2  A    between atoms: O_4  and  C_5 
REMARK    3  A    between atoms: C_9  and  C_10 
REMARK    4  A    between atoms: C_10  and  C_11 
REMARK       I    between atoms: C_11  and  N_13 
REMARK    5  A    between atoms: N_13  and  N_14 
REMARK       I    between atoms: N_14  and  C_15 
REMARK       I    between atoms: C_15  and  N_17 
REMARK    6  A    between atoms: N_17  and  C_18 
REMARK    7  A    between atoms: C_18  and  C_19 
REMARK    8  A    between atoms: C_19  and  C_20 
REMARK    9  A    between atoms: C_20  and  N_21 
ROOT
ATOM      1  C   UNL d   1      26.355 -16.350  -0.396  0.00  0.00     0.240 C 
ATOM      2  O   UNL d   1      26.873 -17.359   0.091  0.00  0.00    -0.272 OA
ATOM      3  N   UNL d   1      26.725 -15.174   0.219  0.00  0.00    -0.266 N 
ATOM      4  H   UNL d   1      26.483 -14.234  -0.076  0.00  0.00     0.190 HD
ENDROOT
BRANCH   3   5
ATOM      5  N   UNL d   1      27.647 -15.314   1.317  0.00  0.00    -0.249 N 
ATOM      6  C   UNL d   1      27.733 -14.339   2.272  0.00  0.00     0.334 C 
ATOM      7  O   UNL d   1      27.052 -13.314   2.225  0.00  0.00    -0.246 OA
ATOM      8  N   UNL d   1      28.633 -14.587   3.290  0.00  0.00    -0.342 N 
ATOM      9  H   UNL d   1      29.154 -15.454   3.287  0.00  0.00     0.164 HD
ATOM     10  H   UNL d   1      28.198 -16.175   1.300  0.00  0.00     0.192 HD
BRANCH   8  11
ATOM     11  C   UNL d   1      28.786 -13.617   4.368  0.00  0.00     0.126 C 
BRANCH  11  12
ATOM     12  C   UNL d   1      28.235 -14.088   5.713  0.00  0.00     0.040 C 
BRANCH  12  13
ATOM     13  C   UNL d   1      29.302 -14.073   6.813  0.00  0.00     0.130 C 
BRANCH  13  14
ATOM     14  N   UNL d   1      28.905 -13.246   7.974  0.00  0.00    -0.352 N 
ATOM     15  C   UNL d   1      28.651 -13.720   9.262  0.00  0.00     0.108 A 
ATOM     16  C   UNL d   1      28.321 -12.638  10.030  0.00  0.00     0.106 A 
ATOM     17  N   UNL d   1      28.362 -11.549   9.194  0.00  0.00    -0.361 N 
ATOM     18  C   UNL d   1      28.691 -11.919   7.954  0.00  0.00     0.182 A 
ATOM     19  H   UNL d   1      28.165 -10.588   9.467  0.00  0.00     0.166 HD
ENDBRANCH  13  14
ENDBRANCH  12  13
ENDBRANCH  11  12
ENDBRANCH   8  11
ENDBRANCH   3   5
BRANCH   1  20
ATOM     20  C   UNL d   1      25.364 -16.306  -1.612  0.00  0.00     0.143 C 
BRANCH  20  21
ATOM     21  C   UNL d   1      25.607 -15.255  -2.711  0.00  0.00    -0.047 C 
ATOM     22  C   UNL d   1      25.191 -13.923  -2.639  0.00  0.00     0.007 C 
ATOM     23  C   UNL d   1      25.528 -13.020  -3.674  0.00  0.00     0.003 C 
ATOM     24  C   UNL d   1      26.191 -13.452  -4.841  0.00  0.00     0.037 C 
ATOM     25  C   UNL d   1      26.601 -14.769  -4.936  0.00  0.00     0.069 C 
ATOM     26  C   UNL d   1      26.365 -15.576  -3.835  0.00  0.00     0.044 C 
BRANCH  25  27
ATOM     27  O   UNL d   1      27.401 -15.200  -5.963  0.00  0.00    -0.347 OA
BRANCH  27  28
ATOM     28  C   UNL d   1      28.789 -14.765  -6.004  0.00  0.00     0.120 C 
ATOM     29  C   UNL d   1      29.657 -16.025  -6.037  0.00  0.00     0.040 C 
ATOM     30  C   UNL d   1      29.261 -13.941  -7.205  0.00  0.00     0.040 C 
ENDBRANCH  27  28
ENDBRANCH  25  27
ENDBRANCH  20  21
ENDBRANCH   1  20
TORSDOF 9
ENDMDL
MODEL 7
REMARK VINA RESULT:    -7.484      4.924      6.596
REMARK INTER + INTRA:         -12.269
REMARK INTER:                 -10.168
REMARK INTRA:                  -2.100
REMARK CONF_INDEPENDENT:        2.685
REMARK UNBOUND:                -2.100
REMARK  9 active torsions:
REMARK  status: ('A' for Active; 'I' for Inactive)
REMARK    1  A    between atoms: C_2  and  O_4 
REMARK    2  A    between atoms: O_4  and  C_5 
REMARK    3  A    between atoms: C_9  and  C_10 
REMARK    4  A    between atoms: C_10  and  C_11 
REMARK       I    between atoms: C_11  and  N_13 
REMARK    5  A    between atoms: N_13  and  N_14 
REMARK       I    between atoms: N_14  and  C_15 
REMARK       I    between atoms: C_15  and  N_17 
REMARK    6  A    between atoms: N_17  and  C_18 
REMARK    7  A    between atoms: C_18  and  C_19 
REMARK    8  A    between atoms: C_19  and  C_20 
REMARK    9  A    between atoms: C_20  and  N_21 
ROOT
ATOM      1  C   UNL d   1      25.402 -14.100  -2.550  0.00  0.00     0.240 C 
ATOM      2  O   UNL d   1      24.309 -14.326  -3.076  0.00  0.00    -0.272 OA
ATOM      3  N   UNL d   1      26.124 -13.097  -3.160  0.00  0.00    -0.266 N 
ATOM      4  H   UNL d   1      27.002 -12.702  -2.839  0.00  0.00     0.190 HD
ENDROOT
BRANCH   3   5
ATOM      5  N   UNL d   1      25.489 -12.483  -4.297  0.00  0.00    -0.249 N 
ATOM      6  C   UNL d   1      26.245 -11.890  -5.270  0.00  0.00     0.334 C 
ATOM      7  O   UNL d   1      27.475 -11.843  -5.208  0.00  0.00    -0.246 OA
ATOM      8  N   UNL d   1      25.535 -11.351  -6.325  0.00  0.00    -0.342 N 
ATOM      9  H   UNL d   1      24.526 -11.433  -6.333  0.00  0.00     0.164 HD
ATOM     10  H   UNL d   1      24.469 -12.536  -4.292  0.00  0.00     0.192 HD
BRANCH   8  11
ATOM     11  C   UNL d   1      26.250 -10.713  -7.424  0.00  0.00     0.126 C 
BRANCH  11  12
ATOM     12  C   UNL d   1      27.253  -9.649  -6.980  0.00  0.00     0.040 C 
BRANCH  12  13
ATOM     13  C   UNL d   1      26.566  -8.428  -6.358  0.00  0.00     0.130 C 
BRANCH  13  14
ATOM     14  N   UNL d   1      26.246  -8.628  -4.927  0.00  0.00    -0.352 N 
ATOM     15  C   UNL d   1      27.175  -8.821  -3.905  0.00  0.00     0.108 A 
ATOM     16  C   UNL d   1      26.468  -8.960  -2.742  0.00  0.00     0.106 A 
ATOM     17  N   UNL d   1      25.142  -8.869  -3.086  0.00  0.00    -0.361 N 
ATOM     18  C   UNL d   1      25.009  -8.692  -4.404  0.00  0.00     0.182 A 
ATOM     19  H   UNL d   1      24.358  -8.932  -2.440  0.00  0.00     0.166 HD
ENDBRANCH  13  14
ENDBRANCH  12  13
ENDBRANCH  11  12
ENDBRANCH   8  11
ENDBRANCH   3   5
BRANCH   1  20
ATOM     20  C   UNL d   1      25.999 -14.827  -1.294  0.00  0.00     0.143 C 
BRANCH  20  21
ATOM     21  C   UNL d   1      25.449 -16.219  -0.931  0.00  0.00    -0.047 C 
ATOM     22  C   UNL d   1      26.236 -17.301  -0.528  0.00  0.00     0.007 C 
ATOM     23  C   UNL d   1      25.623 -18.519  -0.148  0.00  0.00     0.003 C 
ATOM     24  C   UNL d   1      24.231 -18.710  -0.265  0.00  0.00     0.037 C 
ATOM     25  C   UNL d   1      23.437 -17.653  -0.672  0.00  0.00     0.069 C 
ATOM     26  C   UNL d   1      24.075 -16.445  -0.900  0.00  0.00     0.044 C 
BRANCH  25  27
ATOM     27  O   UNL d   1      22.068 -17.728  -0.633  0.00  0.00    -0.347 OA
BRANCH  27  28
ATOM     28  C   UNL d   1      21.439 -19.031  -0.477  0.00  0.00     0.120 C 
ATOM     29  C   UNL d   1      21.020 -19.158   0.989  0.00  0.00     0.040 C 
ATOM     30  C   UNL d   1      20.162 -19.324  -1.269  0.00  0.00     0.040 C 
ENDBRANCH  27  28
ENDBRANCH  25  27
ENDBRANCH  20  21
ENDBRANCH   1  20
TORSDOF 9
ENDMDL
MODEL 8
REMARK VINA RESULT:    -7.020      5.575      7.739
REMARK INTER + INTRA:         -11.944
REMARK INTER:                  -9.705
REMARK INTRA:                  -2.240
REMARK CONF_INDEPENDENT:        2.685
REMARK UNBOUND:                -2.240
REMARK  9 active torsions:
REMARK  status: ('A' for Active; 'I' for Inactive)
REMARK    1  A    between atoms: C_2  and  O_4 
REMARK    2  A    between atoms: O_4  and  C_5 
REMARK    3  A    between atoms: C_9  and  C_10 
REMARK    4  A    between atoms: C_10  and  C_11 
REMARK       I    between atoms: C_11  and  N_13 
REMARK    5  A    between atoms: N_13  and  N_14 
REMARK       I    between atoms: N_14  and  C_15 
REMARK       I    between atoms: C_15  and  N_17 
REMARK    6  A    between atoms: N_17  and  C_18 
REMARK    7  A    between atoms: C_18  and  C_19 
REMARK    8  A    between atoms: C_19  and  C_20 
REMARK    9  A    between atoms: C_20  and  N_21 
ROOT
ATOM      1  C   UNL d   1      27.157 -17.549   0.030  0.00  0.00     0.240 C 
ATOM      2  O   UNL d   1      28.250 -17.588  -0.542  0.00  0.00    -0.272 OA
ATOM      3  N   UNL d   1      27.000 -16.468   0.870  0.00  0.00    -0.266 N 
ATOM      4  H   UNL d   1      26.154 -16.205   1.366  0.00  0.00     0.190 HD
ENDROOT
BRANCH   3   5
ATOM      5  N   UNL d   1      28.124 -15.570   0.939  0.00  0.00    -0.249 N 
ATOM      6  C   UNL d   1      27.939 -14.261   1.290  0.00  0.00     0.334 C 
ATOM      7  O   UNL d   1      26.824 -13.801   1.541  0.00  0.00    -0.246 OA
ATOM      8  N   UNL d   1      29.087 -13.496   1.346  0.00  0.00    -0.342 N 
ATOM      9  H   UNL d   1      29.979 -13.930   1.148  0.00  0.00     0.164 HD
ATOM     10  H   UNL d   1      29.022 -15.998   0.708  0.00  0.00     0.192 HD
BRANCH   8  11
ATOM     11  C   UNL d   1      28.999 -12.092   1.729  0.00  0.00     0.126 C 
BRANCH  11  12
ATOM     12  C   UNL d   1      30.160 -11.609   2.598  0.00  0.00     0.040 C 
BRANCH  12  13
ATOM     13  C   UNL d   1      29.903 -11.844   4.091  0.00  0.00     0.130 C 
BRANCH  13  14
ATOM     14  N   UNL d   1      29.165 -13.100   4.347  0.00  0.00    -0.352 N 
ATOM     15  C   UNL d   1      27.814 -13.196   4.682  0.00  0.00     0.108 A 
ATOM     16  C   UNL d   1      27.531 -14.526   4.829  0.00  0.00     0.106 A 
ATOM     17  N   UNL d   1      28.708 -15.196   4.602  0.00  0.00    -0.361 N 
ATOM     18  C   UNL d   1      29.695 -14.335   4.336  0.00  0.00     0.182 A 
ATOM     19  H   UNL d   1      28.829 -16.206   4.636  0.00  0.00     0.166 HD
ENDBRANCH  13  14
ENDBRANCH  12  13
ENDBRANCH  11  12
ENDBRANCH   8  11
ENDBRANCH   3   5
BRANCH   1  20
ATOM     20  C   UNL d   1      25.986 -18.582  -0.127  0.00  0.00     0.143 C 
BRANCH  20  21
ATOM     21  C   UNL d   1      24.567 -18.038  -0.374  0.00  0.00    -0.047 C 
ATOM     22  C   UNL d   1      24.270 -16.705  -0.675  0.00  0.00     0.007 C 
ATOM     23  C   UNL d   1      22.937 -16.323  -0.953  0.00  0.00     0.003 C 
ATOM     24  C   UNL d   1      21.869 -17.236  -0.834  0.00  0.00     0.037 C 
ATOM     25  C   UNL d   1      22.142 -18.557  -0.527  0.00  0.00     0.069 C 
ATOM     26  C   UNL d   1      23.476 -18.904  -0.398  0.00  0.00     0.044 C 
BRANCH  25  27
ATOM     27  O   UNL d   1      21.166 -19.520  -0.572  0.00  0.00    -0.347 OA
BRANCH  27  28
ATOM     28  C   UNL d   1      20.025 -19.409   0.323  0.00  0.00     0.120 C 
ATOM     29  C   UNL d   1      19.005 -20.464  -0.110  0.00  0.00     0.040 C 
ATOM     30  C   UNL d   1      20.240 -19.671   1.816  0.00  0.00     0.040 C 
ENDBRANCH  27  28
ENDBRANCH  25  27
ENDBRANCH  20  21
ENDBRANCH   1  20
TORSDOF 9
ENDMDL
