MODEL 1
REMARK VINA RESULT:    -7.048      0.000      0.000
REMARK INTER + INTRA:         -13.543
REMARK INTER:                 -11.523
REMARK INTRA:                  -2.020
REMARK CONF_INDEPENDENT:        4.474
REMARK UNBOUND:                -2.020
REMARK  15 active torsions:
REMARK  status: ('A' for Active; 'I' for Inactive)
REMARK    1  A    between atoms: C_2  and  C_26 
REMARK    2  A    between atoms: N_3  and  C_4 
REMARK    3  A    between atoms: C_4  and  C_5 
REMARK    4  A    between atoms: C_5  and  C_6 
REMARK    5  A    between atoms: C_6  and  C_7 
REMARK    6  A    between atoms: C_7  and  C_8 
REMARK    7  A    between atoms: C_8  and  C_9 
REMARK    8  A    between atoms: C_9  and  C_10 
REMARK    9  A    between atoms: C_10  and  C_11 
REMARK   10  A    between atoms: C_11  and  C_12 
REMARK   11  A    between atoms: C_12  and  C_13 
REMARK   12  A    between atoms: C_13  and  C_14 
REMARK   13  A    between atoms: C_14  and  C_15 
REMARK   14  A    between atoms: C_15  and  N_16 
REMARK   15  A    between atoms: C_17  and  C_19 
ROOT
ATOM      1  C   UNL d   1      29.749 -15.715  -5.122  0.00  0.00     0.000 C 
ENDROOT
BRANCH   1   2
ATOM      2  C   UNL d   1      28.329 -15.531  -4.614  0.00  0.00     0.000 C 
BRANCH   2   3
ATOM      3  C   UNL d   1      27.493 -14.809  -5.658  0.00  0.00     0.000 C 
BRANCH   3   4
ATOM      4  C   UNL d   1      26.285 -14.159  -5.006  0.00  0.00     0.002 C 
BRANCH   4   5
ATOM      5  C   UNL d   1      25.582 -15.145  -4.081  0.00  0.00     0.022 C 
BRANCH   5   6
ATOM      6  C   UNL d   1      25.330 -14.493  -2.733  0.00  0.00     0.148 C 
BRANCH   6   7
ATOM      7  N   UNL d   1      24.525 -15.392  -1.918  0.00  0.00    -0.297 NA
ATOM      8  C   UNL d   1      25.098 -16.072  -0.979  0.00  0.00     0.026 C 
ATOM      9  C   UNL d   1      26.584 -16.010  -0.672  0.00  0.00     0.067 C 
BRANCH   8  10
ATOM     10  C   UNL d   1      24.191 -16.961  -0.147  0.00  0.00     0.193 C 
ATOM     11  S   UNL d   1      22.430 -16.803  -0.578  0.00  0.00    -0.080 SA
ATOM     12  C   UNL d   1      22.148 -18.518  -0.423  0.00  0.00     0.142 C 
ATOM     13  S   UNL d   1      20.683 -19.285  -0.494  0.00  0.00    -0.052 SA
ATOM     14  N   UNL d   1      23.326 -19.173  -0.261  0.00  0.00    -0.311 N 
ATOM     15  C   UNL d   1      24.483 -18.441  -0.191  0.00  0.00     0.243 C 
ATOM     16  H   UNL d   1      23.366 -20.182  -0.225  0.00  0.00     0.170 HD
ATOM     17  O   UNL d   1      25.585 -18.956  -0.129  0.00  0.00    -0.271 OA
ENDBRANCH   8  10
ENDBRANCH   6   7
ENDBRANCH   5   6
ENDBRANCH   4   5
ENDBRANCH   3   4
ENDBRANCH   2   3
ENDBRANCH   1   2
BRANCH   1  18
ATOM     18  C   UNL d   1      30.102 -17.191  -5.155  0.00  0.00     0.000 C 
BRANCH  18  19
ATOM     19  C   UNL d   1      30.578 -17.581  -6.544  0.00  0.00     0.000 C 
BRANCH  19  20
ATOM     20  C   UNL d   1      31.944 -18.243  -6.457  0.00  0.00     0.000 C 
BRANCH  20  21
ATOM     21  C   UNL d   1      31.979 -19.475  -7.342  0.00  0.00     0.002 C 
BRANCH  21  22
ATOM     22  C   UNL d   1      30.888 -20.459  -6.944  0.00  0.00     0.022 C 
BRANCH  22  23
ATOM     23  C   UNL d   1      31.450 -21.444  -5.929  0.00  0.00     0.148 C 
BRANCH  23  24
ATOM     24  N   UNL d   1      31.841 -20.716  -4.740  0.00  0.00    -0.297 NA
ATOM     25  C   UNL d   1      31.553 -21.157  -3.559  0.00  0.00     0.026 C 
ATOM     26  C   UNL d   1      30.920 -22.509  -3.316  0.00  0.00     0.067 C 
BRANCH  25  27
ATOM     27  C   UNL d   1      31.987 -20.288  -2.376  0.00  0.00     0.193 A 
ATOM     28  S   UNL d   1      31.747 -18.515  -2.841  0.00  0.00    -0.080 SA
ATOM     29  C   UNL d   1      30.708 -18.181  -1.502  0.00  0.00     0.142 A 
ATOM     30  S   UNL d   1      29.907 -16.758  -1.233  0.00  0.00    -0.052 SA
ATOM     31  N   UNL d   1      30.657 -19.250  -0.668  0.00  0.00    -0.311 N 
ATOM     32  C   UNL d   1      31.293 -20.410  -1.036  0.00  0.00     0.243 A 
ATOM     33  H   UNL d   1      30.202 -19.177   0.230  0.00  0.00     0.170 HD
ATOM     34  O   UNL d   1      31.328 -21.395  -0.310  0.00  0.00    -0.271 OA
ENDBRANCH  25  27
ENDBRANCH  23  24
ENDBRANCH  22  23
ENDBRANCH  21  22
ENDBRANCH  20  21
ENDBRANCH  19  20
ENDBRANCH  18  19
ENDBRANCH   1  18
TORSDOF 15
ENDMDL
MODEL 2
REMARK VINA RESULT:    -7.004      5.113      8.315
REMARK INTER + INTRA:         -13.707
REMARK INTER:                 -11.478
REMARK INTRA:                  -2.229
REMARK CONF_INDEPENDENT:        4.474
REMARK UNBOUND:                -2.229
REMARK  15 active torsions:
REMARK  status: ('A' for Active; 'I' for Inactive)
REMARK    1  A    between atoms: C_2  and  C_26 
REMARK    2  A    between atoms: N_3  and  C_4 
REMARK    3  A    between atoms: C_4  and  C_5 
REMARK    4  A    between atoms: C_5  and  C_6 
REMARK    5  A    between atoms: C_6  and  C_7 
REMARK    6  A    between atoms: C_7  and  C_8 
REMARK    7  A    between atoms: C_8  and  C_9 
REMARK    8  A    between atoms: C_9  and  C_10 
REMARK    9  A    between atoms: C_10  and  C_11 
REMARK   10  A    between atoms: C_11  and  C_12 
REMARK   11  A    between atoms: C_12  and  C_13 
REMARK   12  A    between atoms: C_13  and  C_14 
REMARK   13  A    between atoms: C_14  and  C_15 
REMARK   14  A    between atoms: C_15  and  N_16 
REMARK   15  A    between atoms: C_17  and  C_19 
ROOT
ATOM      1  C   UNL d   1      27.764 -12.180  -2.615  0.00  0.00     0.000 C 
ENDROOT
BRANCH   1   2
ATOM      2  C   UNL d   1      27.539 -13.311  -1.627  0.00  0.00     0.000 C 
BRANCH   2   3
ATOM      3  C   UNL d   1      26.720 -12.815  -0.447  0.00  0.00     0.000 C 
BRANCH   3   4
ATOM      4  C   UNL d   1      27.458 -13.083   0.854  0.00  0.00     0.002 C 
BRANCH   4   5
ATOM      5  C   UNL d   1      27.496 -14.577   1.147  0.00  0.00     0.022 C 
BRANCH   5   6
ATOM      6  C   UNL d   1      28.156 -14.818   2.494  0.00  0.00     0.148 C 
BRANCH   6   7
ATOM      7  N   UNL d   1      27.803 -13.727   3.393  0.00  0.00    -0.297 NA
ATOM      8  C   UNL d   1      28.152 -13.801   4.636  0.00  0.00     0.026 C 
ATOM      9  C   UNL d   1      28.904 -14.975   5.239  0.00  0.00     0.067 C 
BRANCH   8  10
ATOM     10  C   UNL d   1      27.783 -12.612   5.506  0.00  0.00     0.193 C 
ATOM     11  S   UNL d   1      28.505 -12.683   7.174  0.00  0.00    -0.080 SA
ATOM     12  C   UNL d   1      28.865 -10.976   7.187  0.00  0.00     0.142 C 
ATOM     13  S   UNL d   1      29.430 -10.100   8.473  0.00  0.00    -0.052 SA
ATOM     14  N   UNL d   1      28.646 -10.442   5.959  0.00  0.00    -0.311 N 
ATOM     15  C   UNL d   1      28.154 -11.251   4.967  0.00  0.00     0.243 C 
ATOM     16  H   UNL d   1      28.869  -9.478   5.758  0.00  0.00     0.170 HD
ATOM     17  O   UNL d   1      28.007 -10.871   3.820  0.00  0.00    -0.271 OA
ENDBRANCH   8  10
ENDBRANCH   6   7
ENDBRANCH   5   6
ENDBRANCH   4   5
ENDBRANCH   3   4
ENDBRANCH   2   3
ENDBRANCH   1   2
BRANCH   1  18
ATOM     18  C   UNL d   1      26.556 -11.261  -2.639  0.00  0.00     0.000 C 
BRANCH  18  19
ATOM     19  C   UNL d   1      25.963 -11.218  -4.037  0.00  0.00     0.000 C 
BRANCH  19  20
ATOM     20  C   UNL d   1      26.207 -12.541  -4.745  0.00  0.00     0.000 C 
BRANCH  20  21
ATOM     21  C   UNL d   1      25.104 -13.525  -4.399  0.00  0.00     0.002 C 
BRANCH  21  22
ATOM     22  C   UNL d   1      25.533 -14.951  -4.712  0.00  0.00     0.022 C 
BRANCH  22  23
ATOM     23  C   UNL d   1      26.410 -15.468  -3.581  0.00  0.00     0.148 C 
BRANCH  23  24
ATOM     24  N   UNL d   1      25.573 -15.756  -2.435  0.00  0.00    -0.297 NA
ATOM     25  C   UNL d   1      26.035 -16.397  -1.412  0.00  0.00     0.026 C 
ATOM     26  C   UNL d   1      27.492 -16.773  -1.264  0.00  0.00     0.067 C 
BRANCH  25  27
ATOM     27  C   UNL d   1      25.051 -16.673  -0.273  0.00  0.00     0.193 A 
ATOM     28  S   UNL d   1      23.338 -16.378  -0.903  0.00  0.00    -0.080 SA
ATOM     29  C   UNL d   1      22.791 -17.970  -0.512  0.00  0.00     0.142 A 
ATOM     30  S   UNL d   1      21.309 -18.600  -0.887  0.00  0.00    -0.052 SA
ATOM     31  N   UNL d   1      23.747 -18.637   0.182  0.00  0.00    -0.311 N 
ATOM     32  C   UNL d   1      24.973 -18.046   0.361  0.00  0.00     0.243 A 
ATOM     33  H   UNL d   1      23.542 -19.531   0.604  0.00  0.00     0.170 HD
ATOM     34  O   UNL d   1      25.862 -18.571   1.018  0.00  0.00    -0.271 OA
ENDBRANCH  25  27
ENDBRANCH  23  24
ENDBRANCH  22  23
ENDBRANCH  21  22
ENDBRANCH  20  21
ENDBRANCH  19  20
ENDBRANCH  18  19
ENDBRANCH   1  18
TORSDOF 15
ENDMDL
MODEL 3
REMARK VINA RESULT:    -6.969      4.958      8.134
REMARK INTER + INTRA:         -13.524
REMARK INTER:                 -11.444
REMARK INTRA:                  -2.080
REMARK CONF_INDEPENDENT:        4.474
REMARK UNBOUND:                -2.080
REMARK  15 active torsions:
REMARK  status: ('A' for Active; 'I' for Inactive)
REMARK    1  A    between atoms: C_2  and  C_26 
REMARK    2  A    between atoms: N_3  and  C_4 
REMARK    3  A    between atoms: C_4  and  C_5 
REMARK    4  A    between atoms: C_5  and  C_6 
REMARK    5  A    between atoms: C_6  and  C_7 
REMARK    6  A    between atoms: C_7  and  C_8 
REMARK    7  A    between atoms: C_8  and  C_9 
REMARK    8  A    between atoms: C_9  and  C_10 
REMARK    9  A    between atoms: C_10  and  C_11 
REMARK   10  A    between atoms: C_11  and  C_12 
REMARK   11  A    between atoms: C_12  and  C_13 
REMARK   12  A    between atoms: C_13  and  C_14 
REMARK   13  A    between atoms: C_14  and  C_15 
REMARK   14  A    between atoms: C_15  and  N_16 
REMARK   15  A    between atoms: C_17  and  C_19 
ROOT
ATOM      1  C   UNL d   1      26.535 -10.237  -2.380  0.00  0.00     0.000 C 
ENDROOT
BRANCH   1   2
ATOM      2  C   UNL d   1      25.917 -10.187  -3.767  0.00  0.00     0.000 C 
BRANCH   2   3
ATOM      3  C   UNL d   1      25.938 -11.571  -4.395  0.00  0.00     0.000 C 
BRANCH   3   4
ATOM      4  C   UNL d   1      25.804 -12.637  -3.320  0.00  0.00     0.002 C 
BRANCH   4   5
ATOM      5  C   UNL d   1      24.990 -13.816  -3.838  0.00  0.00     0.022 C 
BRANCH   5   6
ATOM      6  C   UNL d   1      25.632 -15.118  -3.389  0.00  0.00     0.148 C 
BRANCH   6   7
ATOM      7  N   UNL d   1      24.756 -15.766  -2.423  0.00  0.00    -0.297 NA
ATOM      8  C   UNL d   1      25.274 -16.302  -1.366  0.00  0.00     0.026 C 
ATOM      9  C   UNL d   1      26.762 -16.316  -1.064  0.00  0.00     0.067 C 
BRANCH   8  10
ATOM     10  C   UNL d   1      24.298 -16.928  -0.386  0.00  0.00     0.193 C 
ATOM     11  S   UNL d   1      22.558 -16.769  -0.895  0.00  0.00    -0.080 SA
ATOM     12  C   UNL d   1      22.166 -18.387  -0.372  0.00  0.00     0.142 C 
ATOM     13  S   UNL d   1      20.656 -19.063  -0.317  0.00  0.00    -0.052 SA
ATOM     14  N   UNL d   1      23.296 -19.056  -0.033  0.00  0.00    -0.311 N 
ATOM     15  C   UNL d   1      24.497 -18.395  -0.092  0.00  0.00     0.243 C 
ATOM     16  H   UNL d   1      23.271 -20.032   0.227  0.00  0.00     0.170 HD
ATOM     17  O   UNL d   1      25.562 -18.947   0.117  0.00  0.00    -0.271 OA
ENDBRANCH   8  10
ENDBRANCH   6   7
ENDBRANCH   5   6
ENDBRANCH   4   5
ENDBRANCH   3   4
ENDBRANCH   2   3
ENDBRANCH   1   2
BRANCH   1  18
ATOM     18  C   UNL d   1      27.683  -9.248  -2.285  0.00  0.00     0.000 C 
BRANCH  18  19
ATOM     19  C   UNL d   1      27.169  -7.899  -1.813  0.00  0.00     0.000 C 
BRANCH  19  20
ATOM     20  C   UNL d   1      25.807  -8.062  -1.158  0.00  0.00     0.000 C 
BRANCH  20  21
ATOM     21  C   UNL d   1      25.806  -7.403   0.209  0.00  0.00     0.002 C 
BRANCH  21  22
ATOM     22  C   UNL d   1      25.659  -8.442   1.311  0.00  0.00     0.022 C 
BRANCH  22  23
ATOM     23  C   UNL d   1      27.004  -9.117   1.543  0.00  0.00     0.148 C 
BRANCH  23  24
ATOM     24  N   UNL d   1      26.818 -10.553   1.501  0.00  0.00    -0.297 NA
ATOM     25  C   UNL d   1      27.054 -11.289   2.537  0.00  0.00     0.026 C 
ATOM     26  C   UNL d   1      27.405 -10.718   3.893  0.00  0.00     0.067 C 
BRANCH  25  27
ATOM     27  C   UNL d   1      26.856 -12.798   2.368  0.00  0.00     0.193 A 
ATOM     28  S   UNL d   1      27.377 -13.261   0.656  0.00  0.00    -0.080 SA
ATOM     29  C   UNL d   1      28.540 -14.420   1.196  0.00  0.00     0.142 A 
ATOM     30  S   UNL d   1      29.596 -15.250   0.230  0.00  0.00    -0.052 SA
ATOM     31  N   UNL d   1      28.452 -14.582   2.540  0.00  0.00    -0.311 N 
ATOM     32  C   UNL d   1      27.599 -13.776   3.252  0.00  0.00     0.243 A 
ATOM     33  H   UNL d   1      28.967 -15.318   3.001  0.00  0.00     0.170 HD
ATOM     34  O   UNL d   1      27.435 -13.902   4.458  0.00  0.00    -0.271 OA
ENDBRANCH  25  27
ENDBRANCH  23  24
ENDBRANCH  22  23
ENDBRANCH  21  22
ENDBRANCH  20  21
ENDBRANCH  19  20
ENDBRANCH  18  19
ENDBRANCH   1  18
TORSDOF 15
ENDMDL
MODEL 4
REMARK VINA RESULT:    -6.914      5.454      8.515
REMARK INTER + INTRA:         -13.556
REMARK INTER:                 -11.388
REMARK INTRA:                  -2.168
REMARK CONF_INDEPENDENT:        4.474
REMARK UNBOUND:                -2.168
REMARK  15 active torsions:
REMARK  status: ('A' for Active; 'I' for Inactive)
REMARK    1  A    between atoms: C_2  and  C_26 
REMARK    2  A    between atoms: N_3  and  C_4 
REMARK    3  A    between atoms: C_4  and  C_5 
REMARK    4  A    between atoms: C_5  and  C_6 
REMARK    5  A    between atoms: C_6  and  C_7 
REMARK    6  A    between atoms: C_7  and  C_8 
REMARK    7  A    between atoms: C_8  and  C_9 
REMARK    8  A    between atoms: C_9  and  C_10 
REMARK    9  A    between atoms: C_10  and  C_11 
REMARK   10  A    between atoms: C_11  and  C_12 
REMARK   11  A    between atoms: C_12  and  C_13 
REMARK   12  A    between atoms: C_13  and  C_14 
REMARK   13  A    between atoms: C_14  and  C_15 
REMARK   14  A    between atoms: C_15  and  N_16 
REMARK   15  A    between atoms: C_17  and  C_19 
ROOT
ATOM      1  C   UNL d   1      27.939 -11.823  -0.879  0.00  0.00     0.000 C 
ENDROOT
BRANCH   1   2
ATOM      2  C   UNL d   1      26.826 -12.494  -0.092  0.00  0.00     0.000 C 
BRANCH   2   3
ATOM      3  C   UNL d   1      27.195 -13.938   0.202  0.00  0.00     0.000 C 
BRANCH   3   4
ATOM      4  C   UNL d   1      28.447 -13.995   1.061  0.00  0.00     0.002 C 
BRANCH   4   5
ATOM      5  C   UNL d   1      28.151 -14.674   2.392  0.00  0.00     0.022 C 
BRANCH   5   6
ATOM      6  C   UNL d   1      27.360 -13.731   3.282  0.00  0.00     0.148 C 
BRANCH   6   7
ATOM      7  N   UNL d   1      27.971 -13.707   4.604  0.00  0.00    -0.297 NA
ATOM      8  C   UNL d   1      28.732 -12.712   4.926  0.00  0.00     0.026 C 
ATOM      9  C   UNL d   1      29.052 -11.553   3.998  0.00  0.00     0.067 C 
BRANCH   8  10
ATOM     10  C   UNL d   1      29.305 -12.735   6.332  0.00  0.00     0.193 C 
ATOM     11  S   UNL d   1      28.156 -12.103   7.593  0.00  0.00    -0.080 SA
ATOM     12  C   UNL d   1      28.607 -13.332   8.746  0.00  0.00     0.142 C 
ATOM     13  S   UNL d   1      28.128 -13.420  10.328  0.00  0.00    -0.052 SA
ATOM     14  N   UNL d   1      29.404 -14.259   8.155  0.00  0.00    -0.311 N 
ATOM     15  C   UNL d   1      29.762 -14.080   6.843  0.00  0.00     0.243 C 
ATOM     16  H   UNL d   1      29.706 -15.085   8.651  0.00  0.00     0.170 HD
ATOM     17  O   UNL d   1      30.405 -14.904   6.219  0.00  0.00    -0.271 OA
ENDBRANCH   8  10
ENDBRANCH   6   7
ENDBRANCH   5   6
ENDBRANCH   4   5
ENDBRANCH   3   4
ENDBRANCH   2   3
ENDBRANCH   1   2
BRANCH   1  18
ATOM     18  C   UNL d   1      27.666 -11.939  -2.368  0.00  0.00     0.000 C 
BRANCH  18  19
ATOM     19  C   UNL d   1      26.481 -11.069  -2.749  0.00  0.00     0.000 C 
BRANCH  19  20
ATOM     20  C   UNL d   1      25.533 -11.848  -3.646  0.00  0.00     0.000 C 
BRANCH  20  21
ATOM     21  C   UNL d   1      25.529 -13.313  -3.250  0.00  0.00     0.002 C 
BRANCH  21  22
ATOM     22  C   UNL d   1      26.342 -14.142  -4.233  0.00  0.00     0.022 C 
BRANCH  22  23
ATOM     23  C   UNL d   1      25.871 -15.588  -4.174  0.00  0.00     0.148 C 
BRANCH  23  24
ATOM     24  N   UNL d   1      25.184 -15.805  -2.918  0.00  0.00    -0.297 NA
ATOM     25  C   UNL d   1      25.796 -16.311  -1.898  0.00  0.00     0.026 C 
ATOM     26  C   UNL d   1      27.283 -16.587  -1.882  0.00  0.00     0.067 C 
BRANCH  25  27
ATOM     27  C   UNL d   1      24.962 -16.525  -0.632  0.00  0.00     0.193 A 
ATOM     28  S   UNL d   1      23.179 -16.316  -1.073  0.00  0.00    -0.080 SA
ATOM     29  C   UNL d   1      22.732 -17.887  -0.508  0.00  0.00     0.142 A 
ATOM     30  S   UNL d   1      21.236 -18.578  -0.658  0.00  0.00    -0.052 SA
ATOM     31  N   UNL d   1      23.783 -18.479   0.113  0.00  0.00    -0.311 N 
ATOM     32  C   UNL d   1      25.002 -17.848   0.101  0.00  0.00     0.243 A 
ATOM     33  H   UNL d   1      23.658 -19.344   0.618  0.00  0.00     0.170 HD
ATOM     34  O   UNL d   1      25.979 -18.302   0.683  0.00  0.00    -0.271 OA
ENDBRANCH  25  27
ENDBRANCH  23  24
ENDBRANCH  22  23
ENDBRANCH  21  22
ENDBRANCH  20  21
ENDBRANCH  19  20
ENDBRANCH  18  19
ENDBRANCH   1  18
TORSDOF 15
ENDMDL
MODEL 5
REMARK VINA RESULT:    -6.520      5.247      8.401
REMARK INTER + INTRA:         -13.899
REMARK INTER:                 -10.995
REMARK INTRA:                  -2.904
REMARK CONF_INDEPENDENT:        4.474
REMARK UNBOUND:                -2.904
REMARK  15 active torsions:
REMARK  status: ('A' for Active; 'I' for Inactive)
REMARK    1  A    between atoms: C_2  and  C_26 
REMARK    2  A    between atoms: N_3  and  C_4 
REMARK    3  A    between atoms: C_4  and  C_5 
REMARK    4  A    between atoms: C_5  and  C_6 
REMARK    5  A    between atoms: C_6  and  C_7 
REMARK    6  A    between atoms: C_7  and  C_8 
REMARK    7  A    between atoms: C_8  and  C_9 
REMARK    8  A    between atoms: C_9  and  C_10 
REMARK    9  A    between atoms: C_10  and  C_11 
REMARK   10  A    between atoms: C_11  and  C_12 
REMARK   11  A    between atoms: C_12  and  C_13 
REMARK   12  A    between atoms: C_13  and  C_14 
REMARK   13  A    between atoms: C_14  and  C_15 
REMARK   14  A    between atoms: C_15  and  N_16 
REMARK   15  A    between atoms: C_17  and  C_19 
ROOT
ATOM      1  C   UNL d   1      29.192 -12.972  -1.769  0.00  0.00     0.000 C 
ENDROOT
BRANCH   1   2
ATOM      2  C   UNL d   1      28.261 -12.321  -0.760  0.00  0.00     0.000 C 
BRANCH   2   3
ATOM      3  C   UNL d   1      27.429 -13.383  -0.060  0.00  0.00     0.000 C 
BRANCH   3   4
ATOM      4  C   UNL d   1      26.427 -12.731   0.878  0.00  0.00     0.002 C 
BRANCH   4   5
ATOM      5  C   UNL d   1      26.938 -12.769   2.313  0.00  0.00     0.022 C 
BRANCH   5   6
ATOM      6  C   UNL d   1      27.031 -11.355   2.860  0.00  0.00     0.148 C 
BRANCH   6   7
ATOM      7  N   UNL d   1      26.720 -10.415   1.792  0.00  0.00    -0.297 NA
ATOM      8  C   UNL d   1      27.590  -9.509   1.479  0.00  0.00     0.026 C 
ATOM      9  C   UNL d   1      28.932  -9.346   2.172  0.00  0.00     0.067 C 
BRANCH   8  10
ATOM     10  C   UNL d   1      27.214  -8.588   0.333  0.00  0.00     0.193 C 
ATOM     11  S   UNL d   1      27.494  -9.322  -1.308  0.00  0.00    -0.080 SA
ATOM     12  C   UNL d   1      26.015  -8.659  -1.954  0.00  0.00     0.142 C 
ATOM     13  S   UNL d   1      25.523  -8.707  -3.534  0.00  0.00    -0.052 SA
ATOM     14  N   UNL d   1      25.277  -8.105  -0.959  0.00  0.00    -0.311 N 
ATOM     15  C   UNL d   1      25.787  -8.095   0.314  0.00  0.00     0.243 C 
ATOM     16  H   UNL d   1      24.354  -7.733  -1.134  0.00  0.00     0.170 HD
ATOM     17  O   UNL d   1      25.155  -7.692   1.273  0.00  0.00    -0.271 OA
ENDBRANCH   8  10
ENDBRANCH   6   7
ENDBRANCH   5   6
ENDBRANCH   4   5
ENDBRANCH   3   4
ENDBRANCH   2   3
ENDBRANCH   1   2
BRANCH   1  18
ATOM     18  C   UNL d   1      28.470 -13.171  -3.090  0.00  0.00     0.000 C 
BRANCH  18  19
ATOM     19  C   UNL d   1      27.428 -12.082  -3.282  0.00  0.00     0.000 C 
BRANCH  19  20
ATOM     20  C   UNL d   1      26.955 -12.067  -4.727  0.00  0.00     0.000 C 
BRANCH  20  21
ATOM     21  C   UNL d   1      25.570 -12.679  -4.825  0.00  0.00     0.002 C 
BRANCH  21  22
ATOM     22  C   UNL d   1      25.130 -13.242  -3.482  0.00  0.00     0.022 C 
BRANCH  22  23
ATOM     23  C   UNL d   1      25.274 -14.757  -3.503  0.00  0.00     0.148 C 
BRANCH  23  24
ATOM     24  N   UNL d   1      24.597 -15.306  -2.347  0.00  0.00    -0.297 NA
ATOM     25  C   UNL d   1      25.205 -16.103  -1.530  0.00  0.00     0.026 C 
ATOM     26  C   UNL d   1      26.681 -16.415  -1.628  0.00  0.00     0.067 C 
BRANCH  25  27
ATOM     27  C   UNL d   1      24.380 -16.649  -0.361  0.00  0.00     0.193 A 
ATOM     28  S   UNL d   1      22.590 -16.499  -0.797  0.00  0.00    -0.080 SA
ATOM     29  C   UNL d   1      22.275 -18.185  -0.587  0.00  0.00     0.142 A 
ATOM     30  S   UNL d   1      20.846 -18.949  -0.920  0.00  0.00    -0.052 SA
ATOM     31  N   UNL d   1      23.368 -18.806  -0.077  0.00  0.00    -0.311 N 
ATOM     32  C   UNL d   1      24.528 -18.090   0.078  0.00  0.00     0.243 A 
ATOM     33  H   UNL d   1      23.313 -19.767   0.232  0.00  0.00     0.170 HD
ATOM     34  O   UNL d   1      25.535 -18.575   0.578  0.00  0.00    -0.271 OA
ENDBRANCH  25  27
ENDBRANCH  23  24
ENDBRANCH  22  23
ENDBRANCH  21  22
ENDBRANCH  20  21
ENDBRANCH  19  20
ENDBRANCH  18  19
ENDBRANCH   1  18
TORSDOF 15
ENDMDL
MODEL 6
REMARK VINA RESULT:    -5.537      3.287      7.569
REMARK INTER + INTRA:         -13.940
REMARK INTER:                 -10.011
REMARK INTRA:                  -3.929
REMARK CONF_INDEPENDENT:        4.474
REMARK UNBOUND:                -3.929
REMARK  15 active torsions:
REMARK  status: ('A' for Active; 'I' for Inactive)
REMARK    1  A    between atoms: C_2  and  C_26 
REMARK    2  A    between atoms: N_3  and  C_4 
REMARK    3  A    between atoms: C_4  and  C_5 
REMARK    4  A    between atoms: C_5  and  C_6 
REMARK    5  A    between atoms: C_6  and  C_7 
REMARK    6  A    between atoms: C_7  and  C_8 
REMARK    7  A    between atoms: C_8  and  C_9 
REMARK    8  A    between atoms: C_9  and  C_10 
REMARK    9  A    between atoms: C_10  and  C_11 
REMARK   10  A    between atoms: C_11  and  C_12 
REMARK   11  A    between atoms: C_12  and  C_13 
REMARK   12  A    between atoms: C_13  and  C_14 
REMARK   13  A    between atoms: C_14  and  C_15 
REMARK   14  A    between atoms: C_15  and  N_16 
REMARK   15  A    between atoms: C_17  and  C_19 
ROOT
ATOM      1  C   UNL d   1      25.895 -15.076  -4.720  0.00  0.00     0.000 C 
ENDROOT
BRANCH   1   2
ATOM      2  C   UNL d   1      26.859 -14.104  -5.379  0.00  0.00     0.000 C 
BRANCH   2   3
ATOM      3  C   UNL d   1      28.017 -14.863  -6.004  0.00  0.00     0.000 C 
BRANCH   3   4
ATOM      4  C   UNL d   1      29.025 -13.891  -6.594  0.00  0.00     0.002 C 
BRANCH   4   5
ATOM      5  C   UNL d   1      30.341 -14.599  -6.886  0.00  0.00     0.022 C 
BRANCH   5   6
ATOM      6  C   UNL d   1      30.683 -15.537  -5.741  0.00  0.00     0.148 C 
BRANCH   6   7
ATOM      7  N   UNL d   1      30.306 -16.893  -6.114  0.00  0.00    -0.297 NA
ATOM      8  C   UNL d   1      31.124 -17.600  -6.824  0.00  0.00     0.026 C 
ATOM      9  C   UNL d   1      32.469 -17.100  -7.319  0.00  0.00     0.067 C 
BRANCH   8  10
ATOM     10  C   UNL d   1      30.680 -19.017  -7.144  0.00  0.00     0.193 C 
ATOM     11  S   UNL d   1      31.776 -19.871  -8.318  0.00  0.00    -0.080 SA
ATOM     12  C   UNL d   1      31.672 -21.382  -7.451  0.00  0.00     0.142 C 
ATOM     13  S   UNL d   1      32.283 -22.840  -7.940  0.00  0.00    -0.052 SA
ATOM     14  N   UNL d   1      31.032 -21.200  -6.268  0.00  0.00    -0.311 N 
ATOM     15  C   UNL d   1      30.543 -19.954  -5.969  0.00  0.00     0.243 C 
ATOM     16  H   UNL d   1      30.941 -21.951  -5.599  0.00  0.00     0.170 HD
ATOM     17  O   UNL d   1      30.030 -19.689  -4.896  0.00  0.00    -0.271 OA
ENDBRANCH   8  10
ENDBRANCH   6   7
ENDBRANCH   5   6
ENDBRANCH   4   5
ENDBRANCH   3   4
ENDBRANCH   2   3
ENDBRANCH   1   2
BRANCH   1  18
ATOM     18  C   UNL d   1      25.154 -14.387  -3.589  0.00  0.00     0.000 C 
BRANCH  18  19
ATOM     19  C   UNL d   1      25.565 -14.988  -2.256  0.00  0.00     0.000 C 
BRANCH  19  20
ATOM     20  C   UNL d   1      24.835 -16.302  -2.031  0.00  0.00     0.000 C 
BRANCH  20  21
ATOM     21  C   UNL d   1      24.836 -16.650  -0.554  0.00  0.00     0.002 C 
BRANCH  21  22
ATOM     22  C   UNL d   1      25.162 -18.121  -0.344  0.00  0.00     0.022 C 
BRANCH  22  23
ATOM     23  C   UNL d   1      26.446 -18.238   0.465  0.00  0.00     0.148 C 
BRANCH  23  24
ATOM     24  N   UNL d   1      27.559 -17.822  -0.363  0.00  0.00    -0.297 NA
ATOM     25  C   UNL d   1      28.127 -16.673  -0.193  0.00  0.00     0.026 C 
ATOM     26  C   UNL d   1      27.779 -15.741   0.945  0.00  0.00     0.067 C 
BRANCH  25  27
ATOM     27  C   UNL d   1      29.273 -16.326  -1.148  0.00  0.00     0.193 A 
ATOM     28  S   UNL d   1      30.741 -17.349  -0.685  0.00  0.00    -0.080 SA
ATOM     29  C   UNL d   1      30.893 -18.056  -2.254  0.00  0.00     0.142 A 
ATOM     30  S   UNL d   1      31.957 -19.251  -2.675  0.00  0.00    -0.052 SA
ATOM     31  N   UNL d   1      30.026 -17.471  -3.118  0.00  0.00    -0.311 N 
ATOM     32  C   UNL d   1      29.128 -16.551  -2.637  0.00  0.00     0.243 A 
ATOM     33  H   UNL d   1      30.075 -17.673  -4.106  0.00  0.00     0.170 HD
ATOM     34  O   UNL d   1      28.353 -15.950  -3.370  0.00  0.00    -0.271 OA
ENDBRANCH  25  27
ENDBRANCH  23  24
ENDBRANCH  22  23
ENDBRANCH  21  22
ENDBRANCH  20  21
ENDBRANCH  19  20
ENDBRANCH  18  19
ENDBRANCH   1  18
TORSDOF 15
ENDMDL
MODEL 7
REMARK VINA RESULT:    -5.436      5.216      7.694
REMARK INTER + INTRA:         -13.744
REMARK INTER:                  -9.910
REMARK INTRA:                  -3.834
REMARK CONF_INDEPENDENT:        4.474
REMARK UNBOUND:                -3.834
REMARK  15 active torsions:
REMARK  status: ('A' for Active; 'I' for Inactive)
REMARK    1  A    between atoms: C_2  and  C_26 
REMARK    2  A    between atoms: N_3  and  C_4 
REMARK    3  A    between atoms: C_4  and  C_5 
REMARK    4  A    between atoms: C_5  and  C_6 
REMARK    5  A    between atoms: C_6  and  C_7 
REMARK    6  A    between atoms: C_7  and  C_8 
REMARK    7  A    between atoms: C_8  and  C_9 
REMARK    8  A    between atoms: C_9  and  C_10 
REMARK    9  A    between atoms: C_10  and  C_11 
REMARK   10  A    between atoms: C_11  and  C_12 
REMARK   11  A    between atoms: C_12  and  C_13 
REMARK   12  A    between atoms: C_13  and  C_14 
REMARK   13  A    between atoms: C_14  and  C_15 
REMARK   14  A    between atoms: C_15  and  N_16 
REMARK   15  A    between atoms: C_17  and  C_19 
ROOT
ATOM      1  C   UNL d   1      25.589 -14.451  -4.063  0.00  0.00     0.000 C 
ENDROOT
BRANCH   1   2
ATOM      2  C   UNL d   1      26.621 -13.402  -4.437  0.00  0.00     0.000 C 
BRANCH   2   3
ATOM      3  C   UNL d   1      26.023 -12.012  -4.300  0.00  0.00     0.000 C 
BRANCH   3   4
ATOM      4  C   UNL d   1      26.129 -11.534  -2.862  0.00  0.00     0.002 C 
BRANCH   4   5
ATOM      5  C   UNL d   1      27.559 -11.117  -2.543  0.00  0.00     0.022 C 
BRANCH   5   6
ATOM      6  C   UNL d   1      27.546  -9.940  -1.581  0.00  0.00     0.148 C 
BRANCH   6   7
ATOM      7  N   UNL d   1      27.031 -10.389  -0.295  0.00  0.00    -0.297 NA
ATOM      8  C   UNL d   1      27.712 -10.141   0.776  0.00  0.00     0.026 C 
ATOM      9  C   UNL d   1      29.046  -9.415   0.784  0.00  0.00     0.067 C 
BRANCH   8  10
ATOM     10  C   UNL d   1      27.097 -10.606   2.084  0.00  0.00     0.193 C 
ATOM     11  S   UNL d   1      28.112 -11.829   2.968  0.00  0.00    -0.080 SA
ATOM     12  C   UNL d   1      27.777 -11.113   4.524  0.00  0.00     0.142 C 
ATOM     13  S   UNL d   1      28.205 -11.724   6.001  0.00  0.00    -0.052 SA
ATOM     14  N   UNL d   1      27.123  -9.934   4.365  0.00  0.00    -0.311 N 
ATOM     15  C   UNL d   1      26.793  -9.529   3.097  0.00  0.00     0.243 C 
ATOM     16  H   UNL d   1      26.908  -9.342   5.155  0.00  0.00     0.170 HD
ATOM     17  O   UNL d   1      26.281  -8.449   2.864  0.00  0.00    -0.271 OA
ENDBRANCH   8  10
ENDBRANCH   6   7
ENDBRANCH   5   6
ENDBRANCH   4   5
ENDBRANCH   3   4
ENDBRANCH   2   3
ENDBRANCH   1   2
BRANCH   1  18
ATOM     18  C   UNL d   1      25.893 -15.013  -2.685  0.00  0.00     0.000 C 
BRANCH  18  19
ATOM     19  C   UNL d   1      24.622 -15.546  -2.048  0.00  0.00     0.000 C 
BRANCH  19  20
ATOM     20  C   UNL d   1      24.713 -17.055  -1.892  0.00  0.00     0.000 C 
BRANCH  20  21
ATOM     21  C   UNL d   1      23.609 -17.549  -0.975  0.00  0.00     0.002 C 
BRANCH  21  22
ATOM     22  C   UNL d   1      24.187 -18.315   0.206  0.00  0.00     0.022 C 
BRANCH  22  23
ATOM     23  C   UNL d   1      25.705 -18.329   0.097  0.00  0.00     0.148 C 
BRANCH  23  24
ATOM     24  N   UNL d   1      26.221 -17.075   0.604  0.00  0.00    -0.297 NA
ATOM     25  C   UNL d   1      27.438 -16.706   0.368  0.00  0.00     0.026 C 
ATOM     26  C   UNL d   1      28.366 -17.468  -0.552  0.00  0.00     0.067 C 
BRANCH  25  27
ATOM     27  C   UNL d   1      27.885 -15.377   0.982  0.00  0.00     0.193 A 
ATOM     28  S   UNL d   1      29.620 -15.044   0.438  0.00  0.00    -0.080 SA
ATOM     29  C   UNL d   1      29.232 -13.515  -0.267  0.00  0.00     0.142 A 
ATOM     30  S   UNL d   1      30.270 -12.558  -1.130  0.00  0.00    -0.052 SA
ATOM     31  N   UNL d   1      27.946 -13.184   0.009  0.00  0.00    -0.311 N 
ATOM     32  C   UNL d   1      27.150 -14.094   0.658  0.00  0.00     0.243 A 
ATOM     33  H   UNL d   1      27.595 -12.263  -0.215  0.00  0.00     0.170 HD
ATOM     34  O   UNL d   1      25.996 -13.841   0.981  0.00  0.00    -0.271 OA
ENDBRANCH  25  27
ENDBRANCH  23  24
ENDBRANCH  22  23
ENDBRANCH  21  22
ENDBRANCH  20  21
ENDBRANCH  19  20
ENDBRANCH  18  19
ENDBRANCH   1  18
TORSDOF 15
ENDMDL
MODEL 8
REMARK VINA RESULT:    -5.307      4.297      7.692
REMARK INTER + INTRA:         -13.749
REMARK INTER:                  -9.781
REMARK INTRA:                  -3.967
REMARK CONF_INDEPENDENT:        4.474
REMARK UNBOUND:                -3.967
REMARK  15 active torsions:
REMARK  status: ('A' for Active; 'I' for Inactive)
REMARK    1  A    between atoms: C_2  and  C_26 
REMARK    2  A    between atoms: N_3  and  C_4 
REMARK    3  A    between atoms: C_4  and  C_5 
REMARK    4  A    between atoms: C_5  and  C_6 
REMARK    5  A    between atoms: C_6  and  C_7 
REMARK    6  A    between atoms: C_7  and  C_8 
REMARK    7  A    between atoms: C_8  and  C_9 
REMARK    8  A    between atoms: C_9  and  C_10 
REMARK    9  A    between atoms: C_10  and  C_11 
REMARK   10  A    between atoms: C_11  and  C_12 
REMARK   11  A    between atoms: C_12  and  C_13 
REMARK   12  A    between atoms: C_13  and  C_14 
REMARK   13  A    between atoms: C_14  and  C_15 
REMARK   14  A    between atoms: C_15  and  N_16 
REMARK   15  A    between atoms: C_17  and  C_19 
ROOT
ATOM      1  C   UNL d   1      24.295 -16.296  -1.628  0.00  0.00     0.000 C 
ENDROOT
BRANCH   1   2
ATOM      2  C   UNL d   1      25.393 -15.829  -2.568  0.00  0.00     0.000 C 
BRANCH   2   3
ATOM      3  C   UNL d   1      25.255 -14.337  -2.826  0.00  0.00     0.000 C 
BRANCH   3   4
ATOM      4  C   UNL d   1      25.598 -14.021  -4.272  0.00  0.00     0.002 C 
BRANCH   4   5
ATOM      5  C   UNL d   1      26.299 -15.205  -4.925  0.00  0.00     0.022 C 
BRANCH   5   6
ATOM      6  C   UNL d   1      27.802 -14.983  -4.908  0.00  0.00     0.148 C 
BRANCH   6   7
ATOM      7  N   UNL d   1      28.278 -15.085  -3.535  0.00  0.00    -0.297 NA
ATOM      8  C   UNL d   1      29.121 -16.018  -3.230  0.00  0.00     0.026 C 
ATOM      9  C   UNL d   1      29.648 -17.042  -4.220  0.00  0.00     0.067 C 
BRANCH   8  10
ATOM     10  C   UNL d   1      29.601 -16.041  -1.790  0.00  0.00     0.193 C 
ATOM     11  S   UNL d   1      30.960 -17.215  -1.499  0.00  0.00    -0.080 SA
ATOM     12  C   UNL d   1      31.800 -16.115  -0.436  0.00  0.00     0.142 C 
ATOM     13  S   UNL d   1      33.147 -16.453   0.465  0.00  0.00    -0.052 SA
ATOM     14  N   UNL d   1      31.207 -14.894  -0.463  0.00  0.00    -0.311 N 
ATOM     15  C   UNL d   1      30.080 -14.726  -1.225  0.00  0.00     0.243 C 
ATOM     16  H   UNL d   1      31.599 -14.109   0.037  0.00  0.00     0.170 HD
ATOM     17  O   UNL d   1      29.538 -13.645  -1.368  0.00  0.00    -0.271 OA
ENDBRANCH   8  10
ENDBRANCH   6   7
ENDBRANCH   5   6
ENDBRANCH   4   5
ENDBRANCH   3   4
ENDBRANCH   2   3
ENDBRANCH   1   2
BRANCH   1  18
ATOM     18  C   UNL d   1      24.131 -17.802  -1.728  0.00  0.00     0.000 C 
BRANCH  18  19
ATOM     19  C   UNL d   1      24.058 -18.411  -0.338  0.00  0.00     0.000 C 
BRANCH  19  20
ATOM     20  C   UNL d   1      25.172 -17.851   0.532  0.00  0.00     0.000 C 
BRANCH  20  21
ATOM     21  C   UNL d   1      26.481 -18.549   0.212  0.00  0.00     0.002 C 
BRANCH  21  22
ATOM     22  C   UNL d   1      27.640 -17.563   0.233  0.00  0.00     0.022 C 
BRANCH  22  23
ATOM     23  C   UNL d   1      27.089 -16.145   0.215  0.00  0.00     0.148 C 
BRANCH  23  24
ATOM     24  N   UNL d   1      27.787 -15.360   1.211  0.00  0.00    -0.297 NA
ATOM     25  C   UNL d   1      27.724 -14.068   1.213  0.00  0.00     0.026 C 
ATOM     26  C   UNL d   1      26.826 -13.286   0.280  0.00  0.00     0.067 C 
BRANCH  25  27
ATOM     27  C   UNL d   1      28.528 -13.342   2.293  0.00  0.00     0.193 A 
ATOM     28  S   UNL d   1      27.615 -13.492   3.894  0.00  0.00    -0.080 SA
ATOM     29  C   UNL d   1      28.943 -14.229   4.719  0.00  0.00     0.142 A 
ATOM     30  S   UNL d   1      28.909 -14.825   6.262  0.00  0.00    -0.052 SA
ATOM     31  N   UNL d   1      30.045 -14.227   3.929  0.00  0.00    -0.311 N 
ATOM     32  C   UNL d   1      29.935 -13.786   2.634  0.00  0.00     0.243 A 
ATOM     33  H   UNL d   1      30.943 -14.499   4.303  0.00  0.00     0.170 HD
ATOM     34  O   UNL d   1      30.899 -13.712   1.884  0.00  0.00    -0.271 OA
ENDBRANCH  25  27
ENDBRANCH  23  24
ENDBRANCH  22  23
ENDBRANCH  21  22
ENDBRANCH  20  21
ENDBRANCH  19  20
ENDBRANCH  18  19
ENDBRANCH   1  18
TORSDOF 15
ENDMDL
MODEL 9
REMARK VINA RESULT:    -5.113      4.410      6.646
REMARK INTER + INTRA:         -13.916
REMARK INTER:                  -9.588
REMARK INTRA:                  -4.328
REMARK CONF_INDEPENDENT:        4.474
REMARK UNBOUND:                -4.328
REMARK  15 active torsions:
REMARK  status: ('A' for Active; 'I' for Inactive)
REMARK    1  A    between atoms: C_2  and  C_26 
REMARK    2  A    between atoms: N_3  and  C_4 
REMARK    3  A    between atoms: C_4  and  C_5 
REMARK    4  A    between atoms: C_5  and  C_6 
REMARK    5  A    between atoms: C_6  and  C_7 
REMARK    6  A    between atoms: C_7  and  C_8 
REMARK    7  A    between atoms: C_8  and  C_9 
REMARK    8  A    between atoms: C_9  and  C_10 
REMARK    9  A    between atoms: C_10  and  C_11 
REMARK   10  A    between atoms: C_11  and  C_12 
REMARK   11  A    between atoms: C_12  and  C_13 
REMARK   12  A    between atoms: C_13  and  C_14 
REMARK   13  A    between atoms: C_14  and  C_15 
REMARK   14  A    between atoms: C_15  and  N_16 
REMARK   15  A    between atoms: C_17  and  C_19 
ROOT
ATOM      1  C   UNL d   1      27.870 -11.156  -2.585  0.00  0.00     0.000 C 
ENDROOT
BRANCH   1   2
ATOM      2  C   UNL d   1      28.961 -12.167  -2.893  0.00  0.00     0.000 C 
BRANCH   2   3
ATOM      3  C   UNL d   1      29.749 -12.481  -1.631  0.00  0.00     0.000 C 
BRANCH   3   4
ATOM      4  C   UNL d   1      28.810 -12.604  -0.443  0.00  0.00     0.002 C 
BRANCH   4   5
ATOM      5  C   UNL d   1      28.371 -14.051  -0.258  0.00  0.00     0.022 C 
BRANCH   5   6
ATOM      6  C   UNL d   1      27.059 -14.094   0.506  0.00  0.00     0.148 C 
BRANCH   6   7
ATOM      7  N   UNL d   1      26.136 -14.978  -0.192  0.00  0.00    -0.297 NA
ATOM      8  C   UNL d   1      26.295 -16.258  -0.092  0.00  0.00     0.026 C 
ATOM      9  C   UNL d   1      27.408 -16.915   0.705  0.00  0.00     0.067 C 
BRANCH   8  10
ATOM     10  C   UNL d   1      25.274 -17.118  -0.816  0.00  0.00     0.193 C 
ATOM     11  S   UNL d   1      24.545 -18.414   0.232  0.00  0.00    -0.080 SA
ATOM     12  C   UNL d   1      22.950 -18.178  -0.434  0.00  0.00     0.142 C 
ATOM     13  S   UNL d   1      21.614 -19.109  -0.140  0.00  0.00    -0.052 SA
ATOM     14  N   UNL d   1      22.932 -17.078  -1.229  0.00  0.00    -0.311 N 
ATOM     15  C   UNL d   1      24.102 -16.389  -1.427  0.00  0.00     0.243 C 
ATOM     16  H   UNL d   1      22.075 -16.744  -1.646  0.00  0.00     0.170 HD
ATOM     17  O   UNL d   1      24.154 -15.348  -2.057  0.00  0.00    -0.271 OA
ENDBRANCH   8  10
ENDBRANCH   6   7
ENDBRANCH   5   6
ENDBRANCH   4   5
ENDBRANCH   3   4
ENDBRANCH   2   3
ENDBRANCH   1   2
BRANCH   1  18
ATOM     18  C   UNL d   1      26.519 -11.847  -2.537  0.00  0.00     0.000 C 
BRANCH  18  19
ATOM     19  C   UNL d   1      25.543 -11.147  -3.467  0.00  0.00     0.000 C 
BRANCH  19  20
ATOM     20  C   UNL d   1      25.817  -9.651  -3.475  0.00  0.00     0.000 C 
BRANCH  20  21
ATOM     21  C   UNL d   1      26.604  -9.276  -4.717  0.00  0.00     0.002 C 
BRANCH  21  22
ATOM     22  C   UNL d   1      26.224 -10.167  -5.890  0.00  0.00     0.022 C 
BRANCH  22  23
ATOM     23  C   UNL d   1      27.372 -11.121  -6.185  0.00  0.00     0.148 C 
BRANCH  23  24
ATOM     24  N   UNL d   1      27.048 -12.424  -5.643  0.00  0.00    -0.297 NA
ATOM     25  C   UNL d   1      27.548 -13.504  -6.149  0.00  0.00     0.026 C 
ATOM     26  C   UNL d   1      28.597 -13.495  -7.238  0.00  0.00     0.067 C 
BRANCH  25  27
ATOM     27  C   UNL d   1      27.109 -14.826  -5.515  0.00  0.00     0.193 A 
ATOM     28  S   UNL d   1      28.622 -15.734  -4.963  0.00  0.00    -0.080 SA
ATOM     29  C   UNL d   1      28.099 -15.851  -3.321  0.00  0.00     0.142 A 
ATOM     30  S   UNL d   1      28.989 -16.456  -2.065  0.00  0.00    -0.052 SA
ATOM     31  N   UNL d   1      26.826 -15.397  -3.201  0.00  0.00    -0.311 N 
ATOM     32  C   UNL d   1      26.215 -14.836  -4.294  0.00  0.00     0.243 A 
ATOM     33  H   UNL d   1      26.319 -15.517  -2.335  0.00  0.00     0.170 HD
ATOM     34  O   UNL d   1      25.052 -14.452  -4.268  0.00  0.00    -0.271 OA
ENDBRANCH  25  27
ENDBRANCH  23  24
ENDBRANCH  22  23
ENDBRANCH  21  22
ENDBRANCH  20  21
ENDBRANCH  19  20
ENDBRANCH  18  19
ENDBRANCH   1  18
TORSDOF 15
ENDMDL
