MODEL 1
REMARK VINA RESULT:    -8.620      0.000      0.000
REMARK INTER + INTRA:         -13.259
REMARK INTER:                 -11.007
REMARK INTRA:                  -2.252
REMARK CONF_INDEPENDENT:        2.386
REMARK UNBOUND:                -2.252
REMARK  8 active torsions:
REMARK  status: ('A' for Active; 'I' for Inactive)
REMARK    1  A    between atoms: O_2  and  C_3 
REMARK    2  A    between atoms: C_5  and  N_6 
REMARK    3  A    between atoms: N_6  and  C_7 
REMARK    4  A    between atoms: C_10  and  O_11 
REMARK    5  A    between atoms: C_12  and  O_13 
REMARK    6  A    between atoms: C_15  and  C_16 
REMARK       I    between atoms: C_16  and  N_18 
REMARK    7  A    between atoms: N_18  and  C_19 
REMARK    8  A    between atoms: C_27  and  O_28 
ROOT
ATOM      1  C   UNL d   1      25.780 -15.026  -3.159  0.00  0.00     0.163 C 
ATOM      2  N   UNL d   1      25.517 -14.803  -4.402  0.00  0.00    -0.258 NA
ATOM      3  C   UNL d   1      26.732 -14.859  -5.262  0.00  0.00     0.157 C 
ATOM      4  C   UNL d   1      27.030 -13.428  -5.821  0.00  0.00     0.172 C 
ATOM      5  C   UNL d   1      28.466 -13.266  -6.294  0.00  0.00     0.149 C 
ATOM      6  C   UNL d   1      29.457 -13.676  -5.195  0.00  0.00     0.049 C 
ATOM      7  C   UNL d   1      29.355 -15.157  -4.834  0.00  0.00     0.096 C 
ATOM      8  C   UNL d   1      27.893 -15.634  -4.592  0.00  0.00     0.096 C 
ATOM      9  S   UNL d   1      27.410 -15.614  -2.835  0.00  0.00    -0.084 SA
ENDROOT
BRANCH   1  10
ATOM     10  N   UNL d   1      24.858 -14.915  -2.136  0.00  0.00    -0.335 N 
ATOM     11  H   UNL d   1      24.895 -14.037  -1.633  0.00  0.00     0.168 HD
BRANCH  10  12
ATOM     12  C   UNL d   1      24.376 -15.989  -1.332  0.00  0.00     0.039 C 
ATOM     13  C   UNL d   1      23.000 -16.293  -1.261  0.00  0.00     0.066 C 
ATOM     14  C   UNL d   1      22.548 -17.525  -0.744  0.00  0.00     0.073 C 
ATOM     15  C   UNL d   1      23.472 -18.441  -0.247  0.00  0.00     0.073 C 
ATOM     16  C   UNL d   1      24.826 -18.123  -0.233  0.00  0.00     0.073 C 
ATOM     17  C   UNL d   1      25.254 -16.895  -0.731  0.00  0.00     0.066 C 
BRANCH  14  18
ATOM     18  O   UNL d   1      21.212 -17.796  -0.896  0.00  0.00    -0.356 OA
ATOM     19  C   UNL d   1      20.772 -19.127  -0.620  0.00  0.00     0.210 C 
ENDBRANCH  14  18
BRANCH  16  20
ATOM     20  O   UNL d   1      25.837 -18.950   0.177  0.00  0.00    -0.356 OA
ATOM     21  C   UNL d   1      27.030 -18.306   0.606  0.00  0.00     0.210 C 
ENDBRANCH  16  20
ENDBRANCH  10  12
ENDBRANCH   1  10
BRANCH   4  22
ATOM     22  O   UNL d   1      26.736 -12.373  -4.918  0.00  0.00    -0.391 OA
ATOM     23  H   UNL d   1      26.108 -12.708  -4.261  0.00  0.00     0.210 HD
ENDBRANCH   4  22
BRANCH   7  24
ATOM     24  C   UNL d   1      30.125 -16.076  -5.839  0.00  0.00     0.223 C 
ATOM     25  O   UNL d   1      30.680 -15.613  -6.810  0.00  0.00    -0.273 OA
ATOM     26  N   UNL d   1      30.192 -17.415  -5.499  0.00  0.00    -0.356 N 
ATOM     27  H   UNL d   1      29.282 -17.829  -5.306  0.00  0.00     0.162 HD
BRANCH  26  28
ATOM     28  C   UNL d   1      30.996 -18.438  -6.121  0.00  0.00     0.084 C 
ATOM     29  C   UNL d   1      30.457 -19.819  -5.860  0.00  0.00     0.025 C 
ATOM     30  C   UNL d   1      31.079 -20.659  -6.953  0.00  0.00     0.002 C 
ATOM     31  C   UNL d   1      31.248 -19.733  -8.156  0.00  0.00     0.002 C 
ATOM     32  C   UNL d   1      30.926 -18.330  -7.655  0.00  0.00     0.025 C 
ENDBRANCH  26  28
ENDBRANCH   7  24
BRANCH   5  33
ATOM     33  O   UNL d   1      28.549 -14.065  -7.458  0.00  0.00    -0.393 OA
ATOM     34  H   UNL d   1      29.499 -14.056  -7.729  0.00  0.00     0.210 HD
ENDBRANCH   5  33
TORSDOF 8
ENDMDL
MODEL 2
REMARK VINA RESULT:    -7.635      1.647      2.017
REMARK INTER + INTRA:         -11.977
REMARK INTER:                 -10.021
REMARK INTRA:                  -1.956
REMARK CONF_INDEPENDENT:        2.386
REMARK UNBOUND:                -1.956
REMARK  8 active torsions:
REMARK  status: ('A' for Active; 'I' for Inactive)
REMARK    1  A    between atoms: O_2  and  C_3 
REMARK    2  A    between atoms: C_5  and  N_6 
REMARK    3  A    between atoms: N_6  and  C_7 
REMARK    4  A    between atoms: C_10  and  O_11 
REMARK    5  A    between atoms: C_12  and  O_13 
REMARK    6  A    between atoms: C_15  and  C_16 
REMARK       I    between atoms: C_16  and  N_18 
REMARK    7  A    between atoms: N_18  and  C_19 
REMARK    8  A    between atoms: C_27  and  O_28 
ROOT
ATOM      1  C   UNL d   1      25.030 -15.045  -3.074  0.00  0.00     0.163 C 
ATOM      2  N   UNL d   1      24.789 -14.538  -4.235  0.00  0.00    -0.258 NA
ATOM      3  C   UNL d   1      26.031 -14.294  -5.021  0.00  0.00     0.157 C 
ATOM      4  C   UNL d   1      26.232 -12.751  -5.194  0.00  0.00     0.172 C 
ATOM      5  C   UNL d   1      27.666 -12.378  -5.540  0.00  0.00     0.149 C 
ATOM      6  C   UNL d   1      28.651 -12.981  -4.529  0.00  0.00     0.049 C 
ATOM      7  C   UNL d   1      28.654 -14.509  -4.550  0.00  0.00     0.096 C 
ATOM      8  C   UNL d   1      27.228 -15.130  -4.506  0.00  0.00     0.096 C 
ATOM      9  S   UNL d   1      26.690 -15.583  -2.825  0.00  0.00    -0.084 SA
ENDROOT
BRANCH   1  10
ATOM     10  N   UNL d   1      24.071 -15.257  -2.102  0.00  0.00    -0.335 N 
ATOM     11  H   UNL d   1      23.732 -14.412  -1.658  0.00  0.00     0.168 HD
BRANCH  10  12
ATOM     12  C   UNL d   1      23.989 -16.397  -1.249  0.00  0.00     0.039 C 
ATOM     13  C   UNL d   1      22.866 -17.250  -1.270  0.00  0.00     0.066 C 
ATOM     14  C   UNL d   1      22.910 -18.533  -0.686  0.00  0.00     0.073 C 
ATOM     15  C   UNL d   1      24.065 -18.949  -0.032  0.00  0.00     0.073 C 
ATOM     16  C   UNL d   1      25.154 -18.090   0.069  0.00  0.00     0.073 C 
ATOM     17  C   UNL d   1      25.088 -16.819  -0.497  0.00  0.00     0.066 C 
BRANCH  14  18
ATOM     18  O   UNL d   1      21.833 -19.349  -0.926  0.00  0.00    -0.356 OA
ATOM     19  C   UNL d   1      20.534 -18.758  -0.889  0.00  0.00     0.210 C 
ENDBRANCH  14  18
BRANCH  16  20
ATOM     20  O   UNL d   1      26.363 -18.393   0.636  0.00  0.00    -0.356 OA
ATOM     21  C   UNL d   1      27.511 -17.943  -0.071  0.00  0.00     0.210 C 
ENDBRANCH  16  20
ENDBRANCH  10  12
ENDBRANCH   1  10
BRANCH   4  22
ATOM     22  O   UNL d   1      25.829 -11.978  -4.074  0.00  0.00    -0.391 OA
ATOM     23  H   UNL d   1      24.878 -12.111  -3.946  0.00  0.00     0.210 HD
ENDBRANCH   4  22
BRANCH   7  24
ATOM     24  C   UNL d   1      29.525 -15.093  -5.712  0.00  0.00     0.223 C 
ATOM     25  O   UNL d   1      29.026 -15.418  -6.765  0.00  0.00    -0.273 OA
ATOM     26  N   UNL d   1      30.888 -15.132  -5.480  0.00  0.00    -0.356 N 
ATOM     27  H   UNL d   1      31.137 -15.603  -4.612  0.00  0.00     0.162 HD
BRANCH  26  28
ATOM     28  C   UNL d   1      31.931 -15.422  -6.431  0.00  0.00     0.084 C 
ATOM     29  C   UNL d   1      31.576 -16.580  -7.325  0.00  0.00     0.025 C 
ATOM     30  C   UNL d   1      32.491 -16.408  -8.517  0.00  0.00     0.002 C 
ATOM     31  C   UNL d   1      32.712 -14.904  -8.669  0.00  0.00     0.002 C 
ATOM     32  C   UNL d   1      32.100 -14.262  -7.429  0.00  0.00     0.025 C 
ENDBRANCH  26  28
ENDBRANCH   7  24
BRANCH   5  33
ATOM     33  O   UNL d   1      27.846 -12.854  -6.861  0.00  0.00    -0.393 OA
ATOM     34  H   UNL d   1      27.582 -13.806  -6.846  0.00  0.00     0.210 HD
ENDBRANCH   5  33
TORSDOF 8
ENDMDL
MODEL 3
REMARK VINA RESULT:    -7.613      6.818     10.556
REMARK INTER + INTRA:         -12.034
REMARK INTER:                  -9.999
REMARK INTRA:                  -2.035
REMARK CONF_INDEPENDENT:        2.386
REMARK UNBOUND:                -2.035
REMARK  8 active torsions:
REMARK  status: ('A' for Active; 'I' for Inactive)
REMARK    1  A    between atoms: O_2  and  C_3 
REMARK    2  A    between atoms: C_5  and  N_6 
REMARK    3  A    between atoms: N_6  and  C_7 
REMARK    4  A    between atoms: C_10  and  O_11 
REMARK    5  A    between atoms: C_12  and  O_13 
REMARK    6  A    between atoms: C_15  and  C_16 
REMARK       I    between atoms: C_16  and  N_18 
REMARK    7  A    between atoms: N_18  and  C_19 
REMARK    8  A    between atoms: C_27  and  O_28 
ROOT
ATOM      1  C   UNL d   1      25.950  -9.980  -4.734  0.00  0.00     0.163 C 
ATOM      2  N   UNL d   1      25.683  -9.300  -3.672  0.00  0.00    -0.258 NA
ATOM      3  C   UNL d   1      24.780  -8.147  -3.943  0.00  0.00     0.157 C 
ATOM      4  C   UNL d   1      25.569  -6.814  -3.718  0.00  0.00     0.172 C 
ATOM      5  C   UNL d   1      24.926  -5.623  -4.411  0.00  0.00     0.149 C 
ATOM      6  C   UNL d   1      24.691  -5.913  -5.901  0.00  0.00     0.049 C 
ATOM      7  C   UNL d   1      23.697  -7.051  -6.128  0.00  0.00     0.096 C 
ATOM      8  C   UNL d   1      23.995  -8.312  -5.267  0.00  0.00     0.096 C 
ATOM      9  S   UNL d   1      24.977  -9.570  -6.146  0.00  0.00    -0.084 SA
ENDROOT
BRANCH   1  10
ATOM     10  N   UNL d   1      26.853 -11.024  -4.784  0.00  0.00    -0.335 N 
ATOM     11  H   UNL d   1      27.729 -10.797  -5.241  0.00  0.00     0.168 HD
BRANCH  10  12
ATOM     12  C   UNL d   1      26.522 -12.407  -4.888  0.00  0.00     0.039 C 
ATOM     13  C   UNL d   1      27.340 -13.305  -5.605  0.00  0.00     0.066 C 
ATOM     14  C   UNL d   1      27.208 -14.701  -5.446  0.00  0.00     0.073 C 
ATOM     15  C   UNL d   1      26.221 -15.206  -4.605  0.00  0.00     0.073 C 
ATOM     16  C   UNL d   1      25.353 -14.336  -3.953  0.00  0.00     0.073 C 
ATOM     17  C   UNL d   1      25.484 -12.961  -4.134  0.00  0.00     0.066 C 
BRANCH  14  18
ATOM     18  O   UNL d   1      28.172 -15.475  -6.041  0.00  0.00    -0.356 OA
ATOM     19  C   UNL d   1      29.129 -14.817  -6.873  0.00  0.00     0.210 C 
ENDBRANCH  14  18
BRANCH  16  20
ATOM     20  O   UNL d   1      24.379 -14.697  -3.062  0.00  0.00    -0.356 OA
ATOM     21  C   UNL d   1      24.784 -15.576  -2.020  0.00  0.00     0.210 C 
ENDBRANCH  16  20
ENDBRANCH  10  12
ENDBRANCH   1  10
BRANCH   4  22
ATOM     22  O   UNL d   1      26.935  -6.869  -4.103  0.00  0.00    -0.391 OA
ATOM     23  H   UNL d   1      27.206  -7.799  -4.107  0.00  0.00     0.210 HD
ENDBRANCH   4  22
BRANCH   7  24
ATOM     24  C   UNL d   1      22.208  -6.582  -6.008  0.00  0.00     0.223 C 
ATOM     25  O   UNL d   1      21.758  -6.195  -4.954  0.00  0.00    -0.273 OA
ATOM     26  N   UNL d   1      21.487  -6.566  -7.189  0.00  0.00    -0.356 N 
ATOM     27  H   UNL d   1      21.515  -7.452  -7.691  0.00  0.00     0.162 HD
BRANCH  26  28
ATOM     28  C   UNL d   1      20.181  -5.997  -7.410  0.00  0.00     0.084 C 
ATOM     29  C   UNL d   1      20.208  -4.901  -8.441  0.00  0.00     0.025 C 
ATOM     30  C   UNL d   1      18.768  -4.798  -8.893  0.00  0.00     0.002 C 
ATOM     31  C   UNL d   1      18.182  -6.203  -8.769  0.00  0.00     0.002 C 
ATOM     32  C   UNL d   1      19.233  -7.034  -8.040  0.00  0.00     0.025 C 
ENDBRANCH  26  28
ENDBRANCH   7  24
BRANCH   5  33
ATOM     33  O   UNL d   1      23.734  -5.391  -3.684  0.00  0.00    -0.393 OA
ATOM     34  H   UNL d   1      23.347  -6.282  -3.503  0.00  0.00     0.210 HD
ENDBRANCH   5  33
TORSDOF 8
ENDMDL
MODEL 4
REMARK VINA RESULT:    -7.435      6.557     10.261
REMARK INTER + INTRA:         -11.605
REMARK INTER:                  -9.821
REMARK INTRA:                  -1.784
REMARK CONF_INDEPENDENT:        2.386
REMARK UNBOUND:                -1.784
REMARK  8 active torsions:
REMARK  status: ('A' for Active; 'I' for Inactive)
REMARK    1  A    between atoms: O_2  and  C_3 
REMARK    2  A    between atoms: C_5  and  N_6 
REMARK    3  A    between atoms: N_6  and  C_7 
REMARK    4  A    between atoms: C_10  and  O_11 
REMARK    5  A    between atoms: C_12  and  O_13 
REMARK    6  A    between atoms: C_15  and  C_16 
REMARK       I    between atoms: C_16  and  N_18 
REMARK    7  A    between atoms: N_18  and  C_19 
REMARK    8  A    between atoms: C_27  and  O_28 
ROOT
ATOM      1  C   UNL d   1      27.183 -13.612   1.247  0.00  0.00     0.163 C 
ATOM      2  N   UNL d   1      27.772 -14.644   1.747  0.00  0.00    -0.258 NA
ATOM      3  C   UNL d   1      28.360 -14.373   3.089  0.00  0.00     0.157 C 
ATOM      4  C   UNL d   1      29.920 -14.437   2.988  0.00  0.00     0.172 C 
ATOM      5  C   UNL d   1      30.616 -13.721   4.135  0.00  0.00     0.149 C 
ATOM      6  C   UNL d   1      30.104 -12.281   4.278  0.00  0.00     0.049 C 
ATOM      7  C   UNL d   1      28.623 -12.218   4.650  0.00  0.00     0.096 C 
ATOM      8  C   UNL d   1      27.726 -13.136   3.770  0.00  0.00     0.096 C 
ATOM      9  S   UNL d   1      26.966 -12.264   2.362  0.00  0.00    -0.084 SA
ENDROOT
BRANCH   1  10
ATOM     10  N   UNL d   1      26.661 -13.557  -0.031  0.00  0.00    -0.335 N 
ATOM     11  H   UNL d   1      26.059 -12.760  -0.203  0.00  0.00     0.168 HD
BRANCH  10  12
ATOM     12  C   UNL d   1      26.328 -14.680  -0.843  0.00  0.00     0.039 C 
ATOM     13  C   UNL d   1      25.990 -15.925  -0.271  0.00  0.00     0.066 C 
ATOM     14  C   UNL d   1      25.354 -16.930  -1.029  0.00  0.00     0.073 C 
ATOM     15  C   UNL d   1      25.099 -16.713  -2.380  0.00  0.00     0.073 C 
ATOM     16  C   UNL d   1      25.500 -15.523  -2.980  0.00  0.00     0.073 C 
ATOM     17  C   UNL d   1      26.143 -14.548  -2.222  0.00  0.00     0.066 C 
BRANCH  14  18
ATOM     18  O   UNL d   1      24.901 -18.022  -0.334  0.00  0.00    -0.356 OA
ATOM     19  C   UNL d   1      23.491 -18.247  -0.302  0.00  0.00     0.210 C 
ENDBRANCH  14  18
BRANCH  16  20
ATOM     20  O   UNL d   1      25.264 -15.163  -4.280  0.00  0.00    -0.356 OA
ATOM     21  C   UNL d   1      25.541 -13.809  -4.609  0.00  0.00     0.210 C 
ENDBRANCH  16  20
ENDBRANCH  10  12
ENDBRANCH   1  10
BRANCH   4  22
ATOM     22  O   UNL d   1      30.449 -13.942   1.767  0.00  0.00    -0.391 OA
ATOM     23  H   UNL d   1      29.762 -14.022   1.090  0.00  0.00     0.210 HD
ENDBRANCH   4  22
BRANCH   7  24
ATOM     24  C   UNL d   1      28.379 -12.432   6.181  0.00  0.00     0.223 C 
ATOM     25  O   UNL d   1      27.304 -12.800   6.597  0.00  0.00    -0.273 OA
ATOM     26  N   UNL d   1      29.482 -12.252   6.996  0.00  0.00    -0.356 N 
ATOM     27  H   UNL d   1      29.944 -11.355   6.859  0.00  0.00     0.162 HD
BRANCH  26  28
ATOM     28  C   UNL d   1      29.598 -12.575   8.397  0.00  0.00     0.084 C 
ATOM     29  C   UNL d   1      28.528 -11.911   9.222  0.00  0.00     0.025 C 
ATOM     30  C   UNL d   1      28.493 -12.732  10.492  0.00  0.00     0.002 C 
ATOM     31  C   UNL d   1      28.871 -14.156  10.087  0.00  0.00     0.002 C 
ATOM     32  C   UNL d   1      29.331 -14.072   8.635  0.00  0.00     0.025 C 
ENDBRANCH  26  28
ENDBRANCH   7  24
BRANCH   5  33
ATOM     33  O   UNL d   1      30.356 -14.530   5.267  0.00  0.00    -0.393 OA
ATOM     34  H   UNL d   1      31.102 -14.369   5.895  0.00  0.00     0.210 HD
ENDBRANCH   5  33
TORSDOF 8
ENDMDL
MODEL 5
REMARK VINA RESULT:    -7.357      1.516      3.003
REMARK INTER + INTRA:         -11.997
REMARK INTER:                  -9.744
REMARK INTRA:                  -2.254
REMARK CONF_INDEPENDENT:        2.386
REMARK UNBOUND:                -2.254
REMARK  8 active torsions:
REMARK  status: ('A' for Active; 'I' for Inactive)
REMARK    1  A    between atoms: O_2  and  C_3 
REMARK    2  A    between atoms: C_5  and  N_6 
REMARK    3  A    between atoms: N_6  and  C_7 
REMARK    4  A    between atoms: C_10  and  O_11 
REMARK    5  A    between atoms: C_12  and  O_13 
REMARK    6  A    between atoms: C_15  and  C_16 
REMARK       I    between atoms: C_16  and  N_18 
REMARK    7  A    between atoms: N_18  and  C_19 
REMARK    8  A    between atoms: C_27  and  O_28 
ROOT
ATOM      1  C   UNL d   1      25.250 -14.938  -3.158  0.00  0.00     0.163 C 
ATOM      2  N   UNL d   1      25.086 -14.563  -4.381  0.00  0.00    -0.258 NA
ATOM      3  C   UNL d   1      26.359 -14.131  -5.022  0.00  0.00     0.157 C 
ATOM      4  C   UNL d   1      26.294 -12.593  -5.307  0.00  0.00     0.172 C 
ATOM      5  C   UNL d   1      27.667 -11.969  -5.500  0.00  0.00     0.149 C 
ATOM      6  C   UNL d   1      28.594 -12.302  -4.322  0.00  0.00     0.049 C 
ATOM      7  C   UNL d   1      28.883 -13.798  -4.205  0.00  0.00     0.096 C 
ATOM      8  C   UNL d   1      27.605 -14.682  -4.287  0.00  0.00     0.096 C 
ATOM      9  S   UNL d   1      26.928 -15.123  -2.654  0.00  0.00    -0.084 SA
ENDROOT
BRANCH   1  10
ATOM     10  N   UNL d   1      24.219 -15.271  -2.301  0.00  0.00    -0.335 N 
ATOM     11  H   UNL d   1      23.823 -14.486  -1.797  0.00  0.00     0.168 HD
BRANCH  10  12
ATOM     12  C   UNL d   1      24.094 -16.499  -1.588  0.00  0.00     0.039 C 
ATOM     13  C   UNL d   1      25.216 -17.132  -1.014  0.00  0.00     0.066 C 
ATOM     14  C   UNL d   1      25.069 -18.150  -0.049  0.00  0.00     0.073 C 
ATOM     15  C   UNL d   1      23.793 -18.575   0.311  0.00  0.00     0.073 C 
ATOM     16  C   UNL d   1      22.677 -18.019  -0.305  0.00  0.00     0.073 C 
ATOM     17  C   UNL d   1      22.840 -17.028  -1.270  0.00  0.00     0.066 C 
BRANCH  14  18
ATOM     18  O   UNL d   1      26.216 -18.563   0.581  0.00  0.00    -0.356 OA
ATOM     19  C   UNL d   1      27.435 -17.908   0.230  0.00  0.00     0.210 C 
ENDBRANCH  14  18
BRANCH  16  20
ATOM     20  O   UNL d   1      21.372 -18.308  -0.008  0.00  0.00    -0.356 OA
ATOM     21  C   UNL d   1      20.762 -19.314  -0.805  0.00  0.00     0.210 C 
ENDBRANCH  16  20
ENDBRANCH  10  12
ENDBRANCH   1  10
BRANCH   4  22
ATOM     22  O   UNL d   1      25.599 -11.844  -4.321  0.00  0.00    -0.391 OA
ATOM     23  H   UNL d   1      24.779 -12.314  -4.112  0.00  0.00     0.210 HD
ENDBRANCH   4  22
BRANCH   7  24
ATOM     24  C   UNL d   1      30.004 -14.272  -5.190  0.00  0.00     0.223 C 
ATOM     25  O   UNL d   1      31.173 -14.082  -4.945  0.00  0.00    -0.273 OA
ATOM     26  N   UNL d   1      29.570 -14.981  -6.296  0.00  0.00    -0.356 N 
ATOM     27  H   UNL d   1      28.847 -14.499  -6.827  0.00  0.00     0.162 HD
BRANCH  26  28
ATOM     28  C   UNL d   1      30.379 -15.703  -7.246  0.00  0.00     0.084 C 
ATOM     29  C   UNL d   1      31.608 -14.931  -7.645  0.00  0.00     0.025 C 
ATOM     30  C   UNL d   1      32.535 -15.992  -8.195  0.00  0.00     0.002 C 
ATOM     31  C   UNL d   1      32.220 -17.273  -7.425  0.00  0.00     0.002 C 
ATOM     32  C   UNL d   1      30.968 -16.974  -6.607  0.00  0.00     0.025 C 
ENDBRANCH  26  28
ENDBRANCH   7  24
BRANCH   5  33
ATOM     33  O   UNL d   1      28.118 -12.484  -6.739  0.00  0.00    -0.393 OA
ATOM     34  H   UNL d   1      29.095 -12.335  -6.757  0.00  0.00     0.210 HD
ENDBRANCH   5  33
TORSDOF 8
ENDMDL
MODEL 6
REMARK VINA RESULT:    -7.195      2.376      3.601
REMARK INTER + INTRA:         -11.689
REMARK INTER:                  -9.582
REMARK INTRA:                  -2.107
REMARK CONF_INDEPENDENT:        2.386
REMARK UNBOUND:                -2.107
REMARK  8 active torsions:
REMARK  status: ('A' for Active; 'I' for Inactive)
REMARK    1  A    between atoms: O_2  and  C_3 
REMARK    2  A    between atoms: C_5  and  N_6 
REMARK    3  A    between atoms: N_6  and  C_7 
REMARK    4  A    between atoms: C_10  and  O_11 
REMARK    5  A    between atoms: C_12  and  O_13 
REMARK    6  A    between atoms: C_15  and  C_16 
REMARK       I    between atoms: C_16  and  N_18 
REMARK    7  A    between atoms: N_18  and  C_19 
REMARK    8  A    between atoms: C_27  and  O_28 
ROOT
ATOM      1  C   UNL d   1      25.388 -14.872  -2.863  0.00  0.00     0.163 C 
ATOM      2  N   UNL d   1      26.434 -14.502  -2.205  0.00  0.00    -0.258 NA
ATOM      3  C   UNL d   1      27.617 -14.288  -3.085  0.00  0.00     0.157 C 
ATOM      4  C   UNL d   1      28.696 -15.376  -2.766  0.00  0.00     0.172 C 
ATOM      5  C   UNL d   1      29.703 -15.556  -3.891  0.00  0.00     0.149 C 
ATOM      6  C   UNL d   1      28.995 -15.817  -5.228  0.00  0.00     0.049 C 
ATOM      7  C   UNL d   1      28.144 -14.632  -5.683  0.00  0.00     0.096 C 
ATOM      8  C   UNL d   1      27.219 -14.070  -4.565  0.00  0.00     0.096 C 
ATOM      9  S   UNL d   1      25.530 -14.751  -4.616  0.00  0.00    -0.084 SA
ENDROOT
BRANCH   1  10
ATOM     10  N   UNL d   1      24.195 -15.252  -2.280  0.00  0.00    -0.335 N 
ATOM     11  H   UNL d   1      23.517 -14.504  -2.189  0.00  0.00     0.168 HD
BRANCH  10  12
ATOM     12  C   UNL d   1      24.040 -16.257  -1.281  0.00  0.00     0.039 C 
ATOM     13  C   UNL d   1      22.767 -16.758  -0.935  0.00  0.00     0.066 C 
ATOM     14  C   UNL d   1      22.626 -17.956  -0.204  0.00  0.00     0.073 C 
ATOM     15  C   UNL d   1      23.762 -18.633   0.230  0.00  0.00     0.073 C 
ATOM     16  C   UNL d   1      25.024 -18.110  -0.032  0.00  0.00     0.073 C 
ATOM     17  C   UNL d   1      25.146 -16.917  -0.740  0.00  0.00     0.066 C 
BRANCH  14  18
ATOM     18  O   UNL d   1      21.352 -18.450  -0.085  0.00  0.00    -0.356 OA
ATOM     19  C   UNL d   1      20.722 -18.944  -1.268  0.00  0.00     0.210 C 
ENDBRANCH  14  18
BRANCH  16  20
ATOM     20  O   UNL d   1      26.217 -18.700   0.291  0.00  0.00    -0.356 OA
ATOM     21  C   UNL d   1      27.366 -17.868   0.197  0.00  0.00     0.210 C 
ENDBRANCH  16  20
ENDBRANCH  10  12
ENDBRANCH   1  10
BRANCH   4  22
ATOM     22  O   UNL d   1      28.164 -16.650  -2.436  0.00  0.00    -0.391 OA
ATOM     23  H   UNL d   1      27.255 -16.523  -2.127  0.00  0.00     0.210 HD
ENDBRANCH   4  22
BRANCH   7  24
ATOM     24  C   UNL d   1      28.991 -13.514  -6.377  0.00  0.00     0.223 C 
ATOM     25  O   UNL d   1      28.854 -12.350  -6.079  0.00  0.00    -0.273 OA
ATOM     26  N   UNL d   1      29.944 -13.955  -7.278  0.00  0.00    -0.356 N 
ATOM     27  H   UNL d   1      29.568 -14.576  -7.993  0.00  0.00     0.162 HD
BRANCH  26  28
ATOM     28  C   UNL d   1      30.986 -13.178  -7.900  0.00  0.00     0.084 C 
ATOM     29  C   UNL d   1      31.908 -14.029  -8.732  0.00  0.00     0.025 C 
ATOM     30  C   UNL d   1      32.568 -13.039  -9.665  0.00  0.00     0.002 C 
ATOM     31  C   UNL d   1      31.540 -11.935  -9.909  0.00  0.00     0.002 C 
ATOM     32  C   UNL d   1      30.396 -12.204  -8.936  0.00  0.00     0.025 C 
ENDBRANCH  26  28
ENDBRANCH   7  24
BRANCH   5  33
ATOM     33  O   UNL d   1      30.466 -14.364  -3.877  0.00  0.00    -0.393 OA
ATOM     34  H   UNL d   1      29.841 -13.637  -4.113  0.00  0.00     0.210 HD
ENDBRANCH   5  33
TORSDOF 8
ENDMDL
MODEL 7
REMARK VINA RESULT:    -7.155      4.042      8.422
REMARK INTER + INTRA:         -11.925
REMARK INTER:                  -9.541
REMARK INTRA:                  -2.384
REMARK CONF_INDEPENDENT:        2.386
REMARK UNBOUND:                -2.384
REMARK  8 active torsions:
REMARK  status: ('A' for Active; 'I' for Inactive)
REMARK    1  A    between atoms: O_2  and  C_3 
REMARK    2  A    between atoms: C_5  and  N_6 
REMARK    3  A    between atoms: N_6  and  C_7 
REMARK    4  A    between atoms: C_10  and  O_11 
REMARK    5  A    between atoms: C_12  and  O_13 
REMARK    6  A    between atoms: C_15  and  C_16 
REMARK       I    between atoms: C_16  and  N_18 
REMARK    7  A    between atoms: N_18  and  C_19 
REMARK    8  A    between atoms: C_27  and  O_28 
ROOT
ATOM      1  C   UNL d   1      25.631 -14.317  -3.898  0.00  0.00     0.163 C 
ATOM      2  N   UNL d   1      26.482 -15.285  -3.880  0.00  0.00    -0.258 NA
ATOM      3  C   UNL d   1      26.267 -16.213  -2.734  0.00  0.00     0.157 C 
ATOM      4  C   UNL d   1      27.477 -16.097  -1.748  0.00  0.00     0.172 C 
ATOM      5  C   UNL d   1      27.153 -16.609  -0.353  0.00  0.00     0.149 C 
ATOM      6  C   UNL d   1      25.887 -15.937   0.200  0.00  0.00     0.049 C 
ATOM      7  C   UNL d   1      24.639 -16.274  -0.614  0.00  0.00     0.096 C 
ATOM      8  C   UNL d   1      24.839 -16.105  -2.148  0.00  0.00     0.096 C 
ATOM      9  S   UNL d   1      24.285 -14.486  -2.773  0.00  0.00    -0.084 SA
ENDROOT
BRANCH   1  10
ATOM     10  N   UNL d   1      25.679 -13.255  -4.780  0.00  0.00    -0.335 N 
ATOM     11  H   UNL d   1      25.981 -13.501  -5.716  0.00  0.00     0.168 HD
BRANCH  10  12
ATOM     12  C   UNL d   1      25.989 -11.905  -4.442  0.00  0.00     0.039 C 
ATOM     13  C   UNL d   1      25.560 -10.829  -5.246  0.00  0.00     0.066 C 
ATOM     14  C   UNL d   1      25.574  -9.504  -4.764  0.00  0.00     0.073 C 
ATOM     15  C   UNL d   1      26.067  -9.242  -3.489  0.00  0.00     0.073 C 
ATOM     16  C   UNL d   1      26.570 -10.281  -2.713  0.00  0.00     0.073 C 
ATOM     17  C   UNL d   1      26.566 -11.582  -3.210  0.00  0.00     0.066 C 
BRANCH  14  18
ATOM     18  O   UNL d   1      24.962  -8.562  -5.553  0.00  0.00    -0.356 OA
ATOM     19  C   UNL d   1      24.519  -7.359  -4.924  0.00  0.00     0.210 C 
ENDBRANCH  14  18
BRANCH  16  20
ATOM     20  O   UNL d   1      27.033 -10.169  -1.429  0.00  0.00    -0.356 OA
ATOM     21  C   UNL d   1      28.393 -10.529  -1.226  0.00  0.00     0.210 C 
ENDBRANCH  16  20
ENDBRANCH  10  12
ENDBRANCH   1  10
BRANCH   4  22
ATOM     22  O   UNL d   1      28.012 -14.788  -1.628  0.00  0.00    -0.391 OA
ATOM     23  H   UNL d   1      27.905 -14.342  -2.481  0.00  0.00     0.210 HD
ENDBRANCH   4  22
BRANCH   7  24
ATOM     24  C   UNL d   1      24.035 -17.668  -0.239  0.00  0.00     0.223 C 
ATOM     25  O   UNL d   1      24.607 -18.413   0.524  0.00  0.00    -0.273 OA
ATOM     26  N   UNL d   1      22.787 -17.944  -0.769  0.00  0.00    -0.356 N 
ATOM     27  H   UNL d   1      22.742 -17.826  -1.780  0.00  0.00     0.162 HD
BRANCH  26  28
ATOM     28  C   UNL d   1      21.917 -19.043  -0.434  0.00  0.00     0.084 C 
ATOM     29  C   UNL d   1      21.403 -18.949   0.978  0.00  0.00     0.025 C 
ATOM     30  C   UNL d   1      20.177 -19.834   0.974  0.00  0.00     0.002 C 
ATOM     31  C   UNL d   1      19.594 -19.746  -0.436  0.00  0.00     0.002 C 
ATOM     32  C   UNL d   1      20.625 -18.991  -1.270  0.00  0.00     0.025 C 
ENDBRANCH  26  28
ENDBRANCH   7  24
BRANCH   5  33
ATOM     33  O   UNL d   1      27.028 -18.010  -0.510  0.00  0.00    -0.393 OA
ATOM     34  H   UNL d   1      26.244 -18.276   0.029  0.00  0.00     0.210 HD
ENDBRANCH   5  33
TORSDOF 8
ENDMDL
MODEL 8
REMARK VINA RESULT:    -7.124      6.523      9.898
REMARK INTER + INTRA:         -11.754
REMARK INTER:                  -9.511
REMARK INTRA:                  -2.243
REMARK CONF_INDEPENDENT:        2.386
REMARK UNBOUND:                -2.243
REMARK  8 active torsions:
REMARK  status: ('A' for Active; 'I' for Inactive)
REMARK    1  A    between atoms: O_2  and  C_3 
REMARK    2  A    between atoms: C_5  and  N_6 
REMARK    3  A    between atoms: N_6  and  C_7 
REMARK    4  A    between atoms: C_10  and  O_11 
REMARK    5  A    between atoms: C_12  and  O_13 
REMARK    6  A    between atoms: C_15  and  C_16 
REMARK       I    between atoms: C_16  and  N_18 
REMARK    7  A    between atoms: N_18  and  C_19 
REMARK    8  A    between atoms: C_27  and  O_28 
ROOT
ATOM      1  C   UNL d   1      28.676 -14.765   0.996  0.00  0.00     0.163 C 
ATOM      2  N   UNL d   1      29.828 -14.885   1.562  0.00  0.00    -0.258 NA
ATOM      3  C   UNL d   1      29.913 -14.141   2.849  0.00  0.00     0.157 C 
ATOM      4  C   UNL d   1      30.925 -12.957   2.691  0.00  0.00     0.172 C 
ATOM      5  C   UNL d   1      30.735 -11.874   3.742  0.00  0.00     0.149 C 
ATOM      6  C   UNL d   1      29.279 -11.390   3.776  0.00  0.00     0.049 C 
ATOM      7  C   UNL d   1      28.304 -12.487   4.201  0.00  0.00     0.096 C 
ATOM      8  C   UNL d   1      28.518 -13.830   3.443  0.00  0.00     0.096 C 
ATOM      9  S   UNL d   1      27.429 -14.020   1.994  0.00  0.00    -0.084 SA
ENDROOT
BRANCH   1  10
ATOM     10  N   UNL d   1      28.371 -15.254  -0.260  0.00  0.00    -0.335 N 
ATOM     11  H   UNL d   1      28.993 -14.938  -0.994  0.00  0.00     0.168 HD
BRANCH  10  12
ATOM     12  C   UNL d   1      27.062 -15.553  -0.740  0.00  0.00     0.039 C 
ATOM     13  C   UNL d   1      26.571 -14.984  -1.934  0.00  0.00     0.066 C 
ATOM     14  C   UNL d   1      25.434 -15.510  -2.582  0.00  0.00     0.073 C 
ATOM     15  C   UNL d   1      24.751 -16.579  -2.009  0.00  0.00     0.073 C 
ATOM     16  C   UNL d   1      25.174 -17.101  -0.791  0.00  0.00     0.073 C 
ATOM     17  C   UNL d   1      26.288 -16.558  -0.155  0.00  0.00     0.066 C 
BRANCH  14  18
ATOM     18  O   UNL d   1      25.155 -15.006  -3.827  0.00  0.00    -0.356 OA
ATOM     19  C   UNL d   1      24.577 -13.701  -3.897  0.00  0.00     0.210 C 
ENDBRANCH  14  18
BRANCH  16  20
ATOM     20  O   UNL d   1      24.627 -18.179  -0.149  0.00  0.00    -0.356 OA
ATOM     21  C   UNL d   1      23.315 -18.544  -0.556  0.00  0.00     0.210 C 
ENDBRANCH  16  20
ENDBRANCH  10  12
ENDBRANCH   1  10
BRANCH   4  22
ATOM     22  O   UNL d   1      30.915 -12.344   1.411  0.00  0.00    -0.391 OA
ATOM     23  H   UNL d   1      30.468 -12.944   0.797  0.00  0.00     0.210 HD
ENDBRANCH   4  22
BRANCH   7  24
ATOM     24  C   UNL d   1      28.253 -12.678   5.754  0.00  0.00     0.223 C 
ATOM     25  O   UNL d   1      27.404 -12.134   6.422  0.00  0.00    -0.273 OA
ATOM     26  N   UNL d   1      29.180 -13.559   6.281  0.00  0.00    -0.356 N 
ATOM     27  H   UNL d   1      30.138 -13.351   6.006  0.00  0.00     0.162 HD
BRANCH  26  28
ATOM     28  C   UNL d   1      29.230 -14.075   7.626  0.00  0.00     0.084 C 
ATOM     29  C   UNL d   1      30.642 -14.197   8.134  0.00  0.00     0.025 C 
ATOM     30  C   UNL d   1      30.481 -14.245   9.637  0.00  0.00     0.002 C 
ATOM     31  C   UNL d   1      29.244 -13.407   9.959  0.00  0.00     0.002 C 
ATOM     32  C   UNL d   1      28.597 -13.081   8.616  0.00  0.00     0.025 C 
ENDBRANCH  26  28
ENDBRANCH   7  24
BRANCH   5  33
ATOM     33  O   UNL d   1      31.162 -12.473   4.950  0.00  0.00    -0.393 OA
ATOM     34  H   UNL d   1      32.002 -12.949   4.738  0.00  0.00     0.210 HD
ENDBRANCH   5  33
TORSDOF 8
ENDMDL
MODEL 9
REMARK VINA RESULT:    -7.019      3.057      8.839
REMARK INTER + INTRA:         -11.624
REMARK INTER:                  -9.405
REMARK INTRA:                  -2.219
REMARK CONF_INDEPENDENT:        2.386
REMARK UNBOUND:                -2.219
REMARK  8 active torsions:
REMARK  status: ('A' for Active; 'I' for Inactive)
REMARK    1  A    between atoms: O_2  and  C_3 
REMARK    2  A    between atoms: C_5  and  N_6 
REMARK    3  A    between atoms: N_6  and  C_7 
REMARK    4  A    between atoms: C_10  and  O_11 
REMARK    5  A    between atoms: C_12  and  O_13 
REMARK    6  A    between atoms: C_15  and  C_16 
REMARK       I    between atoms: C_16  and  N_18 
REMARK    7  A    between atoms: N_18  and  C_19 
REMARK    8  A    between atoms: C_27  and  O_28 
ROOT
ATOM      1  C   UNL d   1      25.562 -14.419  -3.943  0.00  0.00     0.163 C 
ATOM      2  N   UNL d   1      26.378 -15.417  -3.930  0.00  0.00    -0.258 NA
ATOM      3  C   UNL d   1      26.171 -16.310  -2.755  0.00  0.00     0.157 C 
ATOM      4  C   UNL d   1      27.419 -16.216  -1.815  0.00  0.00     0.172 C 
ATOM      5  C   UNL d   1      27.127 -16.683  -0.398  0.00  0.00     0.149 C 
ATOM      6  C   UNL d   1      25.908 -15.952   0.183  0.00  0.00     0.049 C 
ATOM      7  C   UNL d   1      24.620 -16.261  -0.579  0.00  0.00     0.096 C 
ATOM      8  C   UNL d   1      24.769 -16.135  -2.122  0.00  0.00     0.096 C 
ATOM      9  S   UNL d   1      24.252 -14.511  -2.767  0.00  0.00    -0.084 SA
ENDROOT
BRANCH   1  10
ATOM     10  N   UNL d   1      25.617 -13.380  -4.852  0.00  0.00    -0.335 N 
ATOM     11  H   UNL d   1      24.847 -13.360  -5.511  0.00  0.00     0.168 HD
BRANCH  10  12
ATOM     12  C   UNL d   1      26.806 -12.798  -5.380  0.00  0.00     0.039 C 
ATOM     13  C   UNL d   1      27.759 -13.575  -6.072  0.00  0.00     0.066 C 
ATOM     14  C   UNL d   1      28.756 -12.973  -6.868  0.00  0.00     0.073 C 
ATOM     15  C   UNL d   1      28.836 -11.585  -6.933  0.00  0.00     0.073 C 
ATOM     16  C   UNL d   1      27.957 -10.803  -6.191  0.00  0.00     0.073 C 
ATOM     17  C   UNL d   1      26.989 -11.413  -5.397  0.00  0.00     0.066 C 
BRANCH  14  18
ATOM     18  O   UNL d   1      29.507 -13.818  -7.645  0.00  0.00    -0.356 OA
ATOM     19  C   UNL d   1      30.919 -13.836  -7.427  0.00  0.00     0.210 C 
ENDBRANCH  14  18
BRANCH  16  20
ATOM     20  O   UNL d   1      27.895  -9.435  -6.206  0.00  0.00    -0.356 OA
ATOM     21  C   UNL d   1      28.572  -8.771  -5.148  0.00  0.00     0.210 C 
ENDBRANCH  16  20
ENDBRANCH  10  12
ENDBRANCH   1  10
BRANCH   4  22
ATOM     22  O   UNL d   1      28.006 -14.925  -1.747  0.00  0.00    -0.391 OA
ATOM     23  H   UNL d   1      27.545 -14.354  -2.379  0.00  0.00     0.210 HD
ENDBRANCH   4  22
BRANCH   7  24
ATOM     24  C   UNL d   1      23.979 -17.623  -0.148  0.00  0.00     0.223 C 
ATOM     25  O   UNL d   1      24.460 -18.286   0.742  0.00  0.00    -0.273 OA
ATOM     26  N   UNL d   1      22.802 -17.963  -0.792  0.00  0.00    -0.356 N 
ATOM     27  H   UNL d   1      22.875 -17.939  -1.807  0.00  0.00     0.162 HD
BRANCH  26  28
ATOM     28  C   UNL d   1      21.901 -19.038  -0.459  0.00  0.00     0.084 C 
ATOM     29  C   UNL d   1      21.413 -18.948   0.962  0.00  0.00     0.025 C 
ATOM     30  C   UNL d   1      20.157 -19.792   0.964  0.00  0.00     0.002 C 
ATOM     31  C   UNL d   1      19.558 -19.665  -0.436  0.00  0.00     0.002 C 
ATOM     32  C   UNL d   1      20.600 -18.931  -1.274  0.00  0.00     0.025 C 
ENDBRANCH  26  28
ENDBRANCH   7  24
BRANCH   5  33
ATOM     33  O   UNL d   1      26.946 -18.081  -0.516  0.00  0.00    -0.393 OA
ATOM     34  H   UNL d   1      26.108 -18.290  -0.035  0.00  0.00     0.210 HD
ENDBRANCH   5  33
TORSDOF 8
ENDMDL
