MODEL 1
REMARK VINA RESULT:    -9.727      0.000      0.000
REMARK INTER + INTRA:         -14.027
REMARK INTER:                 -12.710
REMARK INTRA:                  -1.318
REMARK CONF_INDEPENDENT:        2.983
REMARK UNBOUND:                -1.318
REMARK  10 active torsions:
REMARK  status: ('A' for Active; 'I' for Inactive)
REMARK       I    between atoms: C_2  and  N_3 
REMARK    1  A    between atoms: C_2  and  C_17 
REMARK    2  A    between atoms: N_3  and  C_4 
REMARK    3  A    between atoms: C_4  and  N_6 
REMARK    4  A    between atoms: N_6  and  C_7 
REMARK    5  A    between atoms: C_10  and  N_11 
REMARK    6  A    between atoms: C_15  and  O_16 
REMARK    7  A    between atoms: C_20  and  O_21 
REMARK    8  A    between atoms: O_21  and  C_22 
REMARK    9  A    between atoms: C_22  and  C_23 
REMARK   10  A    between atoms: C_23  and  C_24 
ROOT
ATOM      1  O   UNL d   1      28.109 -12.909  -3.133  0.00  0.00    -0.267 OA
ATOM      2  C   UNL d   1      26.877 -12.991  -3.215  0.00  0.00     0.257 C 
ATOM      3  N   UNL d   1      26.014 -12.024  -3.765  0.00  0.00    -0.299 N 
ATOM      4  H   UNL d   1      25.028 -12.249  -3.788  0.00  0.00     0.171 HD
ENDROOT
BRANCH   2   5
ATOM      5  C   UNL d   1      26.358 -14.276  -2.702  0.00  0.00     0.033 A 
ATOM      6  C   UNL d   1      24.996 -14.577  -2.904  0.00  0.00     0.020 A 
ATOM      7  C   UNL d   1      24.405 -15.680  -2.280  0.00  0.00     0.039 A 
ATOM      8  C   UNL d   1      25.165 -16.485  -1.428  0.00  0.00     0.086 A 
ATOM      9  C   UNL d   1      26.515 -16.156  -1.208  0.00  0.00     0.045 A 
ATOM     10 BR   UNL d   1      27.587 -17.172  -0.009  0.00  0.00    -0.048 Br
ATOM     11  C   UNL d   1      27.112 -15.057  -1.835  0.00  0.00     0.039 A 
BRANCH   8  12
ATOM     12  O   UNL d   1      24.688 -17.578  -0.758  0.00  0.00    -0.349 OA
BRANCH  12  13
ATOM     13  C   UNL d   1      23.371 -17.486  -0.226  0.00  0.00     0.180 C 
BRANCH  13  14
ATOM     14  C   UNL d   1      22.422 -18.223  -1.164  0.00  0.00     0.065 C 
BRANCH  14  15
ATOM     15  C   UNL d   1      21.247 -18.827  -0.443  0.00  0.00    -0.056 A 
ATOM     16  C   UNL d   1      21.257 -18.950   0.951  0.00  0.00     0.007 A 
ATOM     17  C   UNL d   1      20.258 -19.684   1.593  0.00  0.00     0.001 A 
ATOM     18  C   UNL d   1      19.199 -20.219   0.859  0.00  0.00     0.000 A 
ATOM     19  C   UNL d   1      19.151 -20.050  -0.520  0.00  0.00     0.001 A 
ATOM     20  C   UNL d   1      20.177 -19.373  -1.168  0.00  0.00     0.007 A 
ENDBRANCH  14  15
ENDBRANCH  13  14
ENDBRANCH  12  13
ENDBRANCH   8  12
ENDBRANCH   2   5
BRANCH   3  21
ATOM     21  C   UNL d   1      26.406 -10.730  -4.185  0.00  0.00     0.179 C 
ATOM     22  S   UNL d   1      25.915 -10.067  -5.671  0.00  0.00    -0.040 SA
BRANCH  21  23
ATOM     23  N   UNL d   1      27.276 -10.046  -3.287  0.00  0.00    -0.331 N 
ATOM     24  H   UNL d   1      28.119  -9.606  -3.633  0.00  0.00     0.168 HD
BRANCH  23  25
ATOM     25  C   UNL d   1      26.828  -9.621  -1.979  0.00  0.00     0.068 C 
ATOM     26  C   UNL d   1      27.377 -10.131  -0.791  0.00  0.00     0.035 C 
ATOM     27  C   UNL d   1      27.071  -9.520   0.450  0.00  0.00     0.038 C 
ATOM     28  C   UNL d   1      26.208  -8.412   0.499  0.00  0.00     0.105 C 
ATOM     29  C   UNL d   1      25.604  -7.941  -0.668  0.00  0.00     0.075 C 
ATOM     30  C   UNL d   1      25.878  -8.589  -1.871  0.00  0.00     0.094 C 
BRANCH  28  31
ATOM     31  N   UNL d   1      25.888  -7.762   1.782  0.00  0.00    -0.116 N 
ATOM     32  O   UNL d   1      25.530  -6.577   1.757  0.00  0.00    -0.532 OA
ATOM     33  O   UNL d   1      26.008  -8.438   2.816  0.00  0.00    -0.532 OA
ENDBRANCH  28  31
BRANCH  30  34
ATOM     34  O   UNL d   1      25.155  -8.245  -2.986  0.00  0.00    -0.358 OA
ATOM     35  H   UNL d   1      24.342  -8.778  -2.994  0.00  0.00     0.217 HD
ENDBRANCH  30  34
ENDBRANCH  23  25
ENDBRANCH  21  23
ENDBRANCH   3  21
TORSDOF 10
ENDMDL
MODEL 2
REMARK VINA RESULT:    -9.459      3.998      4.825
REMARK INTER + INTRA:         -14.255
REMARK INTER:                 -12.442
REMARK INTRA:                  -1.813
REMARK CONF_INDEPENDENT:        2.983
REMARK UNBOUND:                -1.813
REMARK  10 active torsions:
REMARK  status: ('A' for Active; 'I' for Inactive)
REMARK       I    between atoms: C_2  and  N_3 
REMARK    1  A    between atoms: C_2  and  C_17 
REMARK    2  A    between atoms: N_3  and  C_4 
REMARK    3  A    between atoms: C_4  and  N_6 
REMARK    4  A    between atoms: N_6  and  C_7 
REMARK    5  A    between atoms: C_10  and  N_11 
REMARK    6  A    between atoms: C_15  and  O_16 
REMARK    7  A    between atoms: C_20  and  O_21 
REMARK    8  A    between atoms: O_21  and  C_22 
REMARK    9  A    between atoms: C_22  and  C_23 
REMARK   10  A    between atoms: C_23  and  C_24 
ROOT
ATOM      1  O   UNL d   1      29.560 -13.657  -0.211  0.00  0.00    -0.267 OA
ATOM      2  C   UNL d   1      29.096 -14.493   0.576  0.00  0.00     0.257 C 
ATOM      3  N   UNL d   1      29.611 -14.814   1.846  0.00  0.00    -0.299 N 
ATOM      4  H   UNL d   1      29.101 -15.500   2.387  0.00  0.00     0.171 HD
ENDROOT
BRANCH   2   5
ATOM      5  C   UNL d   1      27.863 -15.127   0.067  0.00  0.00     0.033 A 
ATOM      6  C   UNL d   1      27.440 -16.336   0.654  0.00  0.00     0.020 A 
ATOM      7  C   UNL d   1      26.396 -17.080   0.094  0.00  0.00     0.039 A 
ATOM      8  C   UNL d   1      25.776 -16.633  -1.075  0.00  0.00     0.086 A 
ATOM      9  C   UNL d   1      26.228 -15.443  -1.672  0.00  0.00     0.045 A 
ATOM     10 BR   UNL d   1      25.470 -14.814  -3.299  0.00  0.00    -0.048 Br
ATOM     11  C   UNL d   1      27.268 -14.692  -1.111  0.00  0.00     0.039 A 
BRANCH   8  12
ATOM     12  O   UNL d   1      24.757 -17.285  -1.714  0.00  0.00    -0.349 OA
BRANCH  12  13
ATOM     13  C   UNL d   1      23.510 -17.363  -1.032  0.00  0.00     0.180 C 
BRANCH  13  14
ATOM     14  C   UNL d   1      23.095 -18.828  -0.960  0.00  0.00     0.065 C 
BRANCH  14  15
ATOM     15  C   UNL d   1      21.685 -19.007  -0.462  0.00  0.00    -0.056 A 
ATOM     16  C   UNL d   1      21.406 -18.966   0.909  0.00  0.00     0.007 A 
ATOM     17  C   UNL d   1      20.141 -19.325   1.373  0.00  0.00     0.001 A 
ATOM     18  C   UNL d   1      19.124 -19.637   0.470  0.00  0.00     0.000 A 
ATOM     19  C   UNL d   1      19.377 -19.623  -0.896  0.00  0.00     0.001 A 
ATOM     20  C   UNL d   1      20.654 -19.326  -1.358  0.00  0.00     0.007 A 
ENDBRANCH  14  15
ENDBRANCH  13  14
ENDBRANCH  12  13
ENDBRANCH   8  12
ENDBRANCH   2   5
BRANCH   3  21
ATOM     21  C   UNL d   1      30.835 -14.336   2.371  0.00  0.00     0.179 C 
ATOM     22  S   UNL d   1      32.323 -14.589   1.589  0.00  0.00    -0.040 SA
BRANCH  21  23
ATOM     23  N   UNL d   1      30.729 -13.666   3.624  0.00  0.00    -0.331 N 
ATOM     24  H   UNL d   1      31.488 -13.715   4.292  0.00  0.00     0.168 HD
BRANCH  23  25
ATOM     25  C   UNL d   1      29.762 -12.612   3.837  0.00  0.00     0.068 C 
ATOM     26  C   UNL d   1      30.135 -11.269   4.009  0.00  0.00     0.035 C 
ATOM     27  C   UNL d   1      29.150 -10.251   3.982  0.00  0.00     0.038 C 
ATOM     28  C   UNL d   1      27.796 -10.582   3.798  0.00  0.00     0.105 C 
ATOM     29  C   UNL d   1      27.409 -11.918   3.696  0.00  0.00     0.075 C 
ATOM     30  C   UNL d   1      28.387 -12.907   3.776  0.00  0.00     0.094 C 
BRANCH  28  31
ATOM     31  N   UNL d   1      26.763  -9.532   3.761  0.00  0.00    -0.116 N 
ATOM     32  O   UNL d   1      27.030  -8.439   4.278  0.00  0.00    -0.532 OA
ATOM     33  O   UNL d   1      25.680  -9.809   3.222  0.00  0.00    -0.532 OA
ENDBRANCH  28  31
BRANCH  30  34
ATOM     34  O   UNL d   1      27.995 -14.220   3.853  0.00  0.00    -0.358 OA
ATOM     35  H   UNL d   1      28.771 -14.777   3.668  0.00  0.00     0.217 HD
ENDBRANCH  30  34
ENDBRANCH  23  25
ENDBRANCH  21  23
ENDBRANCH   3  21
TORSDOF 10
ENDMDL
MODEL 3
REMARK VINA RESULT:    -9.448      6.576     10.145
REMARK INTER + INTRA:         -14.114
REMARK INTER:                 -12.431
REMARK INTRA:                  -1.683
REMARK CONF_INDEPENDENT:        2.983
REMARK UNBOUND:                -1.683
REMARK  10 active torsions:
REMARK  status: ('A' for Active; 'I' for Inactive)
REMARK       I    between atoms: C_2  and  N_3 
REMARK    1  A    between atoms: C_2  and  C_17 
REMARK    2  A    between atoms: N_3  and  C_4 
REMARK    3  A    between atoms: C_4  and  N_6 
REMARK    4  A    between atoms: N_6  and  C_7 
REMARK    5  A    between atoms: C_10  and  N_11 
REMARK    6  A    between atoms: C_15  and  O_16 
REMARK    7  A    between atoms: C_20  and  O_21 
REMARK    8  A    between atoms: O_21  and  C_22 
REMARK    9  A    between atoms: C_22  and  C_23 
REMARK   10  A    between atoms: C_23  and  C_24 
ROOT
ATOM      1  O   UNL d   1      26.740 -14.259   0.859  0.00  0.00    -0.267 OA
ATOM      2  C   UNL d   1      27.790 -14.595   1.421  0.00  0.00     0.257 C 
ATOM      3  N   UNL d   1      28.782 -15.443   0.892  0.00  0.00    -0.299 N 
ATOM      4  H   UNL d   1      29.602 -15.600   1.462  0.00  0.00     0.171 HD
ENDROOT
BRANCH   2   5
ATOM      5  C   UNL d   1      27.951 -13.964   2.747  0.00  0.00     0.033 A 
ATOM      6  C   UNL d   1      27.976 -14.794   3.885  0.00  0.00     0.020 A 
ATOM      7  C   UNL d   1      27.933 -14.249   5.173  0.00  0.00     0.039 A 
ATOM      8  C   UNL d   1      27.841 -12.865   5.337  0.00  0.00     0.086 A 
ATOM      9  C   UNL d   1      27.782 -12.048   4.194  0.00  0.00     0.045 A 
ATOM     10 BR   UNL d   1      27.590 -10.161   4.347  0.00  0.00    -0.048 Br
ATOM     11  C   UNL d   1      27.831 -12.588   2.904  0.00  0.00     0.039 A 
BRANCH   8  12
ATOM     12  O   UNL d   1      27.779 -12.227   6.545  0.00  0.00    -0.349 OA
BRANCH  12  13
ATOM     13  C   UNL d   1      28.999 -11.713   7.068  0.00  0.00     0.180 C 
BRANCH  13  14
ATOM     14  C   UNL d   1      29.752 -12.856   7.738  0.00  0.00     0.065 C 
BRANCH  14  15
ATOM     15  C   UNL d   1      29.113 -13.294   9.029  0.00  0.00    -0.056 A 
ATOM     16  C   UNL d   1      28.182 -12.472   9.674  0.00  0.00     0.007 A 
ATOM     17  C   UNL d   1      27.744 -12.791  10.959  0.00  0.00     0.001 A 
ATOM     18  C   UNL d   1      28.161 -13.974  11.570  0.00  0.00     0.000 A 
ATOM     19  C   UNL d   1      29.041 -14.826  10.912  0.00  0.00     0.001 A 
ATOM     20  C   UNL d   1      29.527 -14.479   9.657  0.00  0.00     0.007 A 
ENDBRANCH  14  15
ENDBRANCH  13  14
ENDBRANCH  12  13
ENDBRANCH   8  12
ENDBRANCH   2   5
BRANCH   3  21
ATOM     21  C   UNL d   1      28.669 -16.168  -0.319  0.00  0.00     0.179 C 
ATOM     22  S   UNL d   1      29.315 -15.600  -1.785  0.00  0.00    -0.040 SA
BRANCH  21  23
ATOM     23  N   UNL d   1      27.938 -17.387  -0.222  0.00  0.00    -0.331 N 
ATOM     24  H   UNL d   1      28.352 -18.193   0.227  0.00  0.00     0.168 HD
BRANCH  23  25
ATOM     25  C   UNL d   1      26.501 -17.420  -0.388  0.00  0.00     0.068 C 
ATOM     26  C   UNL d   1      25.851 -16.785  -1.458  0.00  0.00     0.035 C 
ATOM     27  C   UNL d   1      24.478 -17.039  -1.704  0.00  0.00     0.038 C 
ATOM     28  C   UNL d   1      23.761 -17.916  -0.871  0.00  0.00     0.105 C 
ATOM     29  C   UNL d   1      24.382 -18.497   0.235  0.00  0.00     0.075 C 
ATOM     30  C   UNL d   1      25.718 -18.194   0.489  0.00  0.00     0.094 C 
BRANCH  28  31
ATOM     31  N   UNL d   1      22.336 -18.194  -1.121  0.00  0.00    -0.116 N 
ATOM     32  O   UNL d   1      21.522 -17.289  -0.895  0.00  0.00    -0.532 OA
ATOM     33  O   UNL d   1      22.033 -19.325  -1.532  0.00  0.00    -0.532 OA
ENDBRANCH  28  31
BRANCH  30  34
ATOM     34  O   UNL d   1      26.280 -18.620   1.667  0.00  0.00    -0.358 OA
ATOM     35  H   UNL d   1      27.008 -18.014   1.889  0.00  0.00     0.217 HD
ENDBRANCH  30  34
ENDBRANCH  23  25
ENDBRANCH  21  23
ENDBRANCH   3  21
TORSDOF 10
ENDMDL
MODEL 4
REMARK VINA RESULT:    -8.928      2.007      2.349
REMARK INTER + INTRA:         -13.340
REMARK INTER:                 -11.911
REMARK INTRA:                  -1.429
REMARK CONF_INDEPENDENT:        2.983
REMARK UNBOUND:                -1.429
REMARK  10 active torsions:
REMARK  status: ('A' for Active; 'I' for Inactive)
REMARK       I    between atoms: C_2  and  N_3 
REMARK    1  A    between atoms: C_2  and  C_17 
REMARK    2  A    between atoms: N_3  and  C_4 
REMARK    3  A    between atoms: C_4  and  N_6 
REMARK    4  A    between atoms: N_6  and  C_7 
REMARK    5  A    between atoms: C_10  and  N_11 
REMARK    6  A    between atoms: C_15  and  O_16 
REMARK    7  A    between atoms: C_20  and  O_21 
REMARK    8  A    between atoms: O_21  and  C_22 
REMARK    9  A    between atoms: C_22  and  C_23 
REMARK   10  A    between atoms: C_23  and  C_24 
ROOT
ATOM      1  O   UNL d   1      28.322 -14.577  -3.418  0.00  0.00    -0.267 OA
ATOM      2  C   UNL d   1      27.756 -14.308  -2.350  0.00  0.00     0.257 C 
ATOM      3  N   UNL d   1      27.951 -13.150  -1.574  0.00  0.00    -0.299 N 
ATOM      4  H   UNL d   1      27.391 -13.059  -0.737  0.00  0.00     0.171 HD
ENDROOT
BRANCH   2   5
ATOM      5  C   UNL d   1      26.772 -15.336  -1.955  0.00  0.00     0.033 A 
ATOM      6  C   UNL d   1      25.414 -15.118  -2.265  0.00  0.00     0.020 A 
ATOM      7  C   UNL d   1      24.418 -15.955  -1.752  0.00  0.00     0.039 A 
ATOM      8  C   UNL d   1      24.765 -17.009  -0.905  0.00  0.00     0.086 A 
ATOM      9  C   UNL d   1      26.119 -17.198  -0.576  0.00  0.00     0.045 A 
ATOM     10 BR   UNL d   1      26.652 -18.575   0.624  0.00  0.00    -0.048 Br
ATOM     11  C   UNL d   1      27.121 -16.367  -1.091  0.00  0.00     0.039 A 
BRANCH   8  12
ATOM     12  O   UNL d   1      23.874 -17.879  -0.339  0.00  0.00    -0.349 OA
BRANCH  12  13
ATOM     13  C   UNL d   1      22.497 -17.524  -0.398  0.00  0.00     0.180 C 
BRANCH  13  14
ATOM     14  C   UNL d   1      21.743 -18.644  -1.104  0.00  0.00     0.065 C 
BRANCH  14  15
ATOM     15  C   UNL d   1      20.618 -19.201  -0.272  0.00  0.00    -0.056 A 
ATOM     16  C   UNL d   1      20.756 -19.325   1.114  0.00  0.00     0.007 A 
ATOM     17  C   UNL d   1      19.794 -20.017   1.851  0.00  0.00     0.001 A 
ATOM     18  C   UNL d   1      18.649 -20.509   1.223  0.00  0.00     0.000 A 
ATOM     19  C   UNL d   1      18.476 -20.337  -0.145  0.00  0.00     0.001 A 
ATOM     20  C   UNL d   1      19.462 -19.702  -0.891  0.00  0.00     0.007 A 
ENDBRANCH  14  15
ENDBRANCH  13  14
ENDBRANCH  12  13
ENDBRANCH   8  12
ENDBRANCH   2   5
BRANCH   3  21
ATOM     21  C   UNL d   1      28.939 -12.165  -1.818  0.00  0.00     0.179 C 
ATOM     22  S   UNL d   1      29.443 -11.749  -3.387  0.00  0.00    -0.040 SA
BRANCH  21  23
ATOM     23  N   UNL d   1      29.507 -11.583  -0.648  0.00  0.00    -0.331 N 
ATOM     24  H   UNL d   1      30.503 -11.645  -0.482  0.00  0.00     0.168 HD
BRANCH  23  25
ATOM     25  C   UNL d   1      28.796 -10.583   0.119  0.00  0.00     0.068 C 
ATOM     26  C   UNL d   1      28.886  -9.211  -0.164  0.00  0.00     0.035 C 
ATOM     27  C   UNL d   1      27.999  -8.299   0.460  0.00  0.00     0.038 C 
ATOM     28  C   UNL d   1      27.037  -8.762   1.375  0.00  0.00     0.105 C 
ATOM     29  C   UNL d   1      26.986 -10.115   1.714  0.00  0.00     0.075 C 
ATOM     30  C   UNL d   1      27.901 -10.987   1.128  0.00  0.00     0.094 C 
BRANCH  28  31
ATOM     31  N   UNL d   1      26.104  -7.826   2.025  0.00  0.00    -0.116 N 
ATOM     32  O   UNL d   1      25.155  -7.396   1.355  0.00  0.00    -0.532 OA
ATOM     33  O   UNL d   1      26.330  -7.512   3.204  0.00  0.00    -0.532 OA
ENDBRANCH  28  31
BRANCH  30  34
ATOM     34  O   UNL d   1      27.972 -12.278   1.587  0.00  0.00    -0.358 OA
ATOM     35  H   UNL d   1      28.873 -12.430   1.920  0.00  0.00     0.217 HD
ENDBRANCH  30  34
ENDBRANCH  23  25
ENDBRANCH  21  23
ENDBRANCH   3  21
TORSDOF 10
ENDMDL
MODEL 5
REMARK VINA RESULT:    -8.587      6.102     10.004
REMARK INTER + INTRA:         -13.814
REMARK INTER:                 -11.570
REMARK INTRA:                  -2.244
REMARK CONF_INDEPENDENT:        2.983
REMARK UNBOUND:                -2.244
REMARK  10 active torsions:
REMARK  status: ('A' for Active; 'I' for Inactive)
REMARK       I    between atoms: C_2  and  N_3 
REMARK    1  A    between atoms: C_2  and  C_17 
REMARK    2  A    between atoms: N_3  and  C_4 
REMARK    3  A    between atoms: C_4  and  N_6 
REMARK    4  A    between atoms: N_6  and  C_7 
REMARK    5  A    between atoms: C_10  and  N_11 
REMARK    6  A    between atoms: C_15  and  O_16 
REMARK    7  A    between atoms: C_20  and  O_21 
REMARK    8  A    between atoms: O_21  and  C_22 
REMARK    9  A    between atoms: C_22  and  C_23 
REMARK   10  A    between atoms: C_23  and  C_24 
ROOT
ATOM      1  O   UNL d   1      27.076 -16.066   1.093  0.00  0.00    -0.267 OA
ATOM      2  C   UNL d   1      26.981 -14.856   0.850  0.00  0.00     0.257 C 
ATOM      3  N   UNL d   1      26.365 -14.280  -0.278  0.00  0.00    -0.299 N 
ATOM      4  H   UNL d   1      26.341 -13.270  -0.321  0.00  0.00     0.171 HD
ENDROOT
BRANCH   2   5
ATOM      5  C   UNL d   1      27.556 -14.016   1.920  0.00  0.00     0.033 A 
ATOM      6  C   UNL d   1      28.287 -14.646   2.947  0.00  0.00     0.020 A 
ATOM      7  C   UNL d   1      28.690 -13.935   4.082  0.00  0.00     0.039 A 
ATOM      8  C   UNL d   1      28.347 -12.587   4.214  0.00  0.00     0.086 A 
ATOM      9  C   UNL d   1      27.588 -11.977   3.199  0.00  0.00     0.045 A 
ATOM     10 BR   UNL d   1      27.032 -10.164   3.349  0.00  0.00    -0.048 Br
ATOM     11  C   UNL d   1      27.188 -12.683   2.059  0.00  0.00     0.039 A 
BRANCH   8  12
ATOM     12  O   UNL d   1      28.676 -11.802   5.284  0.00  0.00    -0.349 OA
BRANCH  12  13
ATOM     13  C   UNL d   1      27.820 -11.863   6.420  0.00  0.00     0.180 C 
BRANCH  13  14
ATOM     14  C   UNL d   1      28.645 -11.535   7.659  0.00  0.00     0.065 C 
BRANCH  14  15
ATOM     15  C   UNL d   1      28.502 -12.572   8.742  0.00  0.00    -0.056 A 
ATOM     16  C   UNL d   1      28.040 -12.212  10.012  0.00  0.00     0.007 A 
ATOM     17  C   UNL d   1      28.095 -13.131  11.060  0.00  0.00     0.001 A 
ATOM     18  C   UNL d   1      28.524 -14.438  10.826  0.00  0.00     0.000 A 
ATOM     19  C   UNL d   1      28.929 -14.820   9.553  0.00  0.00     0.001 A 
ATOM     20  C   UNL d   1      28.933 -13.889   8.521  0.00  0.00     0.007 A 
ENDBRANCH  14  15
ENDBRANCH  13  14
ENDBRANCH  12  13
ENDBRANCH   8  12
ENDBRANCH   2   5
BRANCH   3  21
ATOM     21  C   UNL d   1      25.880 -15.001  -1.396  0.00  0.00     0.179 C 
ATOM     22  S   UNL d   1      25.420 -14.237  -2.842  0.00  0.00    -0.040 SA
BRANCH  21  23
ATOM     23  N   UNL d   1      25.767 -16.407  -1.199  0.00  0.00    -0.331 N 
ATOM     24  H   UNL d   1      26.595 -16.965  -1.031  0.00  0.00     0.168 HD
BRANCH  23  25
ATOM     25  C   UNL d   1      24.506 -17.022  -0.849  0.00  0.00     0.068 C 
ATOM     26  C   UNL d   1      23.274 -16.374  -1.035  0.00  0.00     0.035 C 
ATOM     27  C   UNL d   1      22.064 -17.099  -0.894  0.00  0.00     0.038 C 
ATOM     28  C   UNL d   1      22.092 -18.463  -0.555  0.00  0.00     0.105 C 
ATOM     29  C   UNL d   1      23.308 -19.097  -0.301  0.00  0.00     0.075 C 
ATOM     30  C   UNL d   1      24.483 -18.354  -0.394  0.00  0.00     0.094 C 
BRANCH  28  31
ATOM     31  N   UNL d   1      20.842 -19.230  -0.414  0.00  0.00    -0.116 N 
ATOM     32  O   UNL d   1      20.332 -19.698  -1.441  0.00  0.00    -0.532 OA
ATOM     33  O   UNL d   1      20.366 -19.351   0.725  0.00  0.00    -0.532 OA
ENDBRANCH  28  31
BRANCH  30  34
ATOM     34  O   UNL d   1      25.660 -18.923   0.024  0.00  0.00    -0.358 OA
ATOM     35  H   UNL d   1      26.331 -18.220   0.079  0.00  0.00     0.217 HD
ENDBRANCH  30  34
ENDBRANCH  23  25
ENDBRANCH  21  23
ENDBRANCH   3  21
TORSDOF 10
ENDMDL
MODEL 6
REMARK VINA RESULT:    -8.560      6.040     10.260
REMARK INTER + INTRA:         -13.338
REMARK INTER:                 -11.543
REMARK INTRA:                  -1.795
REMARK CONF_INDEPENDENT:        2.983
REMARK UNBOUND:                -1.795
REMARK  10 active torsions:
REMARK  status: ('A' for Active; 'I' for Inactive)
REMARK       I    between atoms: C_2  and  N_3 
REMARK    1  A    between atoms: C_2  and  C_17 
REMARK    2  A    between atoms: N_3  and  C_4 
REMARK    3  A    between atoms: C_4  and  N_6 
REMARK    4  A    between atoms: N_6  and  C_7 
REMARK    5  A    between atoms: C_10  and  N_11 
REMARK    6  A    between atoms: C_15  and  O_16 
REMARK    7  A    between atoms: C_20  and  O_21 
REMARK    8  A    between atoms: O_21  and  C_22 
REMARK    9  A    between atoms: C_22  and  C_23 
REMARK   10  A    between atoms: C_23  and  C_24 
ROOT
ATOM      1  O   UNL d   1      26.751 -14.151   0.300  0.00  0.00    -0.267 OA
ATOM      2  C   UNL d   1      27.638 -14.517   1.082  0.00  0.00     0.257 C 
ATOM      3  N   UNL d   1      28.638 -15.472   0.816  0.00  0.00    -0.299 N 
ATOM      4  H   UNL d   1      29.314 -15.644   1.548  0.00  0.00     0.171 HD
ENDROOT
BRANCH   2   5
ATOM      5  C   UNL d   1      27.590 -13.799   2.371  0.00  0.00     0.033 A 
ATOM      6  C   UNL d   1      27.278 -12.425   2.361  0.00  0.00     0.020 A 
ATOM      7  C   UNL d   1      27.404 -11.652   3.520  0.00  0.00     0.039 A 
ATOM      8  C   UNL d   1      27.867 -12.240   4.700  0.00  0.00     0.086 A 
ATOM      9  C   UNL d   1      28.208 -13.604   4.690  0.00  0.00     0.045 A 
ATOM     10 BR   UNL d   1      28.906 -14.450   6.244  0.00  0.00    -0.048 Br
ATOM     11  C   UNL d   1      28.077 -14.383   3.535  0.00  0.00     0.039 A 
BRANCH   8  12
ATOM     12  O   UNL d   1      28.040 -11.578   5.884  0.00  0.00    -0.349 OA
BRANCH  12  13
ATOM     13  C   UNL d   1      29.261 -10.866   6.054  0.00  0.00     0.180 C 
BRANCH  13  14
ATOM     14  C   UNL d   1      29.251 -10.222   7.436  0.00  0.00     0.065 C 
BRANCH  14  15
ATOM     15  C   UNL d   1      29.274 -11.236   8.548  0.00  0.00    -0.056 A 
ATOM     16  C   UNL d   1      28.225 -12.149   8.698  0.00  0.00     0.007 A 
ATOM     17  C   UNL d   1      28.156 -12.951   9.837  0.00  0.00     0.001 A 
ATOM     18  C   UNL d   1      29.178 -12.912  10.786  0.00  0.00     0.000 A 
ATOM     19  C   UNL d   1      30.255 -12.049  10.615  0.00  0.00     0.001 A 
ATOM     20  C   UNL d   1      30.294 -11.205   9.512  0.00  0.00     0.007 A 
ENDBRANCH  14  15
ENDBRANCH  13  14
ENDBRANCH  12  13
ENDBRANCH   8  12
ENDBRANCH   2   5
BRANCH   3  21
ATOM     21  C   UNL d   1      28.703 -16.280  -0.346  0.00  0.00     0.179 C 
ATOM     22  S   UNL d   1      29.584 -15.822  -1.725  0.00  0.00    -0.040 SA
BRANCH  21  23
ATOM     23  N   UNL d   1      27.939 -17.481  -0.284  0.00  0.00    -0.331 N 
ATOM     24  H   UNL d   1      28.339 -18.317   0.120  0.00  0.00     0.168 HD
BRANCH  23  25
ATOM     25  C   UNL d   1      26.499 -17.467  -0.420  0.00  0.00     0.068 C 
ATOM     26  C   UNL d   1      25.848 -16.846  -1.498  0.00  0.00     0.035 C 
ATOM     27  C   UNL d   1      24.462 -17.058  -1.706  0.00  0.00     0.038 C 
ATOM     28  C   UNL d   1      23.732 -17.878  -0.829  0.00  0.00     0.105 C 
ATOM     29  C   UNL d   1      24.356 -18.443   0.284  0.00  0.00     0.075 C 
ATOM     30  C   UNL d   1      25.707 -18.181   0.500  0.00  0.00     0.094 C 
BRANCH  28  31
ATOM     31  N   UNL d   1      22.293 -18.112  -1.039  0.00  0.00    -0.116 N 
ATOM     32  O   UNL d   1      21.524 -17.153  -0.895  0.00  0.00    -0.532 OA
ATOM     33  O   UNL d   1      21.934 -19.262  -1.337  0.00  0.00    -0.532 OA
ENDBRANCH  28  31
BRANCH  30  34
ATOM     34  O   UNL d   1      26.279 -18.586   1.680  0.00  0.00    -0.358 OA
ATOM     35  H   UNL d   1      26.949 -17.927   1.932  0.00  0.00     0.217 HD
ENDBRANCH  30  34
ENDBRANCH  23  25
ENDBRANCH  21  23
ENDBRANCH   3  21
TORSDOF 10
ENDMDL
MODEL 7
REMARK VINA RESULT:    -8.461      7.120      9.928
REMARK INTER + INTRA:         -13.322
REMARK INTER:                 -11.444
REMARK INTRA:                  -1.878
REMARK CONF_INDEPENDENT:        2.983
REMARK UNBOUND:                -1.878
REMARK  10 active torsions:
REMARK  status: ('A' for Active; 'I' for Inactive)
REMARK       I    between atoms: C_2  and  N_3 
REMARK    1  A    between atoms: C_2  and  C_17 
REMARK    2  A    between atoms: N_3  and  C_4 
REMARK    3  A    between atoms: C_4  and  N_6 
REMARK    4  A    between atoms: N_6  and  C_7 
REMARK    5  A    between atoms: C_10  and  N_11 
REMARK    6  A    between atoms: C_15  and  O_16 
REMARK    7  A    between atoms: C_20  and  O_21 
REMARK    8  A    between atoms: O_21  and  C_22 
REMARK    9  A    between atoms: C_22  and  C_23 
REMARK   10  A    between atoms: C_23  and  C_24 
ROOT
ATOM      1  O   UNL d   1      30.880 -19.608  -1.263  0.00  0.00    -0.267 OA
ATOM      2  C   UNL d   1      30.881 -18.512  -0.686  0.00  0.00     0.257 C 
ATOM      3  N   UNL d   1      31.820 -18.076   0.268  0.00  0.00    -0.299 N 
ATOM      4  H   UNL d   1      31.703 -17.138   0.629  0.00  0.00     0.171 HD
ENDROOT
BRANCH   2   5
ATOM      5  C   UNL d   1      29.783 -17.633  -1.138  0.00  0.00     0.033 A 
ATOM      6  C   UNL d   1      29.700 -17.315  -2.508  0.00  0.00     0.020 A 
ATOM      7  C   UNL d   1      28.807 -16.341  -2.967  0.00  0.00     0.039 A 
ATOM      8  C   UNL d   1      28.000 -15.656  -2.055  0.00  0.00     0.086 A 
ATOM      9  C   UNL d   1      28.116 -15.956  -0.686  0.00  0.00     0.045 A 
ATOM     10 BR   UNL d   1      27.094 -15.014   0.613  0.00  0.00    -0.048 Br
ATOM     11  C   UNL d   1      29.003 -16.935  -0.224  0.00  0.00     0.039 A 
BRANCH   8  12
ATOM     12  O   UNL d   1      27.104 -14.679  -2.391  0.00  0.00    -0.349 OA
BRANCH  12  13
ATOM     13  C   UNL d   1      26.104 -15.018  -3.346  0.00  0.00     0.180 C 
BRANCH  13  14
ATOM     14  C   UNL d   1      24.738 -14.837  -2.694  0.00  0.00     0.065 C 
BRANCH  14  15
ATOM     15  C   UNL d   1      24.394 -15.957  -1.748  0.00  0.00    -0.056 A 
ATOM     16  C   UNL d   1      25.243 -17.062  -1.619  0.00  0.00     0.007 A 
ATOM     17  C   UNL d   1      24.826 -18.180  -0.895  0.00  0.00     0.001 A 
ATOM     18  C   UNL d   1      23.603 -18.166  -0.224  0.00  0.00     0.000 A 
ATOM     19  C   UNL d   1      22.780 -17.048  -0.299  0.00  0.00     0.001 A 
ATOM     20  C   UNL d   1      23.166 -15.958  -1.070  0.00  0.00     0.007 A 
ENDBRANCH  14  15
ENDBRANCH  13  14
ENDBRANCH  12  13
ENDBRANCH   8  12
ENDBRANCH   2   5
BRANCH   3  21
ATOM     21  C   UNL d   1      32.838 -18.880   0.833  0.00  0.00     0.179 C 
ATOM     22  S   UNL d   1      34.414 -18.301   1.100  0.00  0.00    -0.040 SA
BRANCH  21  23
ATOM     23  N   UNL d   1      32.454 -20.222   1.118  0.00  0.00    -0.331 N 
ATOM     24  H   UNL d   1      32.511 -20.931   0.399  0.00  0.00     0.168 HD
BRANCH  23  25
ATOM     25  C   UNL d   1      32.349 -20.704   2.478  0.00  0.00     0.068 C 
ATOM     26  C   UNL d   1      33.351 -20.483   3.437  0.00  0.00     0.035 C 
ATOM     27  C   UNL d   1      33.102 -20.769   4.802  0.00  0.00     0.038 C 
ATOM     28  C   UNL d   1      31.857 -21.287   5.200  0.00  0.00     0.105 C 
ATOM     29  C   UNL d   1      30.880 -21.575   4.246  0.00  0.00     0.075 C 
ATOM     30  C   UNL d   1      31.164 -21.334   2.903  0.00  0.00     0.094 C 
BRANCH  28  31
ATOM     31  N   UNL d   1      31.583 -21.582   6.617  0.00  0.00    -0.116 N 
ATOM     32  O   UNL d   1      30.405 -21.543   6.998  0.00  0.00    -0.532 OA
ATOM     33  O   UNL d   1      32.550 -21.840   7.350  0.00  0.00    -0.532 OA
ENDBRANCH  28  31
BRANCH  30  34
ATOM     34  O   UNL d   1      30.280 -21.777   1.951  0.00  0.00    -0.358 OA
ATOM     35  H   UNL d   1      29.632 -21.070   1.791  0.00  0.00     0.217 HD
ENDBRANCH  30  34
ENDBRANCH  23  25
ENDBRANCH  21  23
ENDBRANCH   3  21
TORSDOF 10
ENDMDL
MODEL 8
REMARK VINA RESULT:    -8.436      4.688      7.786
REMARK INTER + INTRA:         -13.418
REMARK INTER:                 -11.419
REMARK INTRA:                  -1.999
REMARK CONF_INDEPENDENT:        2.983
REMARK UNBOUND:                -1.999
REMARK  10 active torsions:
REMARK  status: ('A' for Active; 'I' for Inactive)
REMARK       I    between atoms: C_2  and  N_3 
REMARK    1  A    between atoms: C_2  and  C_17 
REMARK    2  A    between atoms: N_3  and  C_4 
REMARK    3  A    between atoms: C_4  and  N_6 
REMARK    4  A    between atoms: N_6  and  C_7 
REMARK    5  A    between atoms: C_10  and  N_11 
REMARK    6  A    between atoms: C_15  and  O_16 
REMARK    7  A    between atoms: C_20  and  O_21 
REMARK    8  A    between atoms: O_21  and  C_22 
REMARK    9  A    between atoms: C_22  and  C_23 
REMARK   10  A    between atoms: C_23  and  C_24 
ROOT
ATOM      1  O   UNL d   1      27.388 -15.508  -5.560  0.00  0.00    -0.267 OA
ATOM      2  C   UNL d   1      27.689 -15.139  -4.418  0.00  0.00     0.257 C 
ATOM      3  N   UNL d   1      28.814 -14.371  -4.061  0.00  0.00    -0.299 N 
ATOM      4  H   UNL d   1      28.908 -14.123  -3.085  0.00  0.00     0.171 HD
ENDROOT
BRANCH   2   5
ATOM      5  C   UNL d   1      26.694 -15.552  -3.408  0.00  0.00     0.033 A 
ATOM      6  C   UNL d   1      25.422 -14.946  -3.434  0.00  0.00     0.020 A 
ATOM      7  C   UNL d   1      24.507 -15.151  -2.395  0.00  0.00     0.039 A 
ATOM      8  C   UNL d   1      24.863 -15.950  -1.306  0.00  0.00     0.086 A 
ATOM      9  C   UNL d   1      26.147 -16.523  -1.274  0.00  0.00     0.045 A 
ATOM     10 BR   UNL d   1      26.716 -17.567   0.211  0.00  0.00    -0.048 Br
ATOM     11  C   UNL d   1      27.063 -16.325  -2.313  0.00  0.00     0.039 A 
BRANCH   8  12
ATOM     12  O   UNL d   1      24.054 -16.207  -0.233  0.00  0.00    -0.349 OA
BRANCH  12  13
ATOM     13  C   UNL d   1      22.697 -16.533  -0.509  0.00  0.00     0.180 C 
BRANCH  13  14
ATOM     14  C   UNL d   1      22.642 -17.971  -1.013  0.00  0.00     0.065 C 
BRANCH  14  15
ATOM     15  C   UNL d   1      21.481 -18.742  -0.443  0.00  0.00    -0.056 A 
ATOM     16  C   UNL d   1      20.434 -19.162  -1.270  0.00  0.00     0.007 A 
ATOM     17  C   UNL d   1      19.276 -19.700  -0.708  0.00  0.00     0.001 A 
ATOM     18  C   UNL d   1      19.193 -19.904   0.669  0.00  0.00     0.000 A 
ATOM     19  C   UNL d   1      20.253 -19.542   1.493  0.00  0.00     0.001 A 
ATOM     20  C   UNL d   1      21.383 -18.950   0.941  0.00  0.00     0.007 A 
ENDBRANCH  14  15
ENDBRANCH  13  14
ENDBRANCH  12  13
ENDBRANCH   8  12
ENDBRANCH   2   5
BRANCH   3  21
ATOM     21  C   UNL d   1      29.868 -14.018  -4.938  0.00  0.00     0.179 C 
ATOM     22  S   UNL d   1      29.841 -12.594  -5.867  0.00  0.00    -0.040 SA
BRANCH  21  23
ATOM     23  N   UNL d   1      30.929 -14.966  -5.013  0.00  0.00    -0.331 N 
ATOM     24  H   UNL d   1      31.591 -15.048  -4.253  0.00  0.00     0.168 HD
BRANCH  23  25
ATOM     25  C   UNL d   1      30.886 -16.074  -5.942  0.00  0.00     0.068 C 
ATOM     26  C   UNL d   1      31.422 -15.993  -7.238  0.00  0.00     0.035 C 
ATOM     27  C   UNL d   1      31.563 -17.166  -8.020  0.00  0.00     0.038 C 
ATOM     28  C   UNL d   1      31.154 -18.410  -7.509  0.00  0.00     0.105 C 
ATOM     29  C   UNL d   1      30.557 -18.489  -6.251  0.00  0.00     0.075 C 
ATOM     30  C   UNL d   1      30.381 -17.317  -5.518  0.00  0.00     0.094 C 
BRANCH  28  31
ATOM     31  N   UNL d   1      31.302 -19.638  -8.310  0.00  0.00    -0.116 N 
ATOM     32  O   UNL d   1      32.036 -20.532  -7.867  0.00  0.00    -0.532 OA
ATOM     33  O   UNL d   1      30.692 -19.701  -9.388  0.00  0.00    -0.532 OA
ENDBRANCH  28  31
BRANCH  30  34
ATOM     34  O   UNL d   1      29.639 -17.364  -4.364  0.00  0.00    -0.358 OA
ATOM     35  H   UNL d   1      28.807 -16.885  -4.522  0.00  0.00     0.217 HD
ENDBRANCH  30  34
ENDBRANCH  23  25
ENDBRANCH  21  23
ENDBRANCH   3  21
TORSDOF 10
ENDMDL
MODEL 9
REMARK VINA RESULT:    -8.435      2.216      3.247
REMARK INTER + INTRA:         -13.666
REMARK INTER:                 -11.418
REMARK INTRA:                  -2.248
REMARK CONF_INDEPENDENT:        2.983
REMARK UNBOUND:                -2.248
REMARK  10 active torsions:
REMARK  status: ('A' for Active; 'I' for Inactive)
REMARK       I    between atoms: C_2  and  N_3 
REMARK    1  A    between atoms: C_2  and  C_17 
REMARK    2  A    between atoms: N_3  and  C_4 
REMARK    3  A    between atoms: C_4  and  N_6 
REMARK    4  A    between atoms: N_6  and  C_7 
REMARK    5  A    between atoms: C_10  and  N_11 
REMARK    6  A    between atoms: C_15  and  O_16 
REMARK    7  A    between atoms: C_20  and  O_21 
REMARK    8  A    between atoms: O_21  and  C_22 
REMARK    9  A    between atoms: C_22  and  C_23 
REMARK   10  A    between atoms: C_23  and  C_24 
ROOT
ATOM      1  O   UNL d   1      27.433 -10.130  -4.961  0.00  0.00    -0.267 OA
ATOM      2  C   UNL d   1      26.289 -10.472  -4.636  0.00  0.00     0.257 C 
ATOM      3  N   UNL d   1      25.172  -9.623  -4.509  0.00  0.00    -0.299 N 
ATOM      4  H   UNL d   1      24.292 -10.057  -4.264  0.00  0.00     0.171 HD
ENDROOT
BRANCH   2   5
ATOM      5  C   UNL d   1      26.170 -11.929  -4.425  0.00  0.00     0.033 A 
ATOM      6  C   UNL d   1      25.162 -12.401  -3.561  0.00  0.00     0.020 A 
ATOM      7  C   UNL d   1      25.120 -13.744  -3.172  0.00  0.00     0.039 A 
ATOM      8  C   UNL d   1      26.101 -14.628  -3.626  0.00  0.00     0.086 A 
ATOM      9  C   UNL d   1      27.122 -14.139  -4.461  0.00  0.00     0.045 A 
ATOM     10 BR   UNL d   1      28.525 -15.276  -5.061  0.00  0.00    -0.048 Br
ATOM     11  C   UNL d   1      27.164 -12.798  -4.857  0.00  0.00     0.039 A 
BRANCH   8  12
ATOM     12  O   UNL d   1      26.165 -15.955  -3.300  0.00  0.00    -0.349 OA
BRANCH  12  13
ATOM     13  C   UNL d   1      26.699 -16.282  -2.022  0.00  0.00     0.180 C 
BRANCH  13  14
ATOM     14  C   UNL d   1      25.689 -15.863  -0.959  0.00  0.00     0.065 C 
BRANCH  14  15
ATOM     15  C   UNL d   1      24.523 -16.811  -0.862  0.00  0.00    -0.056 A 
ATOM     16  C   UNL d   1      23.213 -16.323  -0.827  0.00  0.00     0.007 A 
ATOM     17  C   UNL d   1      22.155 -17.186  -0.542  0.00  0.00     0.001 A 
ATOM     18  C   UNL d   1      22.388 -18.552  -0.379  0.00  0.00     0.000 A 
ATOM     19  C   UNL d   1      23.680 -19.055  -0.471  0.00  0.00     0.001 A 
ATOM     20  C   UNL d   1      24.743 -18.187  -0.694  0.00  0.00     0.007 A 
ENDBRANCH  14  15
ENDBRANCH  13  14
ENDBRANCH  12  13
ENDBRANCH   8  12
ENDBRANCH   2   5
BRANCH   3  21
ATOM     21  C   UNL d   1      25.211  -8.210  -4.592  0.00  0.00     0.179 C 
ATOM     22  S   UNL d   1      24.153  -7.327  -5.586  0.00  0.00    -0.040 SA
BRANCH  21  23
ATOM     23  N   UNL d   1      26.232  -7.592  -3.814  0.00  0.00    -0.331 N 
ATOM     24  H   UNL d   1      26.839  -6.899  -4.232  0.00  0.00     0.168 HD
BRANCH  23  25
ATOM     25  C   UNL d   1      26.201  -7.622  -2.368  0.00  0.00     0.068 C 
ATOM     26  C   UNL d   1      25.450  -6.709  -1.610  0.00  0.00     0.035 C 
ATOM     27  C   UNL d   1      25.269  -6.922  -0.221  0.00  0.00     0.038 C 
ATOM     28  C   UNL d   1      25.852  -8.037   0.405  0.00  0.00     0.105 C 
ATOM     29  C   UNL d   1      26.656  -8.911  -0.326  0.00  0.00     0.075 C 
ATOM     30  C   UNL d   1      26.864  -8.656  -1.680  0.00  0.00     0.094 C 
BRANCH  28  31
ATOM     31  N   UNL d   1      25.664  -8.273   1.848  0.00  0.00    -0.116 N 
ATOM     32  O   UNL d   1      24.921  -9.203   2.189  0.00  0.00    -0.532 OA
ATOM     33  O   UNL d   1      26.254  -7.519   2.637  0.00  0.00    -0.532 OA
ENDBRANCH  28  31
BRANCH  30  34
ATOM     34  O   UNL d   1      27.790  -9.406  -2.360  0.00  0.00    -0.358 OA
ATOM     35  H   UNL d   1      27.959  -8.973  -3.214  0.00  0.00     0.217 HD
ENDBRANCH  30  34
ENDBRANCH  23  25
ENDBRANCH  21  23
ENDBRANCH   3  21
TORSDOF 10
ENDMDL
