MODEL 1
REMARK VINA RESULT:    -7.856      0.000      0.000
REMARK INTER + INTRA:         -12.069
REMARK INTER:                 -10.839
REMARK INTRA:                  -1.230
REMARK CONF_INDEPENDENT:        2.983
REMARK UNBOUND:                -1.230
REMARK  10 active torsions:
REMARK  status: ('A' for Active; 'I' for Inactive)
REMARK    1  A    between atoms: C_2  and  O_3 
REMARK    2  A    between atoms: O_3  and  C_4 
REMARK       I    between atoms: C_4  and  N_6 
REMARK    3  A    between atoms: C_7  and  N_6 
REMARK    4  A    between atoms: C_7  and  C_23 
REMARK    5  A    between atoms: C_7  and  C_8 
REMARK    6  A    between atoms: C_8  and  N_9 
REMARK       I    between atoms: N_9  and  C_10 
REMARK       I    between atoms: C_10  and  N_12 
REMARK    7  A    between atoms: N_12  and  C_13 
REMARK    8  A    between atoms: C_13  and  C_14 
REMARK    9  A    between atoms: C_18  and  N_19 
REMARK   10  A    between atoms: C_23  and  C_24 
ROOT
ATOM      1  N   UNL d   1      27.904 -16.431   0.167  0.00  0.00    -0.341 N 
ATOM      2  C   UNL d   1      27.347 -15.378   0.838  0.00  0.00     0.316 C 
ATOM      3  O   UNL d   1      26.224 -14.950   0.601  0.00  0.00    -0.247 OA
ATOM      4  N   UNL d   1      28.172 -14.837   1.782  0.00  0.00    -0.339 N 
ATOM      5  H   UNL d   1      28.778 -16.834   0.473  0.00  0.00     0.164 HD
ATOM      6  H   UNL d   1      29.106 -15.198   1.876  0.00  0.00     0.164 HD
ENDROOT
BRANCH   1   7
ATOM      7  C   UNL d   1      27.147 -17.108  -0.873  0.00  0.00     0.149 C 
BRANCH   7   8
ATOM      8  C   UNL d   1      26.256 -16.150  -1.675  0.00  0.00     0.105 C 
BRANCH   8   9
ATOM      9  C   UNL d   1      24.833 -16.724  -1.869  0.00  0.00     0.031 C 
BRANCH   9  10
ATOM     10  C   UNL d   1      24.086 -17.047  -0.554  0.00  0.00    -0.021 C 
ATOM     11  C   UNL d   1      22.660 -16.504  -0.533  0.00  0.00     0.009 C 
ATOM     12  C   UNL d   1      24.002 -18.559  -0.343  0.00  0.00     0.009 C 
ENDBRANCH   9  10
ENDBRANCH   8   9
BRANCH   8  13
ATOM     13  N   UNL d   1      26.923 -15.832  -2.934  0.00  0.00    -0.331 N 
ATOM     14  C   UNL d   1      26.266 -15.392  -4.045  0.00  0.00     0.360 C 
ATOM     15  O   UNL d   1      26.700 -15.574  -5.179  0.00  0.00    -0.239 OA
ATOM     16  H   UNL d   1      27.851 -16.202  -3.104  0.00  0.00     0.165 HD
BRANCH  14  17
ATOM     17  O   UNL d   1      25.113 -14.752  -3.739  0.00  0.00    -0.304 OA
BRANCH  17  18
ATOM     18  C   UNL d   1      25.152 -13.332  -3.901  0.00  0.00     0.176 C 
ATOM     19  C   UNL d   1      25.970 -12.766  -2.755  0.00  0.00     0.034 C 
ENDBRANCH  17  18
ENDBRANCH  14  17
ENDBRANCH   8  13
ENDBRANCH   7   8
ENDBRANCH   1   7
BRANCH   4  20
ATOM     20  C   UNL d   1      27.743 -13.689   2.557  0.00  0.00     0.162 C 
BRANCH  20  21
ATOM     21  C   UNL d   1      27.473 -12.432   1.755  0.00  0.00    -0.038 A 
ATOM     22  C   UNL d   1      28.016 -12.233   0.476  0.00  0.00     0.009 A 
ATOM     23  C   UNL d   1      27.929 -10.993  -0.161  0.00  0.00     0.003 A 
ATOM     24  C   UNL d   1      27.238  -9.942   0.434  0.00  0.00     0.036 A 
ATOM     25  C   UNL d   1      26.675 -10.125   1.701  0.00  0.00     0.103 A 
ATOM     26  C   UNL d   1      26.790 -11.360   2.363  0.00  0.00     0.045 A 
BRANCH  25  27
ATOM     27  N   UNL d   1      26.021  -8.991   2.369  0.00  0.00    -0.116 N 
ATOM     28  O   UNL d   1      25.155  -8.369   1.735  0.00  0.00    -0.532 OA
ATOM     29  O   UNL d   1      26.380  -8.713   3.522  0.00  0.00    -0.532 OA
ENDBRANCH  25  27
ENDBRANCH  20  21
ENDBRANCH   4  20
TORSDOF 10
ENDMDL
MODEL 2
REMARK VINA RESULT:    -7.311      1.224      1.745
REMARK INTER + INTRA:         -11.638
REMARK INTER:                 -10.294
REMARK INTRA:                  -1.344
REMARK CONF_INDEPENDENT:        2.983
REMARK UNBOUND:                -1.344
REMARK  10 active torsions:
REMARK  status: ('A' for Active; 'I' for Inactive)
REMARK    1  A    between atoms: C_2  and  O_3 
REMARK    2  A    between atoms: O_3  and  C_4 
REMARK       I    between atoms: C_4  and  N_6 
REMARK    3  A    between atoms: C_7  and  N_6 
REMARK    4  A    between atoms: C_7  and  C_23 
REMARK    5  A    between atoms: C_7  and  C_8 
REMARK    6  A    between atoms: C_8  and  N_9 
REMARK       I    between atoms: N_9  and  C_10 
REMARK       I    between atoms: C_10  and  N_12 
REMARK    7  A    between atoms: N_12  and  C_13 
REMARK    8  A    between atoms: C_13  and  C_14 
REMARK    9  A    between atoms: C_18  and  N_19 
REMARK   10  A    between atoms: C_23  and  C_24 
ROOT
ATOM      1  N   UNL d   1      27.692 -15.051  -0.752  0.00  0.00    -0.341 N 
ATOM      2  C   UNL d   1      27.412 -13.728  -0.550  0.00  0.00     0.316 C 
ATOM      3  O   UNL d   1      26.280 -13.304  -0.358  0.00  0.00    -0.247 OA
ATOM      4  N   UNL d   1      28.516 -12.924  -0.604  0.00  0.00    -0.339 N 
ATOM      5  H   UNL d   1      28.647 -15.378  -0.781  0.00  0.00     0.164 HD
ATOM      6  H   UNL d   1      29.405 -13.334  -0.831  0.00  0.00     0.164 HD
ENDROOT
BRANCH   1   7
ATOM      7  C   UNL d   1      26.618 -16.030  -0.728  0.00  0.00     0.149 C 
BRANCH   7   8
ATOM      8  C   UNL d   1      25.658 -15.882  -1.917  0.00  0.00     0.105 C 
BRANCH   8   9
ATOM      9  C   UNL d   1      24.644 -17.050  -1.977  0.00  0.00     0.031 C 
BRANCH   9  10
ATOM     10  C   UNL d   1      23.868 -17.295  -0.662  0.00  0.00    -0.021 C 
ATOM     11  C   UNL d   1      22.503 -17.938  -0.890  0.00  0.00     0.009 C 
ATOM     12  C   UNL d   1      24.660 -18.219   0.264  0.00  0.00     0.009 C 
ENDBRANCH   9  10
ENDBRANCH   8   9
BRANCH   8  13
ATOM     13  N   UNL d   1      26.444 -15.742  -3.139  0.00  0.00    -0.331 N 
ATOM     14  C   UNL d   1      25.935 -15.266  -4.312  0.00  0.00     0.360 C 
ATOM     15  O   UNL d   1      26.404 -15.575  -5.403  0.00  0.00    -0.239 OA
ATOM     16  H   UNL d   1      27.310 -16.259  -3.227  0.00  0.00     0.165 HD
BRANCH  14  17
ATOM     17  O   UNL d   1      24.881 -14.439  -4.116  0.00  0.00    -0.304 OA
BRANCH  17  18
ATOM     18  C   UNL d   1      25.155 -13.053  -4.333  0.00  0.00     0.176 C 
ATOM     19  C   UNL d   1      26.465 -12.734  -3.638  0.00  0.00     0.034 C 
ENDBRANCH  17  18
ENDBRANCH  14  17
ENDBRANCH   8  13
ENDBRANCH   7   8
ENDBRANCH   1   7
BRANCH   4  20
ATOM     20  C   UNL d   1      28.383 -11.489  -0.445  0.00  0.00     0.162 C 
BRANCH  20  21
ATOM     21  C   UNL d   1      28.050 -11.020   0.957  0.00  0.00    -0.038 A 
ATOM     22  C   UNL d   1      28.149 -11.870   2.069  0.00  0.00     0.009 A 
ATOM     23  C   UNL d   1      27.647 -11.491   3.317  0.00  0.00     0.003 A 
ATOM     24  C   UNL d   1      27.095 -10.226   3.498  0.00  0.00     0.036 A 
ATOM     25  C   UNL d   1      27.004  -9.358   2.406  0.00  0.00     0.103 A 
ATOM     26  C   UNL d   1      27.475  -9.747   1.140  0.00  0.00     0.045 A 
BRANCH  25  27
ATOM     27  N   UNL d   1      26.344  -8.055   2.575  0.00  0.00    -0.116 N 
ATOM     28  O   UNL d   1      25.523  -7.707   1.713  0.00  0.00    -0.532 OA
ATOM     29  O   UNL d   1      26.655  -7.374   3.563  0.00  0.00    -0.532 OA
ENDBRANCH  25  27
ENDBRANCH  20  21
ENDBRANCH   4  20
TORSDOF 10
ENDMDL
MODEL 3
REMARK VINA RESULT:    -7.285      1.036      1.214
REMARK INTER + INTRA:         -11.757
REMARK INTER:                 -10.268
REMARK INTRA:                  -1.489
REMARK CONF_INDEPENDENT:        2.983
REMARK UNBOUND:                -1.489
REMARK  10 active torsions:
REMARK  status: ('A' for Active; 'I' for Inactive)
REMARK    1  A    between atoms: C_2  and  O_3 
REMARK    2  A    between atoms: O_3  and  C_4 
REMARK       I    between atoms: C_4  and  N_6 
REMARK    3  A    between atoms: C_7  and  N_6 
REMARK    4  A    between atoms: C_7  and  C_23 
REMARK    5  A    between atoms: C_7  and  C_8 
REMARK    6  A    between atoms: C_8  and  N_9 
REMARK       I    between atoms: N_9  and  C_10 
REMARK       I    between atoms: C_10  and  N_12 
REMARK    7  A    between atoms: N_12  and  C_13 
REMARK    8  A    between atoms: C_13  and  C_14 
REMARK    9  A    between atoms: C_18  and  N_19 
REMARK   10  A    between atoms: C_23  and  C_24 
ROOT
ATOM      1  N   UNL d   1      28.019 -16.126   0.482  0.00  0.00    -0.341 N 
ATOM      2  C   UNL d   1      27.431 -15.016   1.023  0.00  0.00     0.316 C 
ATOM      3  O   UNL d   1      26.564 -14.370   0.450  0.00  0.00    -0.247 OA
ATOM      4  N   UNL d   1      27.921 -14.688   2.256  0.00  0.00    -0.339 N 
ATOM      5  H   UNL d   1      28.637 -16.704   1.034  0.00  0.00     0.164 HD
ATOM      6  H   UNL d   1      28.680 -15.226   2.636  0.00  0.00     0.164 HD
ENDROOT
BRANCH   1   7
ATOM      7  C   UNL d   1      27.605 -16.598  -0.830  0.00  0.00     0.149 C 
BRANCH   7   8
ATOM      8  C   UNL d   1      26.082 -16.560  -1.018  0.00  0.00     0.105 C 
BRANCH   8   9
ATOM      9  C   UNL d   1      25.418 -17.870  -0.532  0.00  0.00     0.031 C 
BRANCH   9  10
ATOM     10  C   UNL d   1      23.940 -17.720  -0.100  0.00  0.00    -0.021 C 
ATOM     11  C   UNL d   1      23.283 -16.464  -0.664  0.00  0.00     0.009 C 
ATOM     12  C   UNL d   1      23.118 -18.918  -0.575  0.00  0.00     0.009 C 
ENDBRANCH   9  10
ENDBRANCH   8   9
BRANCH   8  13
ATOM     13  N   UNL d   1      25.789 -16.252  -2.414  0.00  0.00    -0.331 N 
ATOM     14  C   UNL d   1      25.461 -15.005  -2.857  0.00  0.00     0.360 C 
ATOM     15  O   UNL d   1      24.780 -14.825  -3.863  0.00  0.00    -0.239 OA
ATOM     16  H   UNL d   1      25.543 -17.008  -3.041  0.00  0.00     0.165 HD
BRANCH  14  17
ATOM     17  O   UNL d   1      25.968 -14.030  -2.067  0.00  0.00    -0.304 OA
BRANCH  17  18
ATOM     18  C   UNL d   1      26.970 -13.216  -2.683  0.00  0.00     0.176 C 
ATOM     19  C   UNL d   1      28.261 -13.426  -1.913  0.00  0.00     0.034 C 
ENDBRANCH  17  18
ENDBRANCH  14  17
ENDBRANCH   8  13
ENDBRANCH   7   8
ENDBRANCH   1   7
BRANCH   4  20
ATOM     20  C   UNL d   1      27.427 -13.515   2.949  0.00  0.00     0.162 C 
BRANCH  20  21
ATOM     21  C   UNL d   1      27.573 -12.208   2.196  0.00  0.00    -0.038 A 
ATOM     22  C   UNL d   1      28.586 -12.005   1.246  0.00  0.00     0.009 A 
ATOM     23  C   UNL d   1      28.834 -10.738   0.712  0.00  0.00     0.003 A 
ATOM     24  C   UNL d   1      28.032  -9.656   1.065  0.00  0.00     0.036 A 
ATOM     25  C   UNL d   1      27.006  -9.842   1.997  0.00  0.00     0.103 A 
ATOM     26  C   UNL d   1      26.774 -11.107   2.564  0.00  0.00     0.045 A 
BRANCH  25  27
ATOM     27  N   UNL d   1      26.214  -8.684   2.435  0.00  0.00    -0.116 N 
ATOM     28  O   UNL d   1      25.155  -8.448   1.833  0.00  0.00    -0.532 OA
ATOM     29  O   UNL d   1      26.655  -8.003   3.371  0.00  0.00    -0.532 OA
ENDBRANCH  25  27
ENDBRANCH  20  21
ENDBRANCH   4  20
TORSDOF 10
ENDMDL
MODEL 4
REMARK VINA RESULT:    -7.020      1.473      1.921
REMARK INTER + INTRA:         -11.336
REMARK INTER:                 -10.003
REMARK INTRA:                  -1.334
REMARK CONF_INDEPENDENT:        2.983
REMARK UNBOUND:                -1.334
REMARK  10 active torsions:
REMARK  status: ('A' for Active; 'I' for Inactive)
REMARK    1  A    between atoms: C_2  and  O_3 
REMARK    2  A    between atoms: O_3  and  C_4 
REMARK       I    between atoms: C_4  and  N_6 
REMARK    3  A    between atoms: C_7  and  N_6 
REMARK    4  A    between atoms: C_7  and  C_23 
REMARK    5  A    between atoms: C_7  and  C_8 
REMARK    6  A    between atoms: C_8  and  N_9 
REMARK       I    between atoms: N_9  and  C_10 
REMARK       I    between atoms: C_10  and  N_12 
REMARK    7  A    between atoms: N_12  and  C_13 
REMARK    8  A    between atoms: C_13  and  C_14 
REMARK    9  A    between atoms: C_18  and  N_19 
REMARK   10  A    between atoms: C_23  and  C_24 
ROOT
ATOM      1  N   UNL d   1      28.624 -15.116   0.188  0.00  0.00    -0.341 N 
ATOM      2  C   UNL d   1      27.807 -14.297   0.918  0.00  0.00     0.316 C 
ATOM      3  O   UNL d   1      27.087 -13.446   0.412  0.00  0.00    -0.247 OA
ATOM      4  N   UNL d   1      27.889 -14.508   2.265  0.00  0.00    -0.339 N 
ATOM      5  H   UNL d   1      29.107 -15.887   0.626  0.00  0.00     0.164 HD
ATOM      6  H   UNL d   1      28.552 -15.179   2.612  0.00  0.00     0.164 HD
ENDROOT
BRANCH   1   7
ATOM      7  C   UNL d   1      28.650 -15.006  -1.262  0.00  0.00     0.149 C 
BRANCH   7   8
ATOM      8  C   UNL d   1      27.294 -15.329  -1.904  0.00  0.00     0.105 C 
BRANCH   8   9
ATOM      9  C   UNL d   1      26.798 -16.740  -1.505  0.00  0.00     0.031 C 
BRANCH   9  10
ATOM     10  C   UNL d   1      25.645 -16.748  -0.475  0.00  0.00    -0.021 C 
ATOM     11  C   UNL d   1      24.270 -16.871  -1.125  0.00  0.00     0.009 C 
ATOM     12  C   UNL d   1      25.799 -17.921   0.494  0.00  0.00     0.009 C 
ENDBRANCH   9  10
ENDBRANCH   8   9
BRANCH   8  13
ATOM     13  N   UNL d   1      27.403 -15.146  -3.348  0.00  0.00    -0.331 N 
ATOM     14  C   UNL d   1      26.348 -15.259  -4.203  0.00  0.00     0.360 C 
ATOM     15  O   UNL d   1      26.490 -15.574  -5.382  0.00  0.00    -0.239 OA
ATOM     16  H   UNL d   1      28.316 -15.212  -3.782  0.00  0.00     0.165 HD
BRANCH  14  17
ATOM     17  O   UNL d   1      25.167 -14.989  -3.600  0.00  0.00    -0.304 OA
BRANCH  17  18
ATOM     18  C   UNL d   1      24.621 -13.700  -3.894  0.00  0.00     0.176 C 
ATOM     19  C   UNL d   1      25.740 -12.855  -4.475  0.00  0.00     0.034 C 
ENDBRANCH  17  18
ENDBRANCH  14  17
ENDBRANCH   8  13
ENDBRANCH   7   8
ENDBRANCH   1   7
BRANCH   4  20
ATOM     20  C   UNL d   1      27.112 -13.696   3.181  0.00  0.00     0.162 C 
BRANCH  20  21
ATOM     21  C   UNL d   1      27.577 -12.261   3.327  0.00  0.00    -0.038 A 
ATOM     22  C   UNL d   1      28.730 -11.922   4.052  0.00  0.00     0.009 A 
ATOM     23  C   UNL d   1      29.032 -10.591   4.350  0.00  0.00     0.003 A 
ATOM     24  C   UNL d   1      28.225  -9.562   3.873  0.00  0.00     0.036 A 
ATOM     25  C   UNL d   1      27.081  -9.879   3.135  0.00  0.00     0.103 A 
ATOM     26  C   UNL d   1      26.753 -11.218   2.861  0.00  0.00     0.045 A 
BRANCH  25  27
ATOM     27  N   UNL d   1      26.181  -8.799   2.704  0.00  0.00    -0.116 N 
ATOM     28  O   UNL d   1      26.497  -7.635   2.992  0.00  0.00    -0.532 OA
ATOM     29  O   UNL d   1      25.152  -9.115   2.088  0.00  0.00    -0.532 OA
ENDBRANCH  25  27
ENDBRANCH  20  21
ENDBRANCH   4  20
TORSDOF 10
ENDMDL
MODEL 5
REMARK VINA RESULT:    -7.004      1.442      1.964
REMARK INTER + INTRA:         -11.411
REMARK INTER:                  -9.987
REMARK INTRA:                  -1.424
REMARK CONF_INDEPENDENT:        2.983
REMARK UNBOUND:                -1.424
REMARK  10 active torsions:
REMARK  status: ('A' for Active; 'I' for Inactive)
REMARK    1  A    between atoms: C_2  and  O_3 
REMARK    2  A    between atoms: O_3  and  C_4 
REMARK       I    between atoms: C_4  and  N_6 
REMARK    3  A    between atoms: C_7  and  N_6 
REMARK    4  A    between atoms: C_7  and  C_23 
REMARK    5  A    between atoms: C_7  and  C_8 
REMARK    6  A    between atoms: C_8  and  N_9 
REMARK       I    between atoms: N_9  and  C_10 
REMARK       I    between atoms: C_10  and  N_12 
REMARK    7  A    between atoms: N_12  and  C_13 
REMARK    8  A    between atoms: C_13  and  C_14 
REMARK    9  A    between atoms: C_18  and  N_19 
REMARK   10  A    between atoms: C_23  and  C_24 
ROOT
ATOM      1  N   UNL d   1      27.481 -14.698  -0.990  0.00  0.00    -0.341 N 
ATOM      2  C   UNL d   1      27.566 -13.508  -0.323  0.00  0.00     0.316 C 
ATOM      3  O   UNL d   1      26.739 -13.140   0.502  0.00  0.00    -0.247 OA
ATOM      4  N   UNL d   1      28.652 -12.761  -0.682  0.00  0.00    -0.339 N 
ATOM      5  H   UNL d   1      28.243 -15.023  -1.567  0.00  0.00     0.164 HD
ATOM      6  H   UNL d   1      29.252 -13.096  -1.414  0.00  0.00     0.164 HD
ENDROOT
BRANCH   1   7
ATOM      7  C   UNL d   1      26.374 -15.602  -0.719  0.00  0.00     0.149 C 
BRANCH   7   8
ATOM      8  C   UNL d   1      25.502 -15.856  -1.956  0.00  0.00     0.105 C 
BRANCH   8   9
ATOM      9  C   UNL d   1      24.771 -17.217  -1.865  0.00  0.00     0.031 C 
BRANCH   9  10
ATOM     10  C   UNL d   1      23.890 -17.390  -0.606  0.00  0.00    -0.021 C 
ATOM     11  C   UNL d   1      22.724 -16.408  -0.557  0.00  0.00     0.009 C 
ATOM     12  C   UNL d   1      23.301 -18.801  -0.553  0.00  0.00     0.009 C 
ENDBRANCH   9  10
ENDBRANCH   8   9
BRANCH   8  13
ATOM     13  N   UNL d   1      26.332 -15.729  -3.149  0.00  0.00    -0.331 N 
ATOM     14  C   UNL d   1      25.870 -15.257  -4.342  0.00  0.00     0.360 C 
ATOM     15  O   UNL d   1      26.376 -15.576  -5.414  0.00  0.00    -0.239 OA
ATOM     16  H   UNL d   1      27.197 -16.255  -3.203  0.00  0.00     0.165 HD
BRANCH  14  17
ATOM     17  O   UNL d   1      24.817 -14.420  -4.189  0.00  0.00    -0.304 OA
BRANCH  17  18
ATOM     18  C   UNL d   1      25.156 -13.096  -3.770  0.00  0.00     0.176 C 
ATOM     19  C   UNL d   1      26.235 -12.585  -4.706  0.00  0.00     0.034 C 
ENDBRANCH  17  18
ENDBRANCH  14  17
ENDBRANCH   8  13
ENDBRANCH   7   8
ENDBRANCH   1   7
BRANCH   4  20
ATOM     20  C   UNL d   1      28.867 -11.454  -0.091  0.00  0.00     0.162 C 
BRANCH  20  21
ATOM     21  C   UNL d   1      27.764 -10.444  -0.335  0.00  0.00    -0.038 A 
ATOM     22  C   UNL d   1      27.395 -10.040  -1.627  0.00  0.00     0.009 A 
ATOM     23  C   UNL d   1      26.526  -8.966  -1.828  0.00  0.00     0.003 A 
ATOM     24  C   UNL d   1      25.950  -8.312  -0.742  0.00  0.00     0.036 A 
ATOM     25  C   UNL d   1      26.292  -8.711   0.554  0.00  0.00     0.103 A 
ATOM     26  C   UNL d   1      27.193  -9.769   0.763  0.00  0.00     0.045 A 
BRANCH  25  27
ATOM     27  N   UNL d   1      25.752  -7.967   1.701  0.00  0.00    -0.116 N 
ATOM     28  O   UNL d   1      25.914  -8.451   2.831  0.00  0.00    -0.532 OA
ATOM     29  O   UNL d   1      25.155  -6.905   1.471  0.00  0.00    -0.532 OA
ENDBRANCH  25  27
ENDBRANCH  20  21
ENDBRANCH   4  20
TORSDOF 10
ENDMDL
MODEL 6
REMARK VINA RESULT:    -6.804      5.466      8.354
REMARK INTER + INTRA:         -11.551
REMARK INTER:                  -9.787
REMARK INTRA:                  -1.764
REMARK CONF_INDEPENDENT:        2.983
REMARK UNBOUND:                -1.764
REMARK  10 active torsions:
REMARK  status: ('A' for Active; 'I' for Inactive)
REMARK    1  A    between atoms: C_2  and  O_3 
REMARK    2  A    between atoms: O_3  and  C_4 
REMARK       I    between atoms: C_4  and  N_6 
REMARK    3  A    between atoms: C_7  and  N_6 
REMARK    4  A    between atoms: C_7  and  C_23 
REMARK    5  A    between atoms: C_7  and  C_8 
REMARK    6  A    between atoms: C_8  and  N_9 
REMARK       I    between atoms: N_9  and  C_10 
REMARK       I    between atoms: C_10  and  N_12 
REMARK    7  A    between atoms: N_12  and  C_13 
REMARK    8  A    between atoms: C_13  and  C_14 
REMARK    9  A    between atoms: C_18  and  N_19 
REMARK   10  A    between atoms: C_23  and  C_24 
ROOT
ATOM      1  N   UNL d   1      31.032 -20.114  -0.294  0.00  0.00    -0.341 N 
ATOM      2  C   UNL d   1      30.817 -19.105  -1.191  0.00  0.00     0.316 C 
ATOM      3  O   UNL d   1      31.201 -19.147  -2.352  0.00  0.00    -0.247 OA
ATOM      4  N   UNL d   1      30.152 -18.037  -0.658  0.00  0.00    -0.339 N 
ATOM      5  H   UNL d   1      30.593 -20.099   0.616  0.00  0.00     0.164 HD
ATOM      6  H   UNL d   1      29.926 -18.044   0.321  0.00  0.00     0.164 HD
ENDROOT
BRANCH   1   7
ATOM      7  C   UNL d   1      31.733 -21.317  -0.713  0.00  0.00     0.149 C 
BRANCH   7   8
ATOM      8  C   UNL d   1      30.935 -22.597  -0.427  0.00  0.00     0.105 C 
BRANCH   8   9
ATOM      9  C   UNL d   1      30.549 -23.330  -1.733  0.00  0.00     0.031 C 
BRANCH   9  10
ATOM     10  C   UNL d   1      29.373 -24.324  -1.589  0.00  0.00    -0.021 C 
ATOM     11  C   UNL d   1      29.090 -25.099  -2.873  0.00  0.00     0.009 C 
ATOM     12  C   UNL d   1      29.668 -25.349  -0.493  0.00  0.00     0.009 C 
ENDBRANCH   9  10
ENDBRANCH   8   9
BRANCH   8  13
ATOM     13  N   UNL d   1      29.783 -22.255   0.401  0.00  0.00    -0.331 N 
ATOM     14  C   UNL d   1      29.860 -22.025   1.743  0.00  0.00     0.360 C 
ATOM     15  O   UNL d   1      28.908 -22.207   2.496  0.00  0.00    -0.239 OA
ATOM     16  H   UNL d   1      28.853 -22.460   0.055  0.00  0.00     0.165 HD
BRANCH  14  17
ATOM     17  O   UNL d   1      31.085 -21.586   2.118  0.00  0.00    -0.304 OA
BRANCH  17  18
ATOM     18  C   UNL d   1      31.236 -21.350   3.521  0.00  0.00     0.176 C 
ATOM     19  C   UNL d   1      32.607 -20.734   3.732  0.00  0.00     0.034 C 
ENDBRANCH  17  18
ENDBRANCH  14  17
ENDBRANCH   8  13
ENDBRANCH   7   8
ENDBRANCH   1   7
BRANCH   4  20
ATOM     20  C   UNL d   1      29.878 -16.868  -1.470  0.00  0.00     0.162 C 
BRANCH  20  21
ATOM     21  C   UNL d   1      28.415 -16.489  -1.587  0.00  0.00    -0.038 A 
ATOM     22  C   UNL d   1      27.481 -16.808  -0.589  0.00  0.00     0.009 A 
ATOM     23  C   UNL d   1      26.111 -16.637  -0.800  0.00  0.00     0.003 A 
ATOM     24  C   UNL d   1      25.645 -16.080  -1.987  0.00  0.00     0.036 A 
ATOM     25  C   UNL d   1      26.561 -15.739  -2.987  0.00  0.00     0.103 A 
ATOM     26  C   UNL d   1      27.939 -15.941  -2.795  0.00  0.00     0.045 A 
BRANCH  25  27
ATOM     27  N   UNL d   1      26.066 -15.230  -4.274  0.00  0.00    -0.116 N 
ATOM     28  O   UNL d   1      25.060 -14.504  -4.260  0.00  0.00    -0.532 OA
ATOM     29  O   UNL d   1      26.673 -15.567  -5.301  0.00  0.00    -0.532 OA
ENDBRANCH  25  27
ENDBRANCH  20  21
ENDBRANCH   4  20
TORSDOF 10
ENDMDL
MODEL 7
REMARK VINA RESULT:    -6.543      3.991      6.382
REMARK INTER + INTRA:         -11.410
REMARK INTER:                  -9.526
REMARK INTRA:                  -1.884
REMARK CONF_INDEPENDENT:        2.983
REMARK UNBOUND:                -1.884
REMARK  10 active torsions:
REMARK  status: ('A' for Active; 'I' for Inactive)
REMARK    1  A    between atoms: C_2  and  O_3 
REMARK    2  A    between atoms: O_3  and  C_4 
REMARK       I    between atoms: C_4  and  N_6 
REMARK    3  A    between atoms: C_7  and  N_6 
REMARK    4  A    between atoms: C_7  and  C_23 
REMARK    5  A    between atoms: C_7  and  C_8 
REMARK    6  A    between atoms: C_8  and  N_9 
REMARK       I    between atoms: N_9  and  C_10 
REMARK       I    between atoms: C_10  and  N_12 
REMARK    7  A    between atoms: N_12  and  C_13 
REMARK    8  A    between atoms: C_13  and  C_14 
REMARK    9  A    between atoms: C_18  and  N_19 
REMARK   10  A    between atoms: C_23  and  C_24 
ROOT
ATOM      1  N   UNL d   1      27.482 -16.913  -0.093  0.00  0.00    -0.341 N 
ATOM      2  C   UNL d   1      28.540 -16.674  -0.926  0.00  0.00     0.316 C 
ATOM      3  O   UNL d   1      28.563 -15.755  -1.734  0.00  0.00    -0.247 OA
ATOM      4  N   UNL d   1      29.558 -17.574  -0.783  0.00  0.00    -0.339 N 
ATOM      5  H   UNL d   1      27.550 -17.601   0.643  0.00  0.00     0.164 HD
ATOM      6  H   UNL d   1      29.441 -18.343  -0.146  0.00  0.00     0.164 HD
ENDROOT
BRANCH   1   7
ATOM      7  C   UNL d   1      26.319 -16.041  -0.133  0.00  0.00     0.149 C 
BRANCH   7   8
ATOM      8  C   UNL d   1      25.398 -16.339  -1.324  0.00  0.00     0.105 C 
BRANCH   8   9
ATOM      9  C   UNL d   1      24.710 -17.718  -1.179  0.00  0.00     0.031 C 
BRANCH   9  10
ATOM     10  C   UNL d   1      23.445 -17.715  -0.290  0.00  0.00    -0.021 C 
ATOM     11  C   UNL d   1      22.561 -16.493  -0.520  0.00  0.00     0.009 C 
ATOM     12  C   UNL d   1      22.592 -18.954  -0.565  0.00  0.00     0.009 C 
ENDBRANCH   9  10
ENDBRANCH   8   9
BRANCH   8  13
ATOM     13  N   UNL d   1      26.168 -16.209  -2.557  0.00  0.00    -0.331 N 
ATOM     14  C   UNL d   1      25.704 -15.574  -3.671  0.00  0.00     0.360 C 
ATOM     15  O   UNL d   1      26.101 -15.855  -4.799  0.00  0.00    -0.239 OA
ATOM     16  H   UNL d   1      26.951 -16.832  -2.714  0.00  0.00     0.165 HD
BRANCH  14  17
ATOM     17  O   UNL d   1      24.781 -14.629  -3.377  0.00  0.00    -0.304 OA
BRANCH  17  18
ATOM     18  C   UNL d   1      24.765 -13.506  -4.262  0.00  0.00     0.176 C 
ATOM     19  C   UNL d   1      25.890 -12.579  -3.840  0.00  0.00     0.034 C 
ENDBRANCH  17  18
ENDBRANCH  14  17
ENDBRANCH   8  13
ENDBRANCH   7   8
ENDBRANCH   1   7
BRANCH   4  20
ATOM     20  C   UNL d   1      30.739 -17.480  -1.619  0.00  0.00     0.162 C 
BRANCH  20  21
ATOM     21  C   UNL d   1      30.522 -17.803  -3.084  0.00  0.00    -0.038 A 
ATOM     22  C   UNL d   1      30.945 -19.016  -3.650  0.00  0.00     0.009 A 
ATOM     23  C   UNL d   1      30.924 -19.215  -5.033  0.00  0.00     0.003 A 
ATOM     24  C   UNL d   1      30.416 -18.232  -5.878  0.00  0.00     0.036 A 
ATOM     25  C   UNL d   1      29.974 -17.023  -5.331  0.00  0.00     0.103 A 
ATOM     26  C   UNL d   1      30.025 -16.804  -3.944  0.00  0.00     0.045 A 
BRANCH  25  27
ATOM     27  N   UNL d   1      29.518 -15.952  -6.229  0.00  0.00    -0.116 N 
ATOM     28  O   UNL d   1      30.285 -15.590  -7.133  0.00  0.00    -0.532 OA
ATOM     29  O   UNL d   1      28.397 -15.464  -6.022  0.00  0.00    -0.532 OA
ENDBRANCH  25  27
ENDBRANCH  20  21
ENDBRANCH   4  20
TORSDOF 10
ENDMDL
MODEL 8
REMARK VINA RESULT:    -6.402      1.450      3.187
REMARK INTER + INTRA:         -11.339
REMARK INTER:                  -9.385
REMARK INTRA:                  -1.954
REMARK CONF_INDEPENDENT:        2.983
REMARK UNBOUND:                -1.954
REMARK  10 active torsions:
REMARK  status: ('A' for Active; 'I' for Inactive)
REMARK    1  A    between atoms: C_2  and  O_3 
REMARK    2  A    between atoms: O_3  and  C_4 
REMARK       I    between atoms: C_4  and  N_6 
REMARK    3  A    between atoms: C_7  and  N_6 
REMARK    4  A    between atoms: C_7  and  C_23 
REMARK    5  A    between atoms: C_7  and  C_8 
REMARK    6  A    between atoms: C_8  and  N_9 
REMARK       I    between atoms: N_9  and  C_10 
REMARK       I    between atoms: C_10  and  N_12 
REMARK    7  A    between atoms: N_12  and  C_13 
REMARK    8  A    between atoms: C_13  and  C_14 
REMARK    9  A    between atoms: C_18  and  N_19 
REMARK   10  A    between atoms: C_23  and  C_24 
ROOT
ATOM      1  N   UNL d   1      28.009 -16.445   0.629  0.00  0.00    -0.341 N 
ATOM      2  C   UNL d   1      27.505 -15.317   1.215  0.00  0.00     0.316 C 
ATOM      3  O   UNL d   1      26.384 -14.884   0.980  0.00  0.00    -0.247 OA
ATOM      4  N   UNL d   1      28.380 -14.712   2.071  0.00  0.00    -0.339 N 
ATOM      5  H   UNL d   1      28.884 -16.841   0.940  0.00  0.00     0.164 HD
ATOM      6  H   UNL d   1      29.307 -15.087   2.164  0.00  0.00     0.164 HD
ENDROOT
BRANCH   1   7
ATOM      7  C   UNL d   1      27.195 -17.198  -0.312  0.00  0.00     0.149 C 
BRANCH   7   8
ATOM      8  C   UNL d   1      26.619 -16.319  -1.430  0.00  0.00     0.105 C 
BRANCH   8   9
ATOM      9  C   UNL d   1      27.603 -15.194  -1.832  0.00  0.00     0.031 C 
BRANCH   9  10
ATOM     10  C   UNL d   1      27.119 -14.306  -3.002  0.00  0.00    -0.021 C 
ATOM     11  C   UNL d   1      26.226 -15.055  -3.986  0.00  0.00     0.009 C 
ATOM     12  C   UNL d   1      26.320 -13.113  -2.476  0.00  0.00     0.009 C 
ENDBRANCH   9  10
ENDBRANCH   8   9
BRANCH   8  13
ATOM     13  N   UNL d   1      25.315 -15.817  -1.008  0.00  0.00    -0.331 N 
ATOM     14  C   UNL d   1      24.152 -16.511  -1.169  0.00  0.00     0.360 C 
ATOM     15  O   UNL d   1      23.063 -15.952  -1.267  0.00  0.00    -0.239 OA
ATOM     16  H   UNL d   1      25.202 -14.824  -0.844  0.00  0.00     0.165 HD
BRANCH  14  17
ATOM     17  O   UNL d   1      24.354 -17.849  -1.208  0.00  0.00    -0.304 OA
BRANCH  17  18
ATOM     18  C   UNL d   1      23.697 -18.587  -0.174  0.00  0.00     0.176 C 
ATOM     19  C   UNL d   1      22.232 -18.696  -0.555  0.00  0.00     0.034 C 
ENDBRANCH  17  18
ENDBRANCH  14  17
ENDBRANCH   8  13
ENDBRANCH   7   8
ENDBRANCH   1   7
BRANCH   4  20
ATOM     20  C   UNL d   1      28.010 -13.483   2.746  0.00  0.00     0.162 C 
BRANCH  20  21
ATOM     21  C   UNL d   1      27.661 -12.324   1.835  0.00  0.00    -0.038 A 
ATOM     22  C   UNL d   1      28.146 -12.237   0.521  0.00  0.00     0.009 A 
ATOM     23  C   UNL d   1      27.987 -11.072  -0.234  0.00  0.00     0.003 A 
ATOM     24  C   UNL d   1      27.280  -9.990   0.283  0.00  0.00     0.036 A 
ATOM     25  C   UNL d   1      26.774 -10.063   1.584  0.00  0.00     0.103 A 
ATOM     26  C   UNL d   1      26.962 -11.219   2.361  0.00  0.00     0.045 A 
BRANCH  25  27
ATOM     27  N   UNL d   1      26.103  -8.890   2.162  0.00  0.00    -0.116 N 
ATOM     28  O   UNL d   1      25.155  -8.398   1.532  0.00  0.00    -0.532 OA
ATOM     29  O   UNL d   1      26.532  -8.452   3.239  0.00  0.00    -0.532 OA
ENDBRANCH  25  27
ENDBRANCH  20  21
ENDBRANCH   4  20
TORSDOF 10
ENDMDL
MODEL 9
REMARK VINA RESULT:    -6.290      4.033      6.574
REMARK INTER + INTRA:         -11.467
REMARK INTER:                  -9.273
REMARK INTRA:                  -2.194
REMARK CONF_INDEPENDENT:        2.983
REMARK UNBOUND:                -2.194
REMARK  10 active torsions:
REMARK  status: ('A' for Active; 'I' for Inactive)
REMARK    1  A    between atoms: C_2  and  O_3 
REMARK    2  A    between atoms: O_3  and  C_4 
REMARK       I    between atoms: C_4  and  N_6 
REMARK    3  A    between atoms: C_7  and  N_6 
REMARK    4  A    between atoms: C_7  and  C_23 
REMARK    5  A    between atoms: C_7  and  C_8 
REMARK    6  A    between atoms: C_8  and  N_9 
REMARK       I    between atoms: N_9  and  C_10 
REMARK       I    between atoms: C_10  and  N_12 
REMARK    7  A    between atoms: N_12  and  C_13 
REMARK    8  A    between atoms: C_13  and  C_14 
REMARK    9  A    between atoms: C_18  and  N_19 
REMARK   10  A    between atoms: C_23  and  C_24 
ROOT
ATOM      1  N   UNL d   1      28.189 -15.970  -0.311  0.00  0.00    -0.341 N 
ATOM      2  C   UNL d   1      27.281 -16.955  -0.587  0.00  0.00     0.316 C 
ATOM      3  O   UNL d   1      26.991 -17.298  -1.726  0.00  0.00    -0.247 OA
ATOM      4  N   UNL d   1      26.716 -17.502   0.529  0.00  0.00    -0.339 N 
ATOM      5  H   UNL d   1      28.495 -15.801   0.637  0.00  0.00     0.164 HD
ATOM      6  H   UNL d   1      26.953 -17.124   1.430  0.00  0.00     0.164 HD
ENDROOT
BRANCH   1   7
ATOM      7  C   UNL d   1      28.872 -15.289  -1.399  0.00  0.00     0.149 C 
BRANCH   7   8
ATOM      8  C   UNL d   1      27.906 -14.532  -2.321  0.00  0.00     0.105 C 
BRANCH   8   9
ATOM      9  C   UNL d   1      26.681 -13.995  -1.542  0.00  0.00     0.031 C 
BRANCH   9  10
ATOM     10  C   UNL d   1      25.583 -13.364  -2.429  0.00  0.00    -0.021 C 
ATOM     11  C   UNL d   1      26.147 -12.453  -3.515  0.00  0.00     0.009 C 
ATOM     12  C   UNL d   1      24.765 -14.452  -3.126  0.00  0.00     0.009 C 
ENDBRANCH   9  10
ENDBRANCH   8   9
BRANCH   8  13
ATOM     13  N   UNL d   1      27.541 -15.402  -3.434  0.00  0.00    -0.331 N 
ATOM     14  C   UNL d   1      27.896 -15.159  -4.728  0.00  0.00     0.360 C 
ATOM     15  O   UNL d   1      27.238 -15.575  -5.678  0.00  0.00    -0.239 OA
ATOM     16  H   UNL d   1      26.776 -16.055  -3.316  0.00  0.00     0.165 HD
BRANCH  14  17
ATOM     17  O   UNL d   1      29.028 -14.423  -4.820  0.00  0.00    -0.304 OA
BRANCH  17  18
ATOM     18  C   UNL d   1      30.230 -15.183  -4.972  0.00  0.00     0.176 C 
ATOM     19  C   UNL d   1      29.835 -16.646  -5.054  0.00  0.00     0.034 C 
ENDBRANCH  17  18
ENDBRANCH  14  17
ENDBRANCH   8  13
ENDBRANCH   7   8
ENDBRANCH   1   7
BRANCH   4  20
ATOM     20  C   UNL d   1      25.706 -18.535   0.406  0.00  0.00     0.162 C 
BRANCH  20  21
ATOM     21  C   UNL d   1      24.378 -18.077  -0.164  0.00  0.00    -0.038 A 
ATOM     22  C   UNL d   1      24.136 -16.738  -0.505  0.00  0.00     0.009 A 
ATOM     23  C   UNL d   1      22.852 -16.296  -0.834  0.00  0.00     0.003 A 
ATOM     24  C   UNL d   1      21.792 -17.195  -0.895  0.00  0.00     0.036 A 
ATOM     25  C   UNL d   1      22.017 -18.538  -0.576  0.00  0.00     0.103 A 
ATOM     26  C   UNL d   1      23.299 -18.982  -0.210  0.00  0.00     0.045 A 
BRANCH  25  27
ATOM     27  N   UNL d   1      20.882 -19.472  -0.557  0.00  0.00    -0.116 N 
ATOM     28  O   UNL d   1      20.304 -19.702  -1.630  0.00  0.00    -0.532 OA
ATOM     29  O   UNL d   1      20.560 -19.967   0.533  0.00  0.00    -0.532 OA
ENDBRANCH  25  27
ENDBRANCH  20  21
ENDBRANCH   4  20
TORSDOF 10
ENDMDL
