MODEL 1
REMARK VINA RESULT:   -10.112      0.000      0.000
REMARK INTER + INTRA:         -14.894
REMARK INTER:                 -12.797
REMARK INTRA:                  -2.098
REMARK CONF_INDEPENDENT:        2.685
REMARK UNBOUND:                -2.098
REMARK  9 active torsions:
REMARK  status: ('A' for Active; 'I' for Inactive)
REMARK    1  A    between atoms: C_2  and  C_3 
REMARK       I    between atoms: C_2  and  N_30 
REMARK    2  A    between atoms: C_3  and  S_4 
REMARK    3  A    between atoms: S_4  and  C_5 
REMARK    4  A    between atoms: N_15  and  N_16 
REMARK       I    between atoms: N_16  and  C_17 
REMARK    5  A    between atoms: C_17  and  C_19 
REMARK    6  A    between atoms: C_19  and  C_20 
REMARK    7  A    between atoms: C_20  and  C_21 
REMARK    8  A    between atoms: N_30  and  C_31 
REMARK    9  A    between atoms: C_31  and  C_32 
ROOT
ATOM      1  C   UNL d   1      26.922 -15.231   0.112  0.00  0.00     0.274 C 
ATOM      2  N   UNL d   1      27.693 -15.435   1.327  0.00  0.00    -0.358 N 
ATOM      3  C   UNL d   1      27.853 -14.396   2.230  0.00  0.00     0.046 A 
ATOM      4  C   UNL d   1      28.240 -14.594   3.556  0.00  0.00     0.030 A 
ATOM      5  C   UNL d   1      28.392 -13.505   4.440  0.00  0.00     0.002 A 
ATOM      6  C   UNL d   1      28.184 -12.196   4.011  0.00  0.00     0.001 A 
ATOM      7  C   UNL d   1      27.770 -11.983   2.712  0.00  0.00     0.019 A 
ATOM      8  C   UNL d   1      27.574 -13.080   1.862  0.00  0.00     0.060 A 
ATOM      9  C   UNL d   1      27.099 -12.822   0.511  0.00  0.00     0.277 C 
ATOM     10  O   UNL d   1      26.651 -11.695   0.281  0.00  0.00    -0.266 OA
ATOM     11  N   UNL d   1      27.217 -13.881  -0.384  0.00  0.00    -0.221 N 
ATOM     12  H   UNL d   1      28.075 -16.353   1.512  0.00  0.00     0.162 HD
ENDROOT
BRANCH  11  13
ATOM     13  N   UNL d   1      27.042 -13.621  -1.776  0.00  0.00    -0.262 N 
ATOM     14  C   UNL d   1      25.880 -14.079  -2.408  0.00  0.00     0.236 C 
ATOM     15  O   UNL d   1      24.990 -14.803  -1.984  0.00  0.00    -0.272 OA
ATOM     16  H   UNL d   1      27.396 -12.710  -2.067  0.00  0.00     0.190 HD
BRANCH  14  17
ATOM     17  C   UNL d   1      25.781 -13.607  -3.806  0.00  0.00     0.109 C 
BRANCH  17  18
ATOM     18  C   UNL d   1      27.055 -12.863  -4.212  0.00  0.00     0.046 C 
BRANCH  18  19
ATOM     19  C   UNL d   1      27.898 -13.634  -5.164  0.00  0.00    -0.050 A 
ATOM     20  C   UNL d   1      28.566 -14.771  -4.938  0.00  0.00    -0.006 A 
ATOM     21  C   UNL d   1      28.739 -15.633  -3.816  0.00  0.00     0.014 A 
ATOM     22  C   UNL d   1      29.195 -15.088  -6.231  0.00  0.00     0.038 A 
ATOM     23  C   UNL d   1      29.469 -16.742  -3.933  0.00  0.00     0.001 A 
ATOM     24  C   UNL d   1      30.097 -17.084  -5.187  0.00  0.00     0.002 A 
ATOM     25  C   UNL d   1      29.997 -16.329  -6.300  0.00  0.00     0.030 A 
ATOM     26  N   UNL d   1      28.935 -14.214  -7.128  0.00  0.00    -0.385 N 
ATOM     27  C   UNL d   1      28.068 -13.152  -6.578  0.00  0.00     0.155 A 
ATOM     28  H   UNL d   1      29.282 -14.263  -8.084  0.00  0.00     0.160 HD
ENDBRANCH  18  19
ENDBRANCH  17  18
ENDBRANCH  14  17
ENDBRANCH  11  13
BRANCH   1  29
ATOM     29  S   UNL d   1      27.353 -16.563  -1.066  0.00  0.00    -0.112 SA
BRANCH  29  30
ATOM     30  C   UNL d   1      25.750 -17.470  -1.287  0.00  0.00     0.180 C 
BRANCH  30  31
ATOM     31  C   UNL d   1      25.251 -18.021   0.064  0.00  0.00     0.227 C 
ATOM     32  O   UNL d   1      25.987 -18.288   1.012  0.00  0.00    -0.273 OA
ATOM     33  N   UNL d   1      23.913 -18.271   0.221  0.00  0.00    -0.356 N 
ATOM     34  H   UNL d   1      23.669 -18.567   1.162  0.00  0.00     0.162 HD
BRANCH  33  35
ATOM     35  C   UNL d   1      22.841 -18.086  -0.738  0.00  0.00     0.161 C 
BRANCH  35  36
ATOM     36  C   UNL d   1      21.557 -18.759  -0.315  0.00  0.00    -0.041 C 
ATOM     37  C   UNL d   1      20.638 -19.202  -1.279  0.00  0.00     0.009 C 
ATOM     38  C   UNL d   1      19.378 -19.671  -0.895  0.00  0.00     0.001 C 
ATOM     39  C   UNL d   1      19.070 -19.819   0.454  0.00  0.00     0.000 C 
ATOM     40  C   UNL d   1      20.032 -19.531   1.418  0.00  0.00     0.001 C 
ATOM     41  C   UNL d   1      21.253 -18.971   1.040  0.00  0.00     0.009 C 
ENDBRANCH  35  36
ENDBRANCH  33  35
ENDBRANCH  30  31
ENDBRANCH  29  30
ENDBRANCH   1  29
TORSDOF 9
ENDMDL
MODEL 2
REMARK VINA RESULT:    -8.973      2.804      7.216
REMARK INTER + INTRA:         -14.816
REMARK INTER:                 -11.658
REMARK INTRA:                  -3.158
REMARK CONF_INDEPENDENT:        2.685
REMARK UNBOUND:                -3.158
REMARK  9 active torsions:
REMARK  status: ('A' for Active; 'I' for Inactive)
REMARK    1  A    between atoms: C_2  and  C_3 
REMARK       I    between atoms: C_2  and  N_30 
REMARK    2  A    between atoms: C_3  and  S_4 
REMARK    3  A    between atoms: S_4  and  C_5 
REMARK    4  A    between atoms: N_15  and  N_16 
REMARK       I    between atoms: N_16  and  C_17 
REMARK    5  A    between atoms: C_17  and  C_19 
REMARK    6  A    between atoms: C_19  and  C_20 
REMARK    7  A    between atoms: C_20  and  C_21 
REMARK    8  A    between atoms: N_30  and  C_31 
REMARK    9  A    between atoms: C_31  and  C_32 
ROOT
ATOM      1  C   UNL d   1      26.190 -15.582  -0.827  0.00  0.00     0.274 C 
ATOM      2  N   UNL d   1      24.794 -15.589  -1.232  0.00  0.00    -0.358 N 
ATOM      3  C   UNL d   1      23.976 -16.652  -0.882  0.00  0.00     0.046 A 
ATOM      4  C   UNL d   1      22.582 -16.576  -0.895  0.00  0.00     0.030 A 
ATOM      5  C   UNL d   1      21.789 -17.685  -0.533  0.00  0.00     0.002 A 
ATOM      6  C   UNL d   1      22.372 -18.898  -0.173  0.00  0.00     0.001 A 
ATOM      7  C   UNL d   1      23.747 -18.983  -0.122  0.00  0.00     0.019 A 
ATOM      8  C   UNL d   1      24.521 -17.856  -0.436  0.00  0.00     0.060 A 
ATOM      9  C   UNL d   1      25.968 -17.970  -0.334  0.00  0.00     0.277 C 
ATOM     10  O   UNL d   1      26.411 -18.952   0.266  0.00  0.00    -0.266 OA
ATOM     11  N   UNL d   1      26.697 -16.955  -0.945  0.00  0.00    -0.221 N 
ATOM     12  H   UNL d   1      24.429 -14.794  -1.738  0.00  0.00     0.162 HD
ENDROOT
BRANCH  11  13
ATOM     13  N   UNL d   1      28.099 -17.140  -1.134  0.00  0.00    -0.262 N 
ATOM     14  C   UNL d   1      28.991 -16.436  -0.315  0.00  0.00     0.236 C 
ATOM     15  O   UNL d   1      28.774 -15.553   0.503  0.00  0.00    -0.272 OA
ATOM     16  H   UNL d   1      28.354 -18.098  -1.374  0.00  0.00     0.190 HD
BRANCH  14  17
ATOM     17  C   UNL d   1      30.395 -16.846  -0.536  0.00  0.00     0.109 C 
BRANCH  17  18
ATOM     18  C   UNL d   1      30.493 -17.798  -1.730  0.00  0.00     0.046 C 
BRANCH  18  19
ATOM     19  C   UNL d   1      30.488 -17.089  -3.037  0.00  0.00    -0.050 A 
ATOM     20  C   UNL d   1      30.616 -17.615  -4.261  0.00  0.00    -0.006 A 
ATOM     21  C   UNL d   1      30.792 -18.933  -4.779  0.00  0.00     0.014 A 
ATOM     22  C   UNL d   1      30.510 -16.462  -5.168  0.00  0.00     0.038 A 
ATOM     23  C   UNL d   1      30.855 -19.128  -6.095  0.00  0.00     0.001 A 
ATOM     24  C   UNL d   1      30.751 -18.019  -7.013  0.00  0.00     0.002 A 
ATOM     25  C   UNL d   1      30.591 -16.739  -6.618  0.00  0.00     0.030 A 
ATOM     26  N   UNL d   1      30.351 -15.358  -4.540  0.00  0.00    -0.385 N 
ATOM     27  C   UNL d   1      30.316 -15.596  -3.082  0.00  0.00     0.155 A 
ATOM     28  H   UNL d   1      30.259 -14.454  -4.997  0.00  0.00     0.160 HD
ENDBRANCH  18  19
ENDBRANCH  17  18
ENDBRANCH  14  17
ENDBRANCH  11  13
BRANCH   1  29
ATOM     29  S   UNL d   1      27.079 -14.372  -1.873  0.00  0.00    -0.112 SA
BRANCH  29  30
ATOM     30  C   UNL d   1      26.429 -14.723  -3.575  0.00  0.00     0.180 C 
BRANCH  30  31
ATOM     31  C   UNL d   1      25.242 -13.795  -3.902  0.00  0.00     0.227 C 
ATOM     32  O   UNL d   1      24.062 -14.131  -3.815  0.00  0.00    -0.273 OA
ATOM     33  N   UNL d   1      25.500 -12.529  -4.358  0.00  0.00    -0.356 N 
ATOM     34  H   UNL d   1      24.661 -11.970  -4.483  0.00  0.00     0.162 HD
BRANCH  33  35
ATOM     35  C   UNL d   1      26.785 -11.897  -4.589  0.00  0.00     0.161 C 
BRANCH  35  36
ATOM     36  C   UNL d   1      27.397 -12.289  -5.913  0.00  0.00    -0.041 C 
ATOM     37  C   UNL d   1      28.124 -13.483  -6.033  0.00  0.00     0.009 C 
ATOM     38  C   UNL d   1      28.832 -13.768  -7.204  0.00  0.00     0.001 C 
ATOM     39  C   UNL d   1      28.723 -12.928  -8.308  0.00  0.00     0.000 C 
ATOM     40  C   UNL d   1      27.880 -11.822  -8.253  0.00  0.00     0.001 C 
ATOM     41  C   UNL d   1      27.250 -11.483  -7.055  0.00  0.00     0.009 C 
ENDBRANCH  35  36
ENDBRANCH  33  35
ENDBRANCH  30  31
ENDBRANCH  29  30
ENDBRANCH   1  29
TORSDOF 9
ENDMDL
MODEL 3
REMARK VINA RESULT:    -8.971      3.718      7.194
REMARK INTER + INTRA:         -14.960
REMARK INTER:                 -11.656
REMARK INTRA:                  -3.304
REMARK CONF_INDEPENDENT:        2.685
REMARK UNBOUND:                -3.304
REMARK  9 active torsions:
REMARK  status: ('A' for Active; 'I' for Inactive)
REMARK    1  A    between atoms: C_2  and  C_3 
REMARK       I    between atoms: C_2  and  N_30 
REMARK    2  A    between atoms: C_3  and  S_4 
REMARK    3  A    between atoms: S_4  and  C_5 
REMARK    4  A    between atoms: N_15  and  N_16 
REMARK       I    between atoms: N_16  and  C_17 
REMARK    5  A    between atoms: C_17  and  C_19 
REMARK    6  A    between atoms: C_19  and  C_20 
REMARK    7  A    between atoms: C_20  and  C_21 
REMARK    8  A    between atoms: N_30  and  C_31 
REMARK    9  A    between atoms: C_31  and  C_32 
ROOT
ATOM      1  C   UNL d   1      30.323 -16.840  -4.864  0.00  0.00     0.274 C 
ATOM      2  N   UNL d   1      30.172 -18.271  -4.652  0.00  0.00    -0.358 N 
ATOM      3  C   UNL d   1      30.728 -19.167  -5.551  0.00  0.00     0.046 A 
ATOM      4  C   UNL d   1      30.956 -20.509  -5.244  0.00  0.00     0.030 A 
ATOM      5  C   UNL d   1      31.524 -21.386  -6.192  0.00  0.00     0.002 A 
ATOM      6  C   UNL d   1      31.853 -20.946  -7.472  0.00  0.00     0.001 A 
ATOM      7  C   UNL d   1      31.666 -19.615  -7.783  0.00  0.00     0.019 A 
ATOM      8  C   UNL d   1      31.148 -18.746  -6.813  0.00  0.00     0.060 A 
ATOM      9  C   UNL d   1      31.001 -17.341  -7.162  0.00  0.00     0.277 C 
ATOM     10  O   UNL d   1      31.576 -16.955  -8.183  0.00  0.00    -0.266 OA
ATOM     11  N   UNL d   1      30.207 -16.586  -6.305  0.00  0.00    -0.221 N 
ATOM     12  H   UNL d   1      29.687 -18.592  -3.826  0.00  0.00     0.162 HD
ENDROOT
BRANCH  11  13
ATOM     13  N   UNL d   1      29.786 -15.290  -6.728  0.00  0.00    -0.262 N 
ATOM     14  C   UNL d   1      30.395 -14.163  -6.163  0.00  0.00     0.236 C 
ATOM     15  O   UNL d   1      31.187 -14.083  -5.234  0.00  0.00    -0.272 OA
ATOM     16  H   UNL d   1      29.559 -15.240  -7.721  0.00  0.00     0.190 HD
BRANCH  14  17
ATOM     17  C   UNL d   1      29.955 -12.907  -6.808  0.00  0.00     0.109 C 
BRANCH  17  18
ATOM     18  C   UNL d   1      28.492 -13.013  -7.245  0.00  0.00     0.046 C 
BRANCH  18  19
ATOM     19  C   UNL d   1      27.540 -12.578  -6.189  0.00  0.00    -0.050 A 
ATOM     20  C   UNL d   1      26.783 -13.345  -5.395  0.00  0.00    -0.006 A 
ATOM     21  C   UNL d   1      26.588 -14.749  -5.238  0.00  0.00     0.014 A 
ATOM     22  C   UNL d   1      26.068 -12.388  -4.536  0.00  0.00     0.038 A 
ATOM     23  C   UNL d   1      25.756 -15.204  -4.301  0.00  0.00     0.001 A 
ATOM     24  C   UNL d   1      25.042 -14.293  -3.440  0.00  0.00     0.002 A 
ATOM     25  C   UNL d   1      25.156 -12.951  -3.518  0.00  0.00     0.030 A 
ATOM     26  N   UNL d   1      26.362 -11.172  -4.807  0.00  0.00    -0.385 N 
ATOM     27  C   UNL d   1      27.347 -11.114  -5.908  0.00  0.00     0.155 A 
ATOM     28  H   UNL d   1      25.968 -10.371  -4.319  0.00  0.00     0.160 HD
ENDBRANCH  18  19
ENDBRANCH  17  18
ENDBRANCH  14  17
ENDBRANCH  11  13
BRANCH   1  29
ATOM     29  S   UNL d   1      29.060 -15.980  -3.856  0.00  0.00    -0.112 SA
BRANCH  29  30
ATOM     30  C   UNL d   1      29.838 -15.908  -2.173  0.00  0.00     0.180 C 
BRANCH  30  31
ATOM     31  C   UNL d   1      29.929 -17.319  -1.559  0.00  0.00     0.227 C 
ATOM     32  O   UNL d   1      30.691 -18.197  -1.962  0.00  0.00    -0.273 OA
ATOM     33  N   UNL d   1      29.091 -17.645  -0.526  0.00  0.00    -0.356 N 
ATOM     34  H   UNL d   1      29.268 -18.570  -0.143  0.00  0.00     0.162 HD
BRANCH  33  35
ATOM     35  C   UNL d   1      28.080 -16.822   0.111  0.00  0.00     0.161 C 
BRANCH  35  36
ATOM     36  C   UNL d   1      26.674 -17.247  -0.243  0.00  0.00    -0.041 C 
ATOM     37  C   UNL d   1      26.030 -16.701  -1.364  0.00  0.00     0.009 C 
ATOM     38  C   UNL d   1      24.676 -16.960  -1.600  0.00  0.00     0.001 C 
ATOM     39  C   UNL d   1      23.988 -17.861  -0.795  0.00  0.00     0.000 C 
ATOM     40  C   UNL d   1      24.659 -18.530   0.225  0.00  0.00     0.001 C 
ATOM     41  C   UNL d   1      25.982 -18.199   0.523  0.00  0.00     0.009 C 
ENDBRANCH  35  36
ENDBRANCH  33  35
ENDBRANCH  30  31
ENDBRANCH  29  30
ENDBRANCH   1  29
TORSDOF 9
ENDMDL
MODEL 4
REMARK VINA RESULT:    -8.862      2.385      8.527
REMARK INTER + INTRA:         -14.870
REMARK INTER:                 -11.546
REMARK INTRA:                  -3.323
REMARK CONF_INDEPENDENT:        2.685
REMARK UNBOUND:                -3.323
REMARK  9 active torsions:
REMARK  status: ('A' for Active; 'I' for Inactive)
REMARK    1  A    between atoms: C_2  and  C_3 
REMARK       I    between atoms: C_2  and  N_30 
REMARK    2  A    between atoms: C_3  and  S_4 
REMARK    3  A    between atoms: S_4  and  C_5 
REMARK    4  A    between atoms: N_15  and  N_16 
REMARK       I    between atoms: N_16  and  C_17 
REMARK    5  A    between atoms: C_17  and  C_19 
REMARK    6  A    between atoms: C_19  and  C_20 
REMARK    7  A    between atoms: C_20  and  C_21 
REMARK    8  A    between atoms: N_30  and  C_31 
REMARK    9  A    between atoms: C_31  and  C_32 
ROOT
ATOM      1  C   UNL d   1      26.966 -15.896  -1.498  0.00  0.00     0.274 C 
ATOM      2  N   UNL d   1      27.813 -15.099  -2.369  0.00  0.00    -0.358 N 
ATOM      3  C   UNL d   1      27.266 -14.067  -3.116  0.00  0.00     0.046 A 
ATOM      4  C   UNL d   1      28.031 -13.040  -3.670  0.00  0.00     0.030 A 
ATOM      5  C   UNL d   1      27.430 -12.010  -4.424  0.00  0.00     0.002 A 
ATOM      6  C   UNL d   1      26.057 -12.000  -4.660  0.00  0.00     0.001 A 
ATOM      7  C   UNL d   1      25.280 -12.988  -4.093  0.00  0.00     0.019 A 
ATOM      8  C   UNL d   1      25.886 -13.975  -3.303  0.00  0.00     0.060 A 
ATOM      9  C   UNL d   1      25.032 -14.980  -2.688  0.00  0.00     0.277 C 
ATOM     10  O   UNL d   1      23.820 -14.755  -2.681  0.00  0.00    -0.266 OA
ATOM     11  N   UNL d   1      25.685 -16.101  -2.186  0.00  0.00    -0.221 N 
ATOM     12  H   UNL d   1      28.806 -15.290  -2.391  0.00  0.00     0.162 HD
ENDROOT
BRANCH  11  13
ATOM     13  N   UNL d   1      24.906 -17.243  -1.831  0.00  0.00    -0.262 N 
ATOM     14  C   UNL d   1      24.846 -17.629  -0.486  0.00  0.00     0.236 C 
ATOM     15  O   UNL d   1      25.470 -17.209   0.478  0.00  0.00    -0.272 OA
ATOM     16  H   UNL d   1      24.047 -17.334  -2.374  0.00  0.00     0.190 HD
BRANCH  14  17
ATOM     17  C   UNL d   1      23.887 -18.734  -0.264  0.00  0.00     0.109 C 
BRANCH  17  18
ATOM     18  C   UNL d   1      22.612 -18.211   0.400  0.00  0.00     0.046 C 
BRANCH  18  19
ATOM     19  C   UNL d   1      21.386 -18.908  -0.072  0.00  0.00    -0.050 A 
ATOM     20  C   UNL d   1      20.464 -19.542   0.661  0.00  0.00    -0.006 A 
ATOM     21  C   UNL d   1      20.281 -19.792   2.054  0.00  0.00     0.014 A 
ATOM     22  C   UNL d   1      19.474 -20.012  -0.321  0.00  0.00     0.038 A 
ATOM     23  C   UNL d   1      19.202 -20.450   2.475  0.00  0.00     0.001 A 
ATOM     24  C   UNL d   1      18.211 -20.923   1.539  0.00  0.00     0.002 A 
ATOM     25  C   UNL d   1      18.300 -20.741   0.205  0.00  0.00     0.030 A 
ATOM     26  N   UNL d   1      19.791 -19.700  -1.521  0.00  0.00    -0.385 N 
ATOM     27  C   UNL d   1      21.063 -18.949  -1.540  0.00  0.00     0.155 A 
ATOM     28  H   UNL d   1      19.229 -19.939  -2.335  0.00  0.00     0.160 HD
ENDBRANCH  18  19
ENDBRANCH  17  18
ENDBRANCH  14  17
ENDBRANCH  11  13
BRANCH   1  29
ATOM     29  S   UNL d   1      27.853 -17.448  -1.107  0.00  0.00    -0.112 SA
BRANCH  29  30
ATOM     30  C   UNL d   1      29.327 -16.863  -0.145  0.00  0.00     0.180 C 
BRANCH  30  31
ATOM     31  C   UNL d   1      30.287 -16.071  -1.056  0.00  0.00     0.227 C 
ATOM     32  O   UNL d   1      30.634 -16.442  -2.176  0.00  0.00    -0.273 OA
ATOM     33  N   UNL d   1      30.826 -14.902  -0.589  0.00  0.00    -0.356 N 
ATOM     34  H   UNL d   1      31.392 -14.418  -1.281  0.00  0.00     0.162 HD
BRANCH  33  35
ATOM     35  C   UNL d   1      30.620 -14.262   0.696  0.00  0.00     0.161 C 
BRANCH  35  36
ATOM     36  C   UNL d   1      29.253 -13.633   0.823  0.00  0.00    -0.041 C 
ATOM     37  C   UNL d   1      28.189 -14.356   1.384  0.00  0.00     0.009 C 
ATOM     38  C   UNL d   1      26.888 -13.845   1.349  0.00  0.00     0.001 C 
ATOM     39  C   UNL d   1      26.655 -12.560   0.870  0.00  0.00     0.000 C 
ATOM     40  C   UNL d   1      27.726 -11.773   0.455  0.00  0.00     0.001 C 
ATOM     41  C   UNL d   1      29.011 -12.317   0.397  0.00  0.00     0.009 C 
ENDBRANCH  35  36
ENDBRANCH  33  35
ENDBRANCH  30  31
ENDBRANCH  29  30
ENDBRANCH   1  29
TORSDOF 9
ENDMDL
MODEL 5
REMARK VINA RESULT:    -8.719      2.420      3.918
REMARK INTER + INTRA:         -14.967
REMARK INTER:                 -11.404
REMARK INTRA:                  -3.564
REMARK CONF_INDEPENDENT:        2.685
REMARK UNBOUND:                -3.564
REMARK  9 active torsions:
REMARK  status: ('A' for Active; 'I' for Inactive)
REMARK    1  A    between atoms: C_2  and  C_3 
REMARK       I    between atoms: C_2  and  N_30 
REMARK    2  A    between atoms: C_3  and  S_4 
REMARK    3  A    between atoms: S_4  and  C_5 
REMARK    4  A    between atoms: N_15  and  N_16 
REMARK       I    between atoms: N_16  and  C_17 
REMARK    5  A    between atoms: C_17  and  C_19 
REMARK    6  A    between atoms: C_19  and  C_20 
REMARK    7  A    between atoms: C_20  and  C_21 
REMARK    8  A    between atoms: N_30  and  C_31 
REMARK    9  A    between atoms: C_31  and  C_32 
ROOT
ATOM      1  C   UNL d   1      28.145 -14.047   2.878  0.00  0.00     0.274 C 
ATOM      2  N   UNL d   1      29.005 -14.448   3.979  0.00  0.00    -0.358 N 
ATOM      3  C   UNL d   1      28.977 -13.745   5.173  0.00  0.00     0.046 A 
ATOM      4  C   UNL d   1      29.468 -14.263   6.373  0.00  0.00     0.030 A 
ATOM      5  C   UNL d   1      29.420 -13.509   7.564  0.00  0.00     0.002 A 
ATOM      6  C   UNL d   1      28.904 -12.215   7.576  0.00  0.00     0.001 A 
ATOM      7  C   UNL d   1      28.384 -11.699   6.407  0.00  0.00     0.019 A 
ATOM      8  C   UNL d   1      28.393 -12.480   5.244  0.00  0.00     0.060 A 
ATOM      9  C   UNL d   1      27.801 -11.919   4.039  0.00  0.00     0.277 C 
ATOM     10  O   UNL d   1      27.103 -10.911   4.175  0.00  0.00    -0.266 OA
ATOM     11  N   UNL d   1      28.105 -12.580   2.853  0.00  0.00    -0.221 N 
ATOM     12  H   UNL d   1      29.592 -15.264   3.867  0.00  0.00     0.162 HD
ENDROOT
BRANCH  11  13
ATOM     13  N   UNL d   1      27.804 -11.936   1.615  0.00  0.00    -0.262 N 
ATOM     14  C   UNL d   1      28.824 -11.252   0.944  0.00  0.00     0.236 C 
ATOM     15  O   UNL d   1      29.964 -10.994   1.303  0.00  0.00    -0.272 OA
ATOM     16  H   UNL d   1      27.140 -12.454   1.039  0.00  0.00     0.190 HD
BRANCH  14  17
ATOM     17  C   UNL d   1      28.391 -10.768  -0.386  0.00  0.00     0.109 C 
BRANCH  17  18
ATOM     18  C   UNL d   1      28.755 -11.784  -1.470  0.00  0.00     0.046 C 
BRANCH  18  19
ATOM     19  C   UNL d   1      27.622 -12.083  -2.386  0.00  0.00    -0.050 A 
ATOM     20  C   UNL d   1      27.406 -13.197  -3.095  0.00  0.00    -0.006 A 
ATOM     21  C   UNL d   1      28.092 -14.437  -3.257  0.00  0.00     0.014 A 
ATOM     22  C   UNL d   1      26.134 -12.948  -3.792  0.00  0.00     0.038 A 
ATOM     23  C   UNL d   1      27.578 -15.385  -4.040  0.00  0.00     0.001 A 
ATOM     24  C   UNL d   1      26.332 -15.174  -4.735  0.00  0.00     0.002 A 
ATOM     25  C   UNL d   1      25.615 -14.034  -4.650  0.00  0.00     0.030 A 
ATOM     26  N   UNL d   1      25.653 -11.791  -3.532  0.00  0.00    -0.385 N 
ATOM     27  C   UNL d   1      26.536 -11.064  -2.595  0.00  0.00     0.155 A 
ATOM     28  H   UNL d   1      24.781 -11.440  -3.921  0.00  0.00     0.160 HD
ENDBRANCH  18  19
ENDBRANCH  17  18
ENDBRANCH  14  17
ENDBRANCH  11  13
BRANCH   1  29
ATOM     29  S   UNL d   1      28.799 -14.798   1.343  0.00  0.00    -0.112 SA
BRANCH  29  30
ATOM     30  C   UNL d   1      27.326 -15.680   0.641  0.00  0.00     0.180 C 
BRANCH  30  31
ATOM     31  C   UNL d   1      26.478 -14.719  -0.215  0.00  0.00     0.227 C 
ATOM     32  O   UNL d   1      26.406 -13.506  -0.020  0.00  0.00    -0.273 OA
ATOM     33  N   UNL d   1      25.721 -15.234  -1.234  0.00  0.00    -0.356 N 
ATOM     34  H   UNL d   1      25.250 -14.521  -1.783  0.00  0.00     0.162 HD
BRANCH  33  35
ATOM     35  C   UNL d   1      25.591 -16.617  -1.652  0.00  0.00     0.161 C 
BRANCH  35  36
ATOM     36  C   UNL d   1      24.377 -17.293  -1.060  0.00  0.00    -0.041 C 
ATOM     37  C   UNL d   1      24.473 -18.592  -0.537  0.00  0.00     0.009 C 
ATOM     38  C   UNL d   1      23.325 -19.285  -0.145  0.00  0.00     0.001 C 
ATOM     39  C   UNL d   1      22.088 -18.648  -0.152  0.00  0.00     0.000 C 
ATOM     40  C   UNL d   1      22.003 -17.308  -0.520  0.00  0.00     0.001 C 
ATOM     41  C   UNL d   1      23.132 -16.645  -1.006  0.00  0.00     0.009 C 
ENDBRANCH  35  36
ENDBRANCH  33  35
ENDBRANCH  30  31
ENDBRANCH  29  30
ENDBRANCH   1  29
TORSDOF 9
ENDMDL
MODEL 6
REMARK VINA RESULT:    -8.703      3.018      6.701
REMARK INTER + INTRA:         -15.219
REMARK INTER:                 -11.388
REMARK INTRA:                  -3.832
REMARK CONF_INDEPENDENT:        2.685
REMARK UNBOUND:                -3.832
REMARK  9 active torsions:
REMARK  status: ('A' for Active; 'I' for Inactive)
REMARK    1  A    between atoms: C_2  and  C_3 
REMARK       I    between atoms: C_2  and  N_30 
REMARK    2  A    between atoms: C_3  and  S_4 
REMARK    3  A    between atoms: S_4  and  C_5 
REMARK    4  A    between atoms: N_15  and  N_16 
REMARK       I    between atoms: N_16  and  C_17 
REMARK    5  A    between atoms: C_17  and  C_19 
REMARK    6  A    between atoms: C_19  and  C_20 
REMARK    7  A    between atoms: C_20  and  C_21 
REMARK    8  A    between atoms: N_30  and  C_31 
REMARK    9  A    between atoms: C_31  and  C_32 
ROOT
ATOM      1  C   UNL d   1      30.065 -16.325  -4.116  0.00  0.00     0.274 C 
ATOM      2  N   UNL d   1      29.924 -17.772  -4.074  0.00  0.00    -0.358 N 
ATOM      3  C   UNL d   1      30.396 -18.545  -5.124  0.00  0.00     0.046 A 
ATOM      4  C   UNL d   1      30.641 -19.914  -5.009  0.00  0.00     0.030 A 
ATOM      5  C   UNL d   1      31.120 -20.662  -6.105  0.00  0.00     0.002 A 
ATOM      6  C   UNL d   1      31.340 -20.062  -7.343  0.00  0.00     0.001 A 
ATOM      7  C   UNL d   1      31.134 -18.704  -7.467  0.00  0.00     0.019 A 
ATOM      8  C   UNL d   1      30.708 -17.966  -6.354  0.00  0.00     0.060 A 
ATOM      9  C   UNL d   1      30.539 -16.529  -6.510  0.00  0.00     0.277 C 
ATOM     10  O   UNL d   1      31.026 -16.015  -7.519  0.00  0.00    -0.266 OA
ATOM     11  N   UNL d   1      29.826 -15.892  -5.499  0.00  0.00    -0.221 N 
ATOM     12  H   UNL d   1      29.511 -18.197  -3.256  0.00  0.00     0.162 HD
ENDROOT
BRANCH  11  13
ATOM     13  N   UNL d   1      29.377 -14.556  -5.717  0.00  0.00    -0.262 N 
ATOM     14  C   UNL d   1      28.006 -14.319  -5.865  0.00  0.00     0.236 C 
ATOM     15  O   UNL d   1      27.079 -15.111  -5.962  0.00  0.00    -0.272 OA
ATOM     16  H   UNL d   1      29.912 -13.858  -5.199  0.00  0.00     0.190 HD
BRANCH  14  17
ATOM     17  C   UNL d   1      27.692 -12.874  -5.937  0.00  0.00     0.109 C 
BRANCH  17  18
ATOM     18  C   UNL d   1      26.284 -12.604  -5.405  0.00  0.00     0.046 C 
BRANCH  18  19
ATOM     19  C   UNL d   1      26.051 -13.194  -4.060  0.00  0.00    -0.050 A 
ATOM     20  C   UNL d   1      26.791 -13.045  -2.955  0.00  0.00    -0.006 A 
ATOM     21  C   UNL d   1      27.985 -12.337  -2.630  0.00  0.00     0.014 A 
ATOM     22  C   UNL d   1      26.078 -13.823  -1.929  0.00  0.00     0.038 A 
ATOM     23  C   UNL d   1      28.462 -12.371  -1.386  0.00  0.00     0.001 A 
ATOM     24  C   UNL d   1      27.786 -13.122  -0.356  0.00  0.00     0.002 A 
ATOM     25  C   UNL d   1      26.656 -13.828  -0.569  0.00  0.00     0.030 A 
ATOM     26  N   UNL d   1      25.027 -14.390  -2.389  0.00  0.00    -0.385 N 
ATOM     27  C   UNL d   1      24.855 -14.073  -3.822  0.00  0.00     0.155 A 
ATOM     28  H   UNL d   1      24.406 -14.970  -1.829  0.00  0.00     0.160 HD
ENDBRANCH  18  19
ENDBRANCH  17  18
ENDBRANCH  14  17
ENDBRANCH  11  13
BRANCH   1  29
ATOM     29  S   UNL d   1      28.899 -15.606  -2.903  0.00  0.00    -0.112 SA
BRANCH  29  30
ATOM     30  C   UNL d   1      29.724 -15.935  -1.275  0.00  0.00     0.180 C 
BRANCH  30  31
ATOM     31  C   UNL d   1      29.609 -17.426  -0.902  0.00  0.00     0.227 C 
ATOM     32  O   UNL d   1      30.401 -18.291  -1.274  0.00  0.00    -0.273 OA
ATOM     33  N   UNL d   1      28.544 -17.837  -0.144  0.00  0.00    -0.356 N 
ATOM     34  H   UNL d   1      28.588 -18.821   0.107  0.00  0.00     0.162 HD
BRANCH  33  35
ATOM     35  C   UNL d   1      27.455 -17.042   0.389  0.00  0.00     0.161 C 
BRANCH  35  36
ATOM     36  C   UNL d   1      26.109 -17.451  -0.163  0.00  0.00    -0.041 C 
ATOM     37  C   UNL d   1      25.742 -17.098  -1.470  0.00  0.00     0.009 C 
ATOM     38  C   UNL d   1      24.440 -17.325  -1.927  0.00  0.00     0.001 C 
ATOM     39  C   UNL d   1      23.532 -18.017  -1.131  0.00  0.00     0.000 C 
ATOM     40  C   UNL d   1      23.934 -18.511   0.106  0.00  0.00     0.001 C 
ATOM     41  C   UNL d   1      25.201 -18.200   0.604  0.00  0.00     0.009 C 
ENDBRANCH  35  36
ENDBRANCH  33  35
ENDBRANCH  30  31
ENDBRANCH  29  30
ENDBRANCH   1  29
TORSDOF 9
ENDMDL
MODEL 7
REMARK VINA RESULT:    -8.561      2.626      7.415
REMARK INTER + INTRA:         -14.899
REMARK INTER:                 -11.246
REMARK INTRA:                  -3.653
REMARK CONF_INDEPENDENT:        2.685
REMARK UNBOUND:                -3.653
REMARK  9 active torsions:
REMARK  status: ('A' for Active; 'I' for Inactive)
REMARK    1  A    between atoms: C_2  and  C_3 
REMARK       I    between atoms: C_2  and  N_30 
REMARK    2  A    between atoms: C_3  and  S_4 
REMARK    3  A    between atoms: S_4  and  C_5 
REMARK    4  A    between atoms: N_15  and  N_16 
REMARK       I    between atoms: N_16  and  C_17 
REMARK    5  A    between atoms: C_17  and  C_19 
REMARK    6  A    between atoms: C_19  and  C_20 
REMARK    7  A    between atoms: C_20  and  C_21 
REMARK    8  A    between atoms: N_30  and  C_31 
REMARK    9  A    between atoms: C_31  and  C_32 
ROOT
ATOM      1  C   UNL d   1      28.150 -14.463  -2.669  0.00  0.00     0.274 C 
ATOM      2  N   UNL d   1      28.798 -15.190  -3.749  0.00  0.00    -0.358 N 
ATOM      3  C   UNL d   1      29.563 -16.312  -3.469  0.00  0.00     0.046 A 
ATOM      4  C   UNL d   1      29.899 -17.262  -4.434  0.00  0.00     0.030 A 
ATOM      5  C   UNL d   1      30.682 -18.389  -4.103  0.00  0.00     0.002 A 
ATOM      6  C   UNL d   1      31.161 -18.576  -2.809  0.00  0.00     0.001 A 
ATOM      7  C   UNL d   1      30.812 -17.665  -1.835  0.00  0.00     0.019 A 
ATOM      8  C   UNL d   1      29.991 -16.578  -2.169  0.00  0.00     0.060 A 
ATOM      9  C   UNL d   1      29.610 -15.658  -1.108  0.00  0.00     0.277 C 
ATOM     10  O   UNL d   1      29.808 -16.028   0.052  0.00  0.00    -0.266 OA
ATOM     11  N   UNL d   1      29.071 -14.445  -1.526  0.00  0.00    -0.221 N 
ATOM     12  H   UNL d   1      28.652 -14.881  -4.700  0.00  0.00     0.162 HD
ENDROOT
BRANCH  11  13
ATOM     13  N   UNL d   1      28.939 -13.392  -0.573  0.00  0.00    -0.262 N 
ATOM     14  C   UNL d   1      27.671 -13.105  -0.054  0.00  0.00     0.236 C 
ATOM     15  O   UNL d   1      26.575 -13.542  -0.374  0.00  0.00    -0.272 OA
ATOM     16  H   UNL d   1      29.727 -13.327   0.073  0.00  0.00     0.190 HD
BRANCH  14  17
ATOM     17  C   UNL d   1      27.725 -12.092   1.024  0.00  0.00     0.109 C 
BRANCH  17  18
ATOM     18  C   UNL d   1      26.795 -12.483   2.174  0.00  0.00     0.046 C 
BRANCH  18  19
ATOM     19  C   UNL d   1      27.463 -13.333   3.194  0.00  0.00    -0.050 A 
ATOM     20  C   UNL d   1      27.844 -12.991   4.431  0.00  0.00    -0.006 A 
ATOM     21  C   UNL d   1      27.780 -11.800   5.212  0.00  0.00     0.014 A 
ATOM     22  C   UNL d   1      28.419 -14.225   4.991  0.00  0.00     0.038 A 
ATOM     23  C   UNL d   1      28.236 -11.799   6.464  0.00  0.00     0.001 A 
ATOM     24  C   UNL d   1      28.804 -12.992   7.045  0.00  0.00     0.002 A 
ATOM     25  C   UNL d   1      28.914 -14.163   6.383  0.00  0.00     0.030 A 
ATOM     26  N   UNL d   1      28.395 -15.197   4.159  0.00  0.00    -0.385 N 
ATOM     27  C   UNL d   1      27.781 -14.770   2.885  0.00  0.00     0.155 A 
ATOM     28  H   UNL d   1      28.748 -16.128   4.366  0.00  0.00     0.160 HD
ENDBRANCH  18  19
ENDBRANCH  17  18
ENDBRANCH  14  17
ENDBRANCH  11  13
BRANCH   1  29
ATOM     29  S   UNL d   1      27.707 -12.800  -3.290  0.00  0.00    -0.112 SA
BRANCH  29  30
ATOM     30  C   UNL d   1      26.341 -13.148  -4.496  0.00  0.00     0.180 C 
BRANCH  30  31
ATOM     31  C   UNL d   1      26.248 -14.659  -4.787  0.00  0.00     0.227 C 
ATOM     32  O   UNL d   1      26.751 -15.202  -5.770  0.00  0.00    -0.273 OA
ATOM     33  N   UNL d   1      25.534 -15.454  -3.931  0.00  0.00    -0.356 N 
ATOM     34  H   UNL d   1      25.584 -16.441  -4.165  0.00  0.00     0.162 HD
BRANCH  33  35
ATOM     35  C   UNL d   1      24.816 -15.070  -2.730  0.00  0.00     0.161 C 
BRANCH  35  36
ATOM     36  C   UNL d   1      24.897 -16.116  -1.643  0.00  0.00    -0.041 C 
ATOM     37  C   UNL d   1      26.110 -16.359  -0.982  0.00  0.00     0.009 C 
ATOM     38  C   UNL d   1      26.234 -17.435  -0.099  0.00  0.00     0.001 C 
ATOM     39  C   UNL d   1      25.119 -18.200   0.229  0.00  0.00     0.000 C 
ATOM     40  C   UNL d   1      23.875 -17.871  -0.301  0.00  0.00     0.001 C 
ATOM     41  C   UNL d   1      23.769 -16.860  -1.258  0.00  0.00     0.009 C 
ENDBRANCH  35  36
ENDBRANCH  33  35
ENDBRANCH  30  31
ENDBRANCH  29  30
ENDBRANCH   1  29
TORSDOF 9
ENDMDL
MODEL 8
REMARK VINA RESULT:    -8.354      2.985      7.230
REMARK INTER + INTRA:         -14.969
REMARK INTER:                 -11.039
REMARK INTRA:                  -3.931
REMARK CONF_INDEPENDENT:        2.685
REMARK UNBOUND:                -3.931
REMARK  9 active torsions:
REMARK  status: ('A' for Active; 'I' for Inactive)
REMARK    1  A    between atoms: C_2  and  C_3 
REMARK       I    between atoms: C_2  and  N_30 
REMARK    2  A    between atoms: C_3  and  S_4 
REMARK    3  A    between atoms: S_4  and  C_5 
REMARK    4  A    between atoms: N_15  and  N_16 
REMARK       I    between atoms: N_16  and  C_17 
REMARK    5  A    between atoms: C_17  and  C_19 
REMARK    6  A    between atoms: C_19  and  C_20 
REMARK    7  A    between atoms: C_20  and  C_21 
REMARK    8  A    between atoms: N_30  and  C_31 
REMARK    9  A    between atoms: C_31  and  C_32 
ROOT
ATOM      1  C   UNL d   1      26.793 -12.187  -5.259  0.00  0.00     0.274 C 
ATOM      2  N   UNL d   1      26.612 -10.877  -5.862  0.00  0.00    -0.358 N 
ATOM      3  C   UNL d   1      26.916 -10.681  -7.200  0.00  0.00     0.046 A 
ATOM      4  C   UNL d   1      26.435  -9.599  -7.938  0.00  0.00     0.030 A 
ATOM      5  C   UNL d   1      26.772  -9.439  -9.299  0.00  0.00     0.002 A 
ATOM      6  C   UNL d   1      27.613 -10.344  -9.942  0.00  0.00     0.001 A 
ATOM      7  C   UNL d   1      28.071 -11.438  -9.238  0.00  0.00     0.019 A 
ATOM      8  C   UNL d   1      27.686 -11.609  -7.901  0.00  0.00     0.060 A 
ATOM      9  C   UNL d   1      28.155 -12.795  -7.200  0.00  0.00     0.277 C 
ATOM     10  O   UNL d   1      28.638 -13.697  -7.889  0.00  0.00    -0.266 OA
ATOM     11  N   UNL d   1      28.019 -12.771  -5.816  0.00  0.00    -0.221 N 
ATOM     12  H   UNL d   1      26.232 -10.130  -5.297  0.00  0.00     0.162 HD
ENDROOT
BRANCH  11  13
ATOM     13  N   UNL d   1      28.706 -13.756  -5.045  0.00  0.00    -0.262 N 
ATOM     14  C   UNL d   1      28.291 -15.091  -5.130  0.00  0.00     0.236 C 
ATOM     15  O   UNL d   1      27.317 -15.575  -5.689  0.00  0.00    -0.272 OA
ATOM     16  H   UNL d   1      29.710 -13.590  -4.975  0.00  0.00     0.190 HD
BRANCH  14  17
ATOM     17  C   UNL d   1      29.190 -16.004  -4.390  0.00  0.00     0.109 C 
BRANCH  17  18
ATOM     18  C   UNL d   1      29.929 -15.248  -3.284  0.00  0.00     0.046 C 
BRANCH  18  19
ATOM     19  C   UNL d   1      29.516 -15.671  -1.920  0.00  0.00    -0.050 A 
ATOM     20  C   UNL d   1      28.820 -14.973  -1.016  0.00  0.00    -0.006 A 
ATOM     21  C   UNL d   1      28.239 -13.671  -0.976  0.00  0.00     0.014 A 
ATOM     22  C   UNL d   1      28.684 -15.888   0.129  0.00  0.00     0.038 A 
ATOM     23  C   UNL d   1      27.560 -13.277   0.100  0.00  0.00     0.001 A 
ATOM     24  C   UNL d   1      27.405 -14.151   1.238  0.00  0.00     0.002 A 
ATOM     25  C   UNL d   1      27.923 -15.395   1.297  0.00  0.00     0.030 A 
ATOM     26  N   UNL d   1      29.259 -17.013  -0.074  0.00  0.00    -0.385 N 
ATOM     27  C   UNL d   1      29.880 -17.040  -1.415  0.00  0.00     0.155 A 
ATOM     28  H   UNL d   1      29.273 -17.773   0.602  0.00  0.00     0.160 HD
ENDBRANCH  18  19
ENDBRANCH  17  18
ENDBRANCH  14  17
ENDBRANCH  11  13
BRANCH   1  29
ATOM     29  S   UNL d   1      26.831 -11.977  -3.442  0.00  0.00    -0.112 SA
BRANCH  29  30
ATOM     30  C   UNL d   1      25.553 -13.183  -2.847  0.00  0.00     0.180 C 
BRANCH  30  31
ATOM     31  C   UNL d   1      25.331 -14.294  -3.894  0.00  0.00     0.227 C 
ATOM     32  O   UNL d   1      24.779 -14.115  -4.979  0.00  0.00    -0.273 OA
ATOM     33  N   UNL d   1      25.730 -15.570  -3.598  0.00  0.00    -0.356 N 
ATOM     34  H   UNL d   1      25.604 -16.218  -4.370  0.00  0.00     0.162 HD
BRANCH  33  35
ATOM     35  C   UNL d   1      26.363 -16.061  -2.388  0.00  0.00     0.161 C 
BRANCH  35  36
ATOM     36  C   UNL d   1      25.391 -16.751  -1.460  0.00  0.00    -0.041 C 
ATOM     37  C   UNL d   1      25.855 -17.663  -0.500  0.00  0.00     0.009 C 
ATOM     38  C   UNL d   1      24.954 -18.429   0.244  0.00  0.00     0.001 C 
ATOM     39  C   UNL d   1      23.585 -18.205   0.128  0.00  0.00     0.000 C 
ATOM     40  C   UNL d   1      23.119 -17.194  -0.706  0.00  0.00     0.001 C 
ATOM     41  C   UNL d   1      24.012 -16.496  -1.523  0.00  0.00     0.009 C 
ENDBRANCH  35  36
ENDBRANCH  33  35
ENDBRANCH  30  31
ENDBRANCH  29  30
ENDBRANCH   1  29
TORSDOF 9
ENDMDL
MODEL 9
REMARK VINA RESULT:    -8.154      2.627      6.215
REMARK INTER + INTRA:         -14.898
REMARK INTER:                 -10.838
REMARK INTRA:                  -4.059
REMARK CONF_INDEPENDENT:        2.685
REMARK UNBOUND:                -4.059
REMARK  9 active torsions:
REMARK  status: ('A' for Active; 'I' for Inactive)
REMARK    1  A    between atoms: C_2  and  C_3 
REMARK       I    between atoms: C_2  and  N_30 
REMARK    2  A    between atoms: C_3  and  S_4 
REMARK    3  A    between atoms: S_4  and  C_5 
REMARK    4  A    between atoms: N_15  and  N_16 
REMARK       I    between atoms: N_16  and  C_17 
REMARK    5  A    between atoms: C_17  and  C_19 
REMARK    6  A    between atoms: C_19  and  C_20 
REMARK    7  A    between atoms: C_20  and  C_21 
REMARK    8  A    between atoms: N_30  and  C_31 
REMARK    9  A    between atoms: C_31  and  C_32 
ROOT
ATOM      1  C   UNL d   1      25.513 -14.327  -2.743  0.00  0.00     0.274 C 
ATOM      2  N   UNL d   1      24.285 -15.024  -2.398  0.00  0.00    -0.358 N 
ATOM      3  C   UNL d   1      24.327 -16.131  -1.565  0.00  0.00     0.046 A 
ATOM      4  C   UNL d   1      23.205 -16.620  -0.894  0.00  0.00     0.030 A 
ATOM      5  C   UNL d   1      23.294 -17.752  -0.057  0.00  0.00     0.002 A 
ATOM      6  C   UNL d   1      24.499 -18.431   0.108  0.00  0.00     0.001 A 
ATOM      7  C   UNL d   1      25.626 -17.943  -0.521  0.00  0.00     0.019 A 
ATOM      8  C   UNL d   1      25.531 -16.787  -1.308  0.00  0.00     0.060 A 
ATOM      9  C   UNL d   1      26.746 -16.277  -1.925  0.00  0.00     0.277 C 
ATOM     10  O   UNL d   1      27.816 -16.731  -1.511  0.00  0.00    -0.266 OA
ATOM     11  N   UNL d   1      26.563 -15.336  -2.932  0.00  0.00    -0.221 N 
ATOM     12  H   UNL d   1      23.407 -14.665  -2.747  0.00  0.00     0.162 HD
ENDROOT
BRANCH  11  13
ATOM     13  N   UNL d   1      27.671 -15.006  -3.769  0.00  0.00    -0.262 N 
ATOM     14  C   UNL d   1      27.525 -15.113  -5.157  0.00  0.00     0.236 C 
ATOM     15  O   UNL d   1      26.604 -15.575  -5.816  0.00  0.00    -0.272 OA
ATOM     16  H   UNL d   1      28.221 -14.219  -3.423  0.00  0.00     0.190 HD
BRANCH  14  17
ATOM     17  C   UNL d   1      28.706 -14.598  -5.884  0.00  0.00     0.109 C 
BRANCH  17  18
ATOM     18  C   UNL d   1      29.981 -14.834  -5.071  0.00  0.00     0.046 C 
BRANCH  18  19
ATOM     19  C   UNL d   1      30.182 -16.264  -4.714  0.00  0.00    -0.050 A 
ATOM     20  C   UNL d   1      30.401 -17.296  -5.536  0.00  0.00    -0.006 A 
ATOM     21  C   UNL d   1      30.523 -17.451  -6.949  0.00  0.00     0.014 A 
ATOM     22  C   UNL d   1      30.551 -18.453  -4.640  0.00  0.00     0.038 A 
ATOM     23  C   UNL d   1      30.781 -18.651  -7.467  0.00  0.00     0.001 A 
ATOM     24  C   UNL d   1      30.936 -19.806  -6.616  0.00  0.00     0.002 A 
ATOM     25  C   UNL d   1      30.833 -19.760  -5.272  0.00  0.00     0.030 A 
ATOM     26  N   UNL d   1      30.417 -18.137  -3.407  0.00  0.00    -0.385 N 
ATOM     27  C   UNL d   1      30.159 -16.688  -3.272  0.00  0.00     0.155 A 
ATOM     28  H   UNL d   1      30.487 -18.803  -2.640  0.00  0.00     0.160 HD
ENDBRANCH  18  19
ENDBRANCH  17  18
ENDBRANCH  14  17
ENDBRANCH  11  13
BRANCH   1  29
ATOM     29  S   UNL d   1      25.190 -13.307  -4.228  0.00  0.00    -0.112 SA
BRANCH  29  30
ATOM     30  C   UNL d   1      26.079 -11.722  -3.856  0.00  0.00     0.180 C 
BRANCH  30  31
ATOM     31  C   UNL d   1      27.552 -12.001  -3.494  0.00  0.00     0.227 C 
ATOM     32  O   UNL d   1      28.433 -12.224  -4.323  0.00  0.00    -0.273 OA
ATOM     33  N   UNL d   1      27.910 -12.047  -2.173  0.00  0.00    -0.356 N 
ATOM     34  H   UNL d   1      28.909 -12.170  -2.033  0.00  0.00     0.162 HD
BRANCH  33  35
ATOM     35  C   UNL d   1      27.072 -11.862  -1.003  0.00  0.00     0.161 C 
BRANCH  35  36
ATOM     36  C   UNL d   1      27.377 -12.853   0.096  0.00  0.00    -0.041 C 
ATOM     37  C   UNL d   1      28.268 -13.912  -0.133  0.00  0.00     0.009 C 
ATOM     38  C   UNL d   1      28.426 -14.924   0.819  0.00  0.00     0.001 C 
ATOM     39  C   UNL d   1      27.794 -14.825   2.054  0.00  0.00     0.000 C 
ATOM     40  C   UNL d   1      27.031 -13.699   2.352  0.00  0.00     0.001 C 
ATOM     41  C   UNL d   1      26.794 -12.737   1.368  0.00  0.00     0.009 C 
ENDBRANCH  35  36
ENDBRANCH  33  35
ENDBRANCH  30  31
ENDBRANCH  29  30
ENDBRANCH   1  29
TORSDOF 9
ENDMDL
