MODEL 1
REMARK VINA RESULT:    -7.933      0.000      0.000
REMARK INTER + INTRA:         -10.011
REMARK INTER:                  -8.828
REMARK INTRA:                  -1.183
REMARK CONF_INDEPENDENT:        0.895
REMARK UNBOUND:                -1.183
REMARK  3 active torsions:
REMARK  status: ('A' for Active; 'I' for Inactive)
REMARK    1  A    between atoms: C_4  and  O_5 
REMARK    2  A    between atoms: C_6  and  N_7 
REMARK       I    between atoms: N_7  and  C_8 
REMARK    3  A    between atoms: C_8  and  C_10 
ROOT
ATOM      1  N   UNL d   1      22.224 -18.168   0.153  0.00  0.00    -0.321 N 
ATOM      2  C   UNL d   1      23.197 -18.293  -0.842  0.00  0.00     0.256 C 
ATOM      3  O   UNL d   1      23.320 -19.129  -1.734  0.00  0.00    -0.267 OA
ATOM      4  H   UNL d   1      22.307 -17.380   0.784  0.00  0.00     0.169 HD
ENDROOT
BRANCH   1   5
ATOM      5  C   UNL d   1      21.070 -19.010   0.346  0.00  0.00     0.069 A 
ATOM      6  C   UNL d   1      20.305 -19.555  -0.695  0.00  0.00     0.092 A 
ATOM      7  C   UNL d   1      19.200 -20.368  -0.463  0.00  0.00     0.046 A 
ATOM      8  C   UNL d   1      18.799 -20.682   0.830  0.00  0.00    -0.053 A 
ATOM      9  C   UNL d   1      17.601 -21.575   0.999  0.00  0.00     0.049 C 
ATOM     10  C   UNL d   1      19.526 -20.157   1.913  0.00  0.00    -0.054 A 
ATOM     11  C   UNL d   1      20.656 -19.325   1.663  0.00  0.00     0.039 A 
ATOM     12  C   UNL d   1      19.090 -20.490   3.318  0.00  0.00     0.049 C 
BRANCH   6  13
ATOM     13  O   UNL d   1      20.589 -19.325  -2.000  0.00  0.00    -0.358 OA
ATOM     14  H   UNL d   1      21.529 -19.226  -2.186  0.00  0.00     0.217 HD
ENDBRANCH   6  13
ENDBRANCH   1   5
BRANCH   2  15
ATOM     15  C   UNL d   1      24.288 -17.308  -0.913  0.00  0.00     0.032 A 
ATOM     16  C   UNL d   1      25.583 -17.606  -0.498  0.00  0.00     0.018 A 
ATOM     17  C   UNL d   1      26.613 -16.705  -0.792  0.00  0.00     0.020 A 
ATOM     18  C   UNL d   1      26.347 -15.530  -1.503  0.00  0.00     0.011 A 
ATOM     19 BR   UNL d   1      27.751 -14.325  -1.890  0.00  0.00    -0.051 Br
ATOM     20  C   UNL d   1      25.060 -15.238  -1.943  0.00  0.00     0.020 A 
ATOM     21  C   UNL d   1      24.034 -16.131  -1.651  0.00  0.00     0.018 A 
ENDBRANCH   2  15
TORSDOF 3
ENDMDL
MODEL 2
REMARK VINA RESULT:    -7.891      3.257      7.704
REMARK INTER + INTRA:          -9.416
REMARK INTER:                  -8.786
REMARK INTRA:                  -0.630
REMARK CONF_INDEPENDENT:        0.895
REMARK UNBOUND:                -0.630
REMARK  3 active torsions:
REMARK  status: ('A' for Active; 'I' for Inactive)
REMARK    1  A    between atoms: C_4  and  O_5 
REMARK    2  A    between atoms: C_6  and  N_7 
REMARK       I    between atoms: N_7  and  C_8 
REMARK    3  A    between atoms: C_8  and  C_10 
ROOT
ATOM      1  N   UNL d   1      23.931 -17.930  -0.849  0.00  0.00    -0.321 N 
ATOM      2  C   UNL d   1      22.608 -17.536  -0.637  0.00  0.00     0.256 C 
ATOM      3  O   UNL d   1      22.087 -16.425  -0.706  0.00  0.00    -0.267 OA
ATOM      4  H   UNL d   1      24.141 -18.917  -0.754  0.00  0.00     0.169 HD
ENDROOT
BRANCH   1   5
ATOM      5  C   UNL d   1      25.031 -17.089  -1.251  0.00  0.00     0.069 A 
ATOM      6  C   UNL d   1      26.339 -17.210  -0.761  0.00  0.00     0.092 A 
ATOM      7  C   UNL d   1      27.373 -16.378  -1.181  0.00  0.00     0.046 A 
ATOM      8  C   UNL d   1      27.153 -15.376  -2.119  0.00  0.00    -0.053 A 
ATOM      9  C   UNL d   1      28.322 -14.526  -2.530  0.00  0.00     0.049 C 
ATOM     10  C   UNL d   1      25.857 -15.206  -2.639  0.00  0.00    -0.054 A 
ATOM     11  C   UNL d   1      24.807 -16.063  -2.201  0.00  0.00     0.039 A 
ATOM     12  C   UNL d   1      25.613 -14.115  -3.652  0.00  0.00     0.049 C 
BRANCH   6  13
ATOM     13  O   UNL d   1      26.686 -18.145   0.156  0.00  0.00    -0.358 OA
ATOM     14  H   UNL d   1      27.579 -18.045   0.502  0.00  0.00     0.217 HD
ENDBRANCH   6  13
ENDBRANCH   1   5
BRANCH   2  15
ATOM     15  C   UNL d   1      21.603 -18.548  -0.270  0.00  0.00     0.032 A 
ATOM     16  C   UNL d   1      21.405 -18.951   1.048  0.00  0.00     0.018 A 
ATOM     17  C   UNL d   1      20.296 -19.748   1.353  0.00  0.00     0.020 A 
ATOM     18  C   UNL d   1      19.393 -20.123   0.351  0.00  0.00     0.011 A 
ATOM     19 BR   UNL d   1      17.902 -21.200   0.783  0.00  0.00    -0.051 Br
ATOM     20  C   UNL d   1      19.572 -19.702  -0.963  0.00  0.00     0.020 A 
ATOM     21  C   UNL d   1      20.674 -18.910  -1.269  0.00  0.00     0.018 A 
ENDBRANCH   2  15
TORSDOF 3
ENDMDL
MODEL 3
REMARK VINA RESULT:    -7.287      3.243      7.570
REMARK INTER + INTRA:          -9.195
REMARK INTER:                  -8.182
REMARK INTRA:                  -1.013
REMARK CONF_INDEPENDENT:        0.895
REMARK UNBOUND:                -1.013
REMARK  3 active torsions:
REMARK  status: ('A' for Active; 'I' for Inactive)
REMARK    1  A    between atoms: C_4  and  O_5 
REMARK    2  A    between atoms: C_6  and  N_7 
REMARK       I    between atoms: N_7  and  C_8 
REMARK    3  A    between atoms: C_8  and  C_10 
ROOT
ATOM      1  N   UNL d   1      23.953 -17.895  -0.665  0.00  0.00    -0.321 N 
ATOM      2  C   UNL d   1      22.604 -17.536  -0.625  0.00  0.00     0.256 C 
ATOM      3  O   UNL d   1      22.061 -16.457  -0.853  0.00  0.00    -0.267 OA
ATOM      4  H   UNL d   1      24.181 -18.860  -0.454  0.00  0.00     0.169 HD
ENDROOT
BRANCH   1   5
ATOM      5  C   UNL d   1      25.063 -17.053  -1.034  0.00  0.00     0.069 A 
ATOM      6  C   UNL d   1      24.941 -15.852  -1.748  0.00  0.00     0.092 A 
ATOM      7  C   UNL d   1      26.041 -15.066  -2.080  0.00  0.00     0.046 A 
ATOM      8  C   UNL d   1      27.328 -15.441  -1.713  0.00  0.00    -0.053 A 
ATOM      9  C   UNL d   1      28.463 -14.534  -2.099  0.00  0.00     0.049 C 
ATOM     10  C   UNL d   1      27.509 -16.640  -1.002  0.00  0.00    -0.054 A 
ATOM     11  C   UNL d   1      26.376 -17.437  -0.668  0.00  0.00     0.039 A 
ATOM     12  C   UNL d   1      28.906 -17.054  -0.608  0.00  0.00     0.049 C 
BRANCH   6  13
ATOM     13  O   UNL d   1      23.743 -15.375  -2.164  0.00  0.00    -0.358 OA
ATOM     14  H   UNL d   1      23.089 -15.289  -1.463  0.00  0.00     0.217 HD
ENDBRANCH   6  13
ENDBRANCH   1   5
BRANCH   2  15
ATOM     15  C   UNL d   1      21.597 -18.547  -0.264  0.00  0.00     0.032 A 
ATOM     16  C   UNL d   1      21.392 -18.951   1.053  0.00  0.00     0.018 A 
ATOM     17  C   UNL d   1      20.281 -19.748   1.351  0.00  0.00     0.020 A 
ATOM     18  C   UNL d   1      19.384 -20.122   0.344  0.00  0.00     0.011 A 
ATOM     19 BR   UNL d   1      17.890 -21.200   0.767  0.00  0.00    -0.051 Br
ATOM     20  C   UNL d   1      19.570 -19.700  -0.969  0.00  0.00     0.020 A 
ATOM     21  C   UNL d   1      20.674 -18.909  -1.269  0.00  0.00     0.018 A 
ENDBRANCH   2  15
TORSDOF 3
ENDMDL
MODEL 4
REMARK VINA RESULT:    -6.895      4.210      8.839
REMARK INTER + INTRA:          -8.431
REMARK INTER:                  -7.790
REMARK INTRA:                  -0.642
REMARK CONF_INDEPENDENT:        0.895
REMARK UNBOUND:                -0.642
REMARK  3 active torsions:
REMARK  status: ('A' for Active; 'I' for Inactive)
REMARK    1  A    between atoms: C_4  and  O_5 
REMARK    2  A    between atoms: C_6  and  N_7 
REMARK       I    between atoms: N_7  and  C_8 
REMARK    3  A    between atoms: C_8  and  C_10 
ROOT
ATOM      1  N   UNL d   1      25.192 -15.368  -3.088  0.00  0.00    -0.321 N 
ATOM      2  C   UNL d   1      25.519 -16.213  -2.025  0.00  0.00     0.256 C 
ATOM      3  O   UNL d   1      26.615 -16.546  -1.581  0.00  0.00    -0.267 OA
ATOM      4  H   UNL d   1      24.208 -15.217  -3.273  0.00  0.00     0.169 HD
ENDROOT
BRANCH   1   5
ATOM      5  C   UNL d   1      26.110 -14.632  -3.922  0.00  0.00     0.069 A 
ATOM      6  C   UNL d   1      25.934 -13.294  -4.303  0.00  0.00     0.092 A 
ATOM      7  C   UNL d   1      26.848 -12.620  -5.107  0.00  0.00     0.046 A 
ATOM      8  C   UNL d   1      27.994 -13.251  -5.575  0.00  0.00    -0.053 A 
ATOM      9  C   UNL d   1      28.939 -12.453  -6.430  0.00  0.00     0.049 C 
ATOM     10  C   UNL d   1      28.218 -14.596  -5.230  0.00  0.00    -0.054 A 
ATOM     11  C   UNL d   1      27.274 -15.276  -4.407  0.00  0.00     0.039 A 
ATOM     12  C   UNL d   1      29.458 -15.287  -5.742  0.00  0.00     0.049 C 
BRANCH   6  13
ATOM     13  O   UNL d   1      24.859 -12.566  -3.914  0.00  0.00    -0.358 OA
ATOM     14  H   UNL d   1      24.783 -11.712  -4.352  0.00  0.00     0.217 HD
ENDBRANCH   6  13
ENDBRANCH   1   5
BRANCH   2  15
ATOM     15  C   UNL d   1      24.441 -16.851  -1.252  0.00  0.00     0.032 A 
ATOM     16  C   UNL d   1      23.199 -16.247  -1.076  0.00  0.00     0.018 A 
ATOM     17  C   UNL d   1      22.155 -16.995  -0.520  0.00  0.00     0.020 A 
ATOM     18  C   UNL d   1      22.353 -18.333  -0.158  0.00  0.00     0.011 A 
ATOM     19 BR   UNL d   1      20.931 -19.326   0.592  0.00  0.00    -0.051 Br
ATOM     20  C   UNL d   1      23.585 -18.949  -0.355  0.00  0.00     0.020 A 
ATOM     21  C   UNL d   1      24.625 -18.207  -0.907  0.00  0.00     0.018 A 
ENDBRANCH   2  15
TORSDOF 3
ENDMDL
MODEL 5
REMARK VINA RESULT:    -6.578      4.083      8.506
REMARK INTER + INTRA:          -8.074
REMARK INTER:                  -7.473
REMARK INTRA:                  -0.601
REMARK CONF_INDEPENDENT:        0.895
REMARK UNBOUND:                -0.601
REMARK  3 active torsions:
REMARK  status: ('A' for Active; 'I' for Inactive)
REMARK    1  A    between atoms: C_4  and  O_5 
REMARK    2  A    between atoms: C_6  and  N_7 
REMARK       I    between atoms: N_7  and  C_8 
REMARK    3  A    between atoms: C_8  and  C_10 
ROOT
ATOM      1  N   UNL d   1      26.802 -16.800   0.131  0.00  0.00    -0.321 N 
ATOM      2  C   UNL d   1      25.710 -16.247  -0.541  0.00  0.00     0.256 C 
ATOM      3  O   UNL d   1      25.562 -15.133  -1.038  0.00  0.00    -0.267 OA
ATOM      4  H   UNL d   1      26.714 -17.758   0.448  0.00  0.00     0.169 HD
ENDROOT
BRANCH   1   5
ATOM      5  C   UNL d   1      28.077 -16.172   0.374  0.00  0.00     0.069 A 
ATOM      6  C   UNL d   1      29.312 -16.708  -0.022  0.00  0.00     0.092 A 
ATOM      7  C   UNL d   1      30.520 -16.065   0.230  0.00  0.00     0.046 A 
ATOM      8  C   UNL d   1      30.559 -14.844   0.893  0.00  0.00    -0.053 A 
ATOM      9  C   UNL d   1      31.902 -14.207   1.118  0.00  0.00     0.049 C 
ATOM     10  C   UNL d   1      29.351 -14.264   1.319  0.00  0.00    -0.054 A 
ATOM     11  C   UNL d   1      28.120 -14.932   1.056  0.00  0.00     0.039 A 
ATOM     12  C   UNL d   1      29.390 -12.942   2.045  0.00  0.00     0.049 C 
BRANCH   6  13
ATOM     13  O   UNL d   1      29.411 -17.891  -0.675  0.00  0.00    -0.358 OA
ATOM     14  H   UNL d   1      29.578 -18.645  -0.100  0.00  0.00     0.217 HD
ENDBRANCH   6  13
ENDBRANCH   1   5
BRANCH   2  15
ATOM     15  C   UNL d   1      24.496 -17.057  -0.734  0.00  0.00     0.032 A 
ATOM     16  C   UNL d   1      24.481 -18.432  -0.517  0.00  0.00     0.018 A 
ATOM     17  C   UNL d   1      23.252 -19.103  -0.509  0.00  0.00     0.020 A 
ATOM     18  C   UNL d   1      22.058 -18.400  -0.702  0.00  0.00     0.011 A 
ATOM     19 BR   UNL d   1      20.409 -19.324  -0.688  0.00  0.00    -0.051 Br
ATOM     20  C   UNL d   1      22.065 -17.022  -0.894  0.00  0.00     0.020 A 
ATOM     21  C   UNL d   1      23.284 -16.353  -0.904  0.00  0.00     0.018 A 
ENDBRANCH   2  15
TORSDOF 3
ENDMDL
MODEL 6
REMARK VINA RESULT:    -6.472      4.282      8.948
REMARK INTER + INTRA:          -8.548
REMARK INTER:                  -7.367
REMARK INTRA:                  -1.181
REMARK CONF_INDEPENDENT:        0.895
REMARK UNBOUND:                -1.181
REMARK  3 active torsions:
REMARK  status: ('A' for Active; 'I' for Inactive)
REMARK    1  A    between atoms: C_4  and  O_5 
REMARK    2  A    between atoms: C_6  and  N_7 
REMARK       I    between atoms: N_7  and  C_8 
REMARK    3  A    between atoms: C_8  and  C_10 
ROOT
ATOM      1  N   UNL d   1      24.962 -14.681  -3.082  0.00  0.00    -0.321 N 
ATOM      2  C   UNL d   1      25.361 -15.805  -2.356  0.00  0.00     0.256 C 
ATOM      3  O   UNL d   1      26.469 -16.323  -2.238  0.00  0.00    -0.267 OA
ATOM      4  H   UNL d   1      23.985 -14.417  -3.025  0.00  0.00     0.169 HD
ENDROOT
BRANCH   1   5
ATOM      5  C   UNL d   1      25.804 -13.812  -3.866  0.00  0.00     0.069 A 
ATOM      6  C   UNL d   1      26.755 -14.258  -4.795  0.00  0.00     0.092 A 
ATOM      7  C   UNL d   1      27.545 -13.382  -5.533  0.00  0.00     0.046 A 
ATOM      8  C   UNL d   1      27.425 -12.006  -5.383  0.00  0.00    -0.053 A 
ATOM      9  C   UNL d   1      28.306 -11.125  -6.224  0.00  0.00     0.049 C 
ATOM     10  C   UNL d   1      26.491 -11.503  -4.459  0.00  0.00    -0.054 A 
ATOM     11  C   UNL d   1      25.689 -12.409  -3.708  0.00  0.00     0.039 A 
ATOM     12  C   UNL d   1      26.363 -10.010  -4.288  0.00  0.00     0.049 C 
BRANCH   6  13
ATOM     13  O   UNL d   1      26.970 -15.574  -5.036  0.00  0.00    -0.358 OA
ATOM     14  H   UNL d   1      26.641 -16.159  -4.345  0.00  0.00     0.217 HD
ENDBRANCH   6  13
ENDBRANCH   1   5
BRANCH   2  15
ATOM     15  C   UNL d   1      24.363 -16.553  -1.574  0.00  0.00     0.032 A 
ATOM     16  C   UNL d   1      23.114 -16.021  -1.267  0.00  0.00     0.018 A 
ATOM     17  C   UNL d   1      22.139 -16.859  -0.712  0.00  0.00     0.020 A 
ATOM     18  C   UNL d   1      22.412 -18.212  -0.483  0.00  0.00     0.011 A 
ATOM     19 BR   UNL d   1      21.083 -19.326   0.268  0.00  0.00    -0.051 Br
ATOM     20  C   UNL d   1      23.650 -18.755  -0.811  0.00  0.00     0.020 A 
ATOM     21  C   UNL d   1      24.622 -17.924  -1.362  0.00  0.00     0.018 A 
ENDBRANCH   2  15
TORSDOF 3
ENDMDL
MODEL 7
REMARK VINA RESULT:    -6.311      4.892      7.301
REMARK INTER + INTRA:          -8.399
REMARK INTER:                  -7.206
REMARK INTRA:                  -1.193
REMARK CONF_INDEPENDENT:        0.895
REMARK UNBOUND:                -1.193
REMARK  3 active torsions:
REMARK  status: ('A' for Active; 'I' for Inactive)
REMARK    1  A    between atoms: C_4  and  O_5 
REMARK    2  A    between atoms: C_6  and  N_7 
REMARK       I    between atoms: N_7  and  C_8 
REMARK    3  A    between atoms: C_8  and  C_10 
ROOT
ATOM      1  N   UNL d   1      27.665 -15.283  -3.622  0.00  0.00    -0.321 N 
ATOM      2  C   UNL d   1      27.565 -15.199  -5.012  0.00  0.00     0.256 C 
ATOM      3  O   UNL d   1      26.674 -15.575  -5.770  0.00  0.00    -0.267 OA
ATOM      4  H   UNL d   1      28.493 -14.887  -3.193  0.00  0.00     0.169 HD
ENDROOT
BRANCH   1   5
ATOM      5  C   UNL d   1      26.682 -15.822  -2.714  0.00  0.00     0.069 A 
ATOM      6  C   UNL d   1      25.310 -15.541  -2.776  0.00  0.00     0.092 A 
ATOM      7  C   UNL d   1      24.395 -16.087  -1.880  0.00  0.00     0.046 A 
ATOM      8  C   UNL d   1      24.806 -16.950  -0.872  0.00  0.00    -0.053 A 
ATOM      9  C   UNL d   1      23.757 -17.508   0.049  0.00  0.00     0.049 C 
ATOM     10  C   UNL d   1      26.173 -17.262  -0.759  0.00  0.00    -0.054 A 
ATOM     11  C   UNL d   1      27.100 -16.695  -1.681  0.00  0.00     0.039 A 
ATOM     12  C   UNL d   1      26.623 -18.193   0.339  0.00  0.00     0.049 C 
BRANCH   6  13
ATOM     13  O   UNL d   1      24.781 -14.715  -3.711  0.00  0.00    -0.358 OA
ATOM     14  H   UNL d   1      25.211 -14.769  -4.571  0.00  0.00     0.217 HD
ENDBRANCH   6  13
ENDBRANCH   1   5
BRANCH   2  15
ATOM     15  C   UNL d   1      28.655 -14.573  -5.778  0.00  0.00     0.032 A 
ATOM     16  C   UNL d   1      29.863 -15.224  -6.015  0.00  0.00     0.018 A 
ATOM     17  C   UNL d   1      30.766 -14.666  -6.926  0.00  0.00     0.020 A 
ATOM     18  C   UNL d   1      30.455 -13.479  -7.599  0.00  0.00     0.011 A 
ATOM     19 BR   UNL d   1      31.688 -12.740  -8.825  0.00  0.00    -0.051 Br
ATOM     20  C   UNL d   1      29.239 -12.837  -7.386  0.00  0.00     0.020 A 
ATOM     21  C   UNL d   1      28.339 -13.390  -6.479  0.00  0.00     0.018 A 
ENDBRANCH   2  15
TORSDOF 3
ENDMDL
MODEL 8
REMARK VINA RESULT:    -6.026      3.369      8.125
REMARK INTER + INTRA:          -8.095
REMARK INTER:                  -6.921
REMARK INTRA:                  -1.174
REMARK CONF_INDEPENDENT:        0.895
REMARK UNBOUND:                -1.174
REMARK  3 active torsions:
REMARK  status: ('A' for Active; 'I' for Inactive)
REMARK    1  A    between atoms: C_4  and  O_5 
REMARK    2  A    between atoms: C_6  and  N_7 
REMARK       I    between atoms: N_7  and  C_8 
REMARK    3  A    between atoms: C_8  and  C_10 
ROOT
ATOM      1  N   UNL d   1      24.416 -16.657  -1.743  0.00  0.00    -0.321 N 
ATOM      2  C   UNL d   1      24.207 -17.764  -0.917  0.00  0.00     0.256 C 
ATOM      3  O   UNL d   1      25.013 -18.483  -0.331  0.00  0.00    -0.267 OA
ATOM      4  H   UNL d   1      23.594 -16.195  -2.113  0.00  0.00     0.169 HD
ENDROOT
BRANCH   1   5
ATOM      5  C   UNL d   1      25.682 -16.058  -2.083  0.00  0.00     0.069 A 
ATOM      6  C   UNL d   1      26.751 -15.905  -1.188  0.00  0.00     0.092 A 
ATOM      7  C   UNL d   1      27.959 -15.324  -1.561  0.00  0.00     0.046 A 
ATOM      8  C   UNL d   1      28.165 -14.863  -2.856  0.00  0.00    -0.053 A 
ATOM      9  C   UNL d   1      29.501 -14.257  -3.185  0.00  0.00     0.049 C 
ATOM     10  C   UNL d   1      27.124 -14.985  -3.794  0.00  0.00    -0.054 A 
ATOM     11  C   UNL d   1      25.891 -15.581  -3.400  0.00  0.00     0.039 A 
ATOM     12  C   UNL d   1      27.341 -14.479  -5.198  0.00  0.00     0.049 C 
BRANCH   6  13
ATOM     13  O   UNL d   1      26.679 -16.312   0.102  0.00  0.00    -0.358 OA
ATOM     14  H   UNL d   1      26.044 -17.019   0.257  0.00  0.00     0.217 HD
ENDBRANCH   6  13
ENDBRANCH   1   5
BRANCH   2  15
ATOM     15  C   UNL d   1      22.831 -18.213  -0.645  0.00  0.00     0.032 A 
ATOM     16  C   UNL d   1      22.006 -18.719  -1.645  0.00  0.00     0.018 A 
ATOM     17  C   UNL d   1      20.798 -19.325  -1.283  0.00  0.00     0.020 A 
ATOM     18  C   UNL d   1      20.431 -19.432   0.064  0.00  0.00     0.011 A 
ATOM     19 BR   UNL d   1      18.794 -20.253   0.532  0.00  0.00    -0.051 Br
ATOM     20  C   UNL d   1      21.263 -18.950   1.069  0.00  0.00     0.020 A 
ATOM     21  C   UNL d   1      22.465 -18.346   0.712  0.00  0.00     0.018 A 
ENDBRANCH   2  15
TORSDOF 3
ENDMDL
MODEL 9
REMARK VINA RESULT:    -5.988      5.742     10.295
REMARK INTER + INTRA:          -8.067
REMARK INTER:                  -6.883
REMARK INTRA:                  -1.184
REMARK CONF_INDEPENDENT:        0.895
REMARK UNBOUND:                -1.184
REMARK  3 active torsions:
REMARK  status: ('A' for Active; 'I' for Inactive)
REMARK    1  A    between atoms: C_4  and  O_5 
REMARK    2  A    between atoms: C_6  and  N_7 
REMARK       I    between atoms: N_7  and  C_8 
REMARK    3  A    between atoms: C_8  and  C_10 
ROOT
ATOM      1  N   UNL d   1      27.110 -13.781  -4.713  0.00  0.00    -0.321 N 
ATOM      2  C   UNL d   1      25.967 -14.328  -4.125  0.00  0.00     0.256 C 
ATOM      3  O   UNL d   1      24.779 -14.077  -4.312  0.00  0.00    -0.267 OA
ATOM      4  H   UNL d   1      28.005 -14.153  -4.418  0.00  0.00     0.169 HD
ENDROOT
BRANCH   1   5
ATOM      5  C   UNL d   1      27.156 -12.775  -5.745  0.00  0.00     0.069 A 
ATOM      6  C   UNL d   1      26.396 -11.597  -5.736  0.00  0.00     0.092 A 
ATOM      7  C   UNL d   1      26.475 -10.650  -6.753  0.00  0.00     0.046 A 
ATOM      8  C   UNL d   1      27.324 -10.831  -7.838  0.00  0.00    -0.053 A 
ATOM      9  C   UNL d   1      27.362  -9.758  -8.891  0.00  0.00     0.049 C 
ATOM     10  C   UNL d   1      28.105 -11.999  -7.902  0.00  0.00    -0.054 A 
ATOM     11  C   UNL d   1      28.014 -12.962  -6.856  0.00  0.00     0.039 A 
ATOM     12  C   UNL d   1      29.022 -12.203  -9.082  0.00  0.00     0.049 C 
BRANCH   6  13
ATOM     13  O   UNL d   1      25.531 -11.300  -4.736  0.00  0.00    -0.358 OA
ATOM     14  H   UNL d   1      24.821 -11.942  -4.627  0.00  0.00     0.217 HD
ENDBRANCH   6  13
ENDBRANCH   1   5
BRANCH   2  15
ATOM     15  C   UNL d   1      26.112 -15.384  -3.110  0.00  0.00     0.032 A 
ATOM     16  C   UNL d   1      27.357 -15.803  -2.650  0.00  0.00     0.018 A 
ATOM     17  C   UNL d   1      27.417 -16.650  -1.537  0.00  0.00     0.020 A 
ATOM     18  C   UNL d   1      26.246 -17.057  -0.889  0.00  0.00     0.011 A 
ATOM     19 BR   UNL d   1      26.349 -18.201   0.612  0.00  0.00    -0.051 Br
ATOM     20  C   UNL d   1      25.000 -16.620  -1.329  0.00  0.00     0.020 A 
ATOM     21  C   UNL d   1      24.936 -15.780  -2.435  0.00  0.00     0.018 A 
ENDBRANCH   2  15
TORSDOF 3
ENDMDL
