MODEL 1
REMARK VINA RESULT:    -7.430      0.000      0.000
REMARK INTER + INTRA:         -12.646
REMARK INTER:                 -10.712
REMARK INTRA:                  -1.934
REMARK CONF_INDEPENDENT:        3.281
REMARK UNBOUND:                -1.934
REMARK  11 active torsions:
REMARK  status: ('A' for Active; 'I' for Inactive)
REMARK    1  A    between atoms: C_5  and  N_6 
REMARK       I    between atoms: N_6  and  C_7 
REMARK    2  A    between atoms: C_7  and  C_9 
REMARK    3  A    between atoms: C_9  and  N_10 
REMARK    4  A    between atoms: N_10  and  C_11 
REMARK    5  A    between atoms: C_13  and  N_14 
REMARK    6  A    between atoms: C_19  and  N_20 
REMARK    7  A    between atoms: N_20  and  C_21 
REMARK    8  A    between atoms: C_21  and  C_22 
REMARK    9  A    between atoms: C_22  and  O_23 
REMARK   10  A    between atoms: C_25  and  S_26 
REMARK   11  A    between atoms: S_26  and  N_29 
ROOT
ATOM      1  C   UNL d   1      30.892 -17.531  -0.655  0.00  0.00     0.223 C 
ENDROOT
BRANCH   1   2
ATOM      2  C   UNL d   1      29.513 -17.024  -0.955  0.00  0.00     0.239 C 
ATOM      3  N   UNL d   1      28.497 -17.805  -0.341  0.00  0.00    -0.326 N 
ATOM      4  H   UNL d   1      28.745 -18.586   0.255  0.00  0.00     0.169 HD
ATOM      5  O   UNL d   1      29.386 -16.153  -1.810  0.00  0.00    -0.271 OA
BRANCH   3   6
ATOM      6  C   UNL d   1      27.120 -17.565  -0.504  0.00  0.00     0.036 A 
ATOM      7  C   UNL d   1      26.170 -18.092   0.370  0.00  0.00     0.030 A 
ATOM      8  C   UNL d   1      24.828 -17.707   0.231  0.00  0.00     0.010 A 
ATOM      9  C   UNL d   1      24.401 -16.840  -0.796  0.00  0.00    -0.039 A 
ATOM     10  C   UNL d   1      22.929 -16.602  -0.913  0.00  0.00     0.050 C 
ATOM     11  C   UNL d   1      25.371 -16.315  -1.654  0.00  0.00     0.082 A 
ATOM     12  C   UNL d   1      26.691 -16.719  -1.511  0.00  0.00     0.054 A 
BRANCH  11  13
ATOM     13  S   UNL d   1      25.195 -15.115  -2.959  0.00  0.00     0.243 S 
ATOM     14  O   UNL d   1      25.530 -15.766  -4.201  0.00  0.00    -0.206 OA
ATOM     15  O   UNL d   1      23.889 -14.492  -2.770  0.00  0.00    -0.206 OA
BRANCH  13  16
ATOM     16  N   UNL d   1      26.390 -13.938  -2.712  0.00  0.00    -0.215 NA
ATOM     17  C   UNL d   1      26.272 -12.771  -3.618  0.00  0.00     0.129 C 
ATOM     18  C   UNL d   1      26.432 -13.454  -1.316  0.00  0.00     0.129 C 
ENDBRANCH  13  16
ENDBRANCH  11  13
ENDBRANCH   3   6
ENDBRANCH   1   2
BRANCH   1  19
ATOM     19  N   UNL d   1      31.609 -18.121  -1.783  0.00  0.00    -0.379 N 
ATOM     20  H   UNL d   1      32.064 -17.427  -2.385  0.00  0.00     0.160 HD
BRANCH  19  21
ATOM     21  C   UNL d   1      31.486 -19.405  -2.327  0.00  0.00     0.057 A 
ATOM     22  C   UNL d   1      31.491 -19.410  -3.753  0.00  0.00     0.067 A 
ATOM     23  C   UNL d   1      31.289 -20.587  -4.491  0.00  0.00     0.105 A 
ATOM     24  C   UNL d   1      31.185 -21.811  -3.844  0.00  0.00     0.038 A 
ATOM     25  C   UNL d   1      31.163 -21.836  -2.454  0.00  0.00     0.034 A 
ATOM     26  C   UNL d   1      31.283 -20.671  -1.659  0.00  0.00     0.054 A 
BRANCH  23  27
ATOM     27  N   UNL d   1      31.080 -20.538  -5.946  0.00  0.00    -0.116 N 
ATOM     28  O   UNL d   1      31.972 -20.986  -6.679  0.00  0.00    -0.532 OA
ATOM     29  O   UNL d   1      30.032 -20.018  -6.358  0.00  0.00    -0.532 OA
ENDBRANCH  23  27
BRANCH  26  30
ATOM     30  N   UNL d   1      30.981 -20.931  -0.286  0.00  0.00    -0.386 N 
ATOM     31  H   UNL d   1      30.398 -20.235   0.163  0.00  0.00     0.159 HD
BRANCH  30  32
ATOM     32  C   UNL d   1      30.675 -22.281   0.030  0.00  0.00     0.146 C 
BRANCH  32  33
ATOM     33  C   UNL d   1      29.588 -22.727   0.974  0.00  0.00     0.183 C 
BRANCH  33  34
ATOM     34  O   UNL d   1      28.893 -21.577   1.497  0.00  0.00    -0.399 OA
ATOM     35  H   UNL d   1      29.289 -20.766   1.142  0.00  0.00     0.209 HD
ENDBRANCH  33  34
ENDBRANCH  32  33
ENDBRANCH  30  32
ENDBRANCH  26  30
ENDBRANCH  19  21
ENDBRANCH   1  19
TORSDOF 11
ENDMDL
MODEL 2
REMARK VINA RESULT:    -6.985      3.248      7.766
REMARK INTER + INTRA:         -13.464
REMARK INTER:                 -10.266
REMARK INTRA:                  -3.198
REMARK CONF_INDEPENDENT:        3.281
REMARK UNBOUND:                -3.198
REMARK  11 active torsions:
REMARK  status: ('A' for Active; 'I' for Inactive)
REMARK    1  A    between atoms: C_5  and  N_6 
REMARK       I    between atoms: N_6  and  C_7 
REMARK    2  A    between atoms: C_7  and  C_9 
REMARK    3  A    between atoms: C_9  and  N_10 
REMARK    4  A    between atoms: N_10  and  C_11 
REMARK    5  A    between atoms: C_13  and  N_14 
REMARK    6  A    between atoms: C_19  and  N_20 
REMARK    7  A    between atoms: N_20  and  C_21 
REMARK    8  A    between atoms: C_21  and  C_22 
REMARK    9  A    between atoms: C_22  and  O_23 
REMARK   10  A    between atoms: C_25  and  S_26 
REMARK   11  A    between atoms: S_26  and  N_29 
ROOT
ATOM      1  C   UNL d   1      25.185 -14.535  -2.935  0.00  0.00     0.223 C 
ENDROOT
BRANCH   1   2
ATOM      2  C   UNL d   1      25.997 -15.037  -4.092  0.00  0.00     0.239 C 
ATOM      3  N   UNL d   1      27.392 -14.843  -3.907  0.00  0.00    -0.326 N 
ATOM      4  H   UNL d   1      27.741 -14.437  -3.046  0.00  0.00     0.169 HD
ATOM      5  O   UNL d   1      25.408 -15.369  -5.116  0.00  0.00    -0.271 OA
BRANCH   3   6
ATOM      6  C   UNL d   1      28.364 -15.186  -4.865  0.00  0.00     0.036 A 
ATOM      7  C   UNL d   1      28.641 -14.369  -5.961  0.00  0.00     0.030 A 
ATOM      8  C   UNL d   1      29.711 -14.701  -6.806  0.00  0.00     0.010 A 
ATOM      9  C   UNL d   1      30.487 -15.863  -6.608  0.00  0.00    -0.039 A 
ATOM     10  C   UNL d   1      31.520 -16.172  -7.645  0.00  0.00     0.050 C 
ATOM     11  C   UNL d   1      30.199 -16.661  -5.498  0.00  0.00     0.082 A 
ATOM     12  C   UNL d   1      29.127 -16.325  -4.683  0.00  0.00     0.054 A 
BRANCH  11  13
ATOM     13  S   UNL d   1      31.048 -18.107  -4.894  0.00  0.00     0.243 S 
ATOM     14  O   UNL d   1      32.446 -17.958  -5.216  0.00  0.00    -0.206 OA
ATOM     15  O   UNL d   1      30.614 -18.291  -3.514  0.00  0.00    -0.206 OA
BRANCH  13  16
ATOM     16  N   UNL d   1      30.496 -19.423  -5.809  0.00  0.00    -0.215 NA
ATOM     17  C   UNL d   1      31.305 -19.686  -7.022  0.00  0.00     0.129 C 
ATOM     18  C   UNL d   1      30.405 -20.667  -5.018  0.00  0.00     0.129 C 
ENDBRANCH  13  16
ENDBRANCH  11  13
ENDBRANCH   3   6
ENDBRANCH   1   2
BRANCH   1  19
ATOM     19  N   UNL d   1      25.521 -15.106  -1.632  0.00  0.00    -0.379 N 
ATOM     20  H   UNL d   1      26.307 -14.636  -1.171  0.00  0.00     0.160 HD
BRANCH  19  21
ATOM     21  C   UNL d   1      25.165 -16.352  -1.102  0.00  0.00     0.057 A 
ATOM     22  C   UNL d   1      23.847 -16.757  -1.462  0.00  0.00     0.067 A 
ATOM     23  C   UNL d   1      23.268 -17.933  -0.959  0.00  0.00     0.105 A 
ATOM     24  C   UNL d   1      24.015 -18.799  -0.172  0.00  0.00     0.038 A 
ATOM     25  C   UNL d   1      25.299 -18.425   0.208  0.00  0.00     0.034 A 
ATOM     26  C   UNL d   1      25.903 -17.213  -0.206  0.00  0.00     0.054 A 
BRANCH  23  27
ATOM     27  N   UNL d   1      21.841 -18.219  -1.166  0.00  0.00    -0.116 N 
ATOM     28  O   UNL d   1      21.529 -19.325  -1.628  0.00  0.00    -0.532 OA
ATOM     29  O   UNL d   1      21.030 -17.320  -0.895  0.00  0.00    -0.532 OA
ENDBRANCH  23  27
BRANCH  26  30
ATOM     30  N   UNL d   1      27.110 -16.949   0.514  0.00  0.00    -0.386 N 
ATOM     31  H   UNL d   1      27.092 -17.214   1.491  0.00  0.00     0.159 HD
BRANCH  30  32
ATOM     32  C   UNL d   1      28.315 -17.243  -0.177  0.00  0.00     0.146 C 
BRANCH  32  33
ATOM     33  C   UNL d   1      28.967 -16.352  -1.203  0.00  0.00     0.183 C 
BRANCH  33  34
ATOM     34  O   UNL d   1      28.409 -15.024  -1.123  0.00  0.00    -0.399 OA
ATOM     35  H   UNL d   1      29.119 -14.380  -0.978  0.00  0.00     0.209 HD
ENDBRANCH  33  34
ENDBRANCH  32  33
ENDBRANCH  30  32
ENDBRANCH  26  30
ENDBRANCH  19  21
ENDBRANCH   1  19
TORSDOF 11
ENDMDL
MODEL 3
REMARK VINA RESULT:    -6.823      5.307      8.692
REMARK INTER + INTRA:         -13.177
REMARK INTER:                 -10.104
REMARK INTRA:                  -3.072
REMARK CONF_INDEPENDENT:        3.281
REMARK UNBOUND:                -3.072
REMARK  11 active torsions:
REMARK  status: ('A' for Active; 'I' for Inactive)
REMARK    1  A    between atoms: C_5  and  N_6 
REMARK       I    between atoms: N_6  and  C_7 
REMARK    2  A    between atoms: C_7  and  C_9 
REMARK    3  A    between atoms: C_9  and  N_10 
REMARK    4  A    between atoms: N_10  and  C_11 
REMARK    5  A    between atoms: C_13  and  N_14 
REMARK    6  A    between atoms: C_19  and  N_20 
REMARK    7  A    between atoms: N_20  and  C_21 
REMARK    8  A    between atoms: C_21  and  C_22 
REMARK    9  A    between atoms: C_22  and  O_23 
REMARK   10  A    between atoms: C_25  and  S_26 
REMARK   11  A    between atoms: S_26  and  N_29 
ROOT
ATOM      1  C   UNL d   1      29.327 -11.423   0.154  0.00  0.00     0.223 C 
ENDROOT
BRANCH   1   2
ATOM      2  C   UNL d   1      28.312 -12.260  -0.566  0.00  0.00     0.239 C 
ATOM      3  N   UNL d   1      28.122 -13.531   0.040  0.00  0.00    -0.326 N 
ATOM      4  H   UNL d   1      28.621 -13.771   0.888  0.00  0.00     0.169 HD
ATOM      5  O   UNL d   1      27.907 -11.873  -1.658  0.00  0.00    -0.271 OA
BRANCH   3   6
ATOM      6  C   UNL d   1      27.257 -14.519  -0.468  0.00  0.00     0.036 A 
ATOM      7  C   UNL d   1      26.770 -15.554   0.329  0.00  0.00     0.030 A 
ATOM      8  C   UNL d   1      25.809 -16.428  -0.202  0.00  0.00     0.010 A 
ATOM      9  C   UNL d   1      25.355 -16.322  -1.534  0.00  0.00    -0.039 A 
ATOM     10  C   UNL d   1      24.422 -17.385  -2.018  0.00  0.00     0.050 C 
ATOM     11  C   UNL d   1      25.849 -15.271  -2.311  0.00  0.00     0.082 A 
ATOM     12  C   UNL d   1      26.810 -14.425  -1.774  0.00  0.00     0.054 A 
BRANCH  11  13
ATOM     13  S   UNL d   1      25.400 -14.780  -3.964  0.00  0.00     0.243 S 
ATOM     14  O   UNL d   1      25.532 -15.937  -4.814  0.00  0.00    -0.206 OA
ATOM     15  O   UNL d   1      24.128 -14.075  -3.851  0.00  0.00    -0.206 OA
BRANCH  13  16
ATOM     16  N   UNL d   1      26.577 -13.678  -4.489  0.00  0.00    -0.215 NA
ATOM     17  C   UNL d   1      27.419 -14.189  -5.596  0.00  0.00     0.129 C 
ATOM     18  C   UNL d   1      26.000 -12.378  -4.891  0.00  0.00     0.129 C 
ENDBRANCH  13  16
ENDBRANCH  11  13
ENDBRANCH   3   6
ENDBRANCH   1   2
BRANCH   1  19
ATOM     19  N   UNL d   1      29.402 -11.623   1.599  0.00  0.00    -0.379 N 
ATOM     20  H   UNL d   1      29.947 -12.449   1.869  0.00  0.00     0.160 HD
BRANCH  19  21
ATOM     21  C   UNL d   1      28.596 -11.075   2.605  0.00  0.00     0.057 A 
ATOM     22  C   UNL d   1      27.673 -10.106   2.114  0.00  0.00     0.067 A 
ATOM     23  C   UNL d   1      26.838  -9.375   2.974  0.00  0.00     0.105 A 
ATOM     24  C   UNL d   1      26.812  -9.658   4.333  0.00  0.00     0.038 A 
ATOM     25  C   UNL d   1      27.711 -10.589   4.843  0.00  0.00     0.034 A 
ATOM     26  C   UNL d   1      28.630 -11.298   4.032  0.00  0.00     0.054 A 
BRANCH  23  27
ATOM     27  N   UNL d   1      26.056  -8.233   2.476  0.00  0.00    -0.116 N 
ATOM     28  O   UNL d   1      26.283  -7.115   2.959  0.00  0.00    -0.532 OA
ATOM     29  O   UNL d   1      25.187  -8.463   1.621  0.00  0.00    -0.532 OA
ENDBRANCH  23  27
BRANCH  26  30
ATOM     30  N   UNL d   1      29.599 -11.997   4.816  0.00  0.00    -0.386 N 
ATOM     31  H   UNL d   1      29.745 -11.626   5.747  0.00  0.00     0.159 HD
BRANCH  30  32
ATOM     32  C   UNL d   1      29.560 -13.413   4.723  0.00  0.00     0.146 C 
BRANCH  32  33
ATOM     33  C   UNL d   1      28.753 -14.195   3.717  0.00  0.00     0.183 C 
BRANCH  33  34
ATOM     34  O   UNL d   1      29.551 -14.451   2.543  0.00  0.00    -0.399 OA
ATOM     35  H   UNL d   1      29.772 -15.394   2.498  0.00  0.00     0.209 HD
ENDBRANCH  33  34
ENDBRANCH  32  33
ENDBRANCH  30  32
ENDBRANCH  26  30
ENDBRANCH  19  21
ENDBRANCH   1  19
TORSDOF 11
ENDMDL
MODEL 4
REMARK VINA RESULT:    -6.642      3.623      7.421
REMARK INTER + INTRA:         -13.111
REMARK INTER:                  -9.923
REMARK INTRA:                  -3.188
REMARK CONF_INDEPENDENT:        3.281
REMARK UNBOUND:                -3.188
REMARK  11 active torsions:
REMARK  status: ('A' for Active; 'I' for Inactive)
REMARK    1  A    between atoms: C_5  and  N_6 
REMARK       I    between atoms: N_6  and  C_7 
REMARK    2  A    between atoms: C_7  and  C_9 
REMARK    3  A    between atoms: C_9  and  N_10 
REMARK    4  A    between atoms: N_10  and  C_11 
REMARK    5  A    between atoms: C_13  and  N_14 
REMARK    6  A    between atoms: C_19  and  N_20 
REMARK    7  A    between atoms: N_20  and  C_21 
REMARK    8  A    between atoms: C_21  and  C_22 
REMARK    9  A    between atoms: C_22  and  O_23 
REMARK   10  A    between atoms: C_25  and  S_26 
REMARK   11  A    between atoms: S_26  and  N_29 
ROOT
ATOM      1  C   UNL d   1      26.951 -17.943   0.938  0.00  0.00     0.223 C 
ENDROOT
BRANCH   1   2
ATOM      2  C   UNL d   1      27.692 -16.938   0.108  0.00  0.00     0.239 C 
ATOM      3  N   UNL d   1      28.408 -17.533  -0.965  0.00  0.00    -0.326 N 
ATOM      4  H   UNL d   1      28.352 -18.533  -1.122  0.00  0.00     0.169 HD
ATOM      5  O   UNL d   1      27.770 -15.784   0.522  0.00  0.00    -0.271 OA
BRANCH   3   6
ATOM      6  C   UNL d   1      29.218 -16.812  -1.862  0.00  0.00     0.036 A 
ATOM      7  C   UNL d   1      30.604 -16.752  -1.720  0.00  0.00     0.030 A 
ATOM      8  C   UNL d   1      31.365 -16.129  -2.720  0.00  0.00     0.010 A 
ATOM      9  C   UNL d   1      30.767 -15.518  -3.843  0.00  0.00    -0.039 A 
ATOM     10  C   UNL d   1      31.675 -14.782  -4.777  0.00  0.00     0.050 C 
ATOM     11  C   UNL d   1      29.378 -15.600  -3.970  0.00  0.00     0.082 A 
ATOM     12  C   UNL d   1      28.641 -16.207  -2.963  0.00  0.00     0.054 A 
BRANCH  11  13
ATOM     13  S   UNL d   1      28.332 -15.054  -5.306  0.00  0.00     0.243 S 
ATOM     14  O   UNL d   1      29.002 -15.370  -6.543  0.00  0.00    -0.206 OA
ATOM     15  O   UNL d   1      26.999 -15.576  -5.022  0.00  0.00    -0.206 OA
BRANCH  13  16
ATOM     16  N   UNL d   1      28.271 -13.362  -5.227  0.00  0.00    -0.215 NA
ATOM     17  C   UNL d   1      29.417 -12.694  -5.888  0.00  0.00     0.129 C 
ATOM     18  C   UNL d   1      27.016 -12.811  -5.778  0.00  0.00     0.129 C 
ENDBRANCH  13  16
ENDBRANCH  11  13
ENDBRANCH   3   6
ENDBRANCH   1   2
BRANCH   1  19
ATOM     19  N   UNL d   1      25.800 -18.570   0.293  0.00  0.00    -0.379 N 
ATOM     20  H   UNL d   1      26.016 -19.475  -0.138  0.00  0.00     0.160 HD
BRANCH  19  21
ATOM     21  C   UNL d   1      24.588 -17.988  -0.098  0.00  0.00     0.057 A 
ATOM     22  C   UNL d   1      23.496 -18.905  -0.078  0.00  0.00     0.067 A 
ATOM     23  C   UNL d   1      22.214 -18.542  -0.521  0.00  0.00     0.105 A 
ATOM     24  C   UNL d   1      21.947 -17.232  -0.894  0.00  0.00     0.038 A 
ATOM     25  C   UNL d   1      22.995 -16.318  -0.937  0.00  0.00     0.034 A 
ATOM     26  C   UNL d   1      24.323 -16.651  -0.576  0.00  0.00     0.054 A 
BRANCH  23  27
ATOM     27  N   UNL d   1      21.163 -19.555  -0.697  0.00  0.00    -0.116 N 
ATOM     28  O   UNL d   1      20.853 -20.251   0.279  0.00  0.00    -0.532 OA
ATOM     29  O   UNL d   1      20.667 -19.676  -1.829  0.00  0.00    -0.532 OA
ENDBRANCH  23  27
BRANCH  26  30
ATOM     30  N   UNL d   1      25.245 -15.622  -0.944  0.00  0.00    -0.386 N 
ATOM     31  H   UNL d   1      26.115 -15.622  -0.426  0.00  0.00     0.159 HD
BRANCH  30  32
ATOM     32  C   UNL d   1      25.363 -15.371  -2.336  0.00  0.00     0.146 C 
BRANCH  32  33
ATOM     33  C   UNL d   1      24.777 -14.184  -3.057  0.00  0.00     0.183 C 
BRANCH  33  34
ATOM     34  O   UNL d   1      24.748 -14.440  -4.477  0.00  0.00    -0.399 OA
ATOM     35  H   UNL d   1      25.633 -14.694  -4.780  0.00  0.00     0.209 HD
ENDBRANCH  33  34
ENDBRANCH  32  33
ENDBRANCH  30  32
ENDBRANCH  26  30
ENDBRANCH  19  21
ENDBRANCH   1  19
TORSDOF 11
ENDMDL
MODEL 5
REMARK VINA RESULT:    -6.380      1.175      3.655
REMARK INTER + INTRA:         -12.651
REMARK INTER:                  -9.661
REMARK INTRA:                  -2.990
REMARK CONF_INDEPENDENT:        3.281
REMARK UNBOUND:                -2.990
REMARK  11 active torsions:
REMARK  status: ('A' for Active; 'I' for Inactive)
REMARK    1  A    between atoms: C_5  and  N_6 
REMARK       I    between atoms: N_6  and  C_7 
REMARK    2  A    between atoms: C_7  and  C_9 
REMARK    3  A    between atoms: C_9  and  N_10 
REMARK    4  A    between atoms: N_10  and  C_11 
REMARK    5  A    between atoms: C_13  and  N_14 
REMARK    6  A    between atoms: C_19  and  N_20 
REMARK    7  A    between atoms: N_20  and  C_21 
REMARK    8  A    between atoms: C_21  and  C_22 
REMARK    9  A    between atoms: C_22  and  O_23 
REMARK   10  A    between atoms: C_25  and  S_26 
REMARK   11  A    between atoms: S_26  and  N_29 
ROOT
ATOM      1  C   UNL d   1      31.039 -17.682  -1.100  0.00  0.00     0.223 C 
ENDROOT
BRANCH   1   2
ATOM      2  C   UNL d   1      29.631 -17.340  -1.488  0.00  0.00     0.239 C 
ATOM      3  N   UNL d   1      28.697 -17.606  -0.451  0.00  0.00    -0.326 N 
ATOM      4  H   UNL d   1      29.017 -17.953   0.445  0.00  0.00     0.169 HD
ATOM      5  O   UNL d   1      29.402 -17.064  -2.662  0.00  0.00    -0.271 OA
BRANCH   3   6
ATOM      6  C   UNL d   1      27.309 -17.414  -0.580  0.00  0.00     0.036 A 
ATOM      7  C   UNL d   1      26.401 -17.968   0.321  0.00  0.00     0.030 A 
ATOM      8  C   UNL d   1      25.043 -17.630   0.215  0.00  0.00     0.010 A 
ATOM      9  C   UNL d   1      24.560 -16.785  -0.807  0.00  0.00    -0.039 A 
ATOM     10  C   UNL d   1      23.078 -16.598  -0.887  0.00  0.00     0.050 C 
ATOM     11  C   UNL d   1      25.490 -16.234  -1.692  0.00  0.00     0.082 A 
ATOM     12  C   UNL d   1      26.827 -16.591  -1.581  0.00  0.00     0.054 A 
BRANCH  11  13
ATOM     13  S   UNL d   1      25.239 -15.048  -3.000  0.00  0.00     0.243 S 
ATOM     14  O   UNL d   1      25.547 -15.702  -4.247  0.00  0.00    -0.206 OA
ATOM     15  O   UNL d   1      23.926 -14.456  -2.770  0.00  0.00    -0.206 OA
BRANCH  13  16
ATOM     16  N   UNL d   1      26.413 -13.841  -2.803  0.00  0.00    -0.215 NA
ATOM     17  C   UNL d   1      26.163 -12.630  -3.619  0.00  0.00     0.129 C 
ATOM     18  C   UNL d   1      26.583 -13.437  -1.392  0.00  0.00     0.129 C 
ENDBRANCH  13  16
ENDBRANCH  11  13
ENDBRANCH   3   6
ENDBRANCH   1   2
BRANCH   1  19
ATOM     19  N   UNL d   1      31.583 -18.898  -1.699  0.00  0.00    -0.379 N 
ATOM     20  H   UNL d   1      32.123 -18.726  -2.554  0.00  0.00     0.160 HD
BRANCH  19  21
ATOM     21  C   UNL d   1      31.209 -20.229  -1.479  0.00  0.00     0.057 A 
ATOM     22  C   UNL d   1      30.761 -20.470  -0.147  0.00  0.00     0.067 A 
ATOM     23  C   UNL d   1      30.427 -21.757   0.302  0.00  0.00     0.105 A 
ATOM     24  C   UNL d   1      30.419 -22.827  -0.582  0.00  0.00     0.038 A 
ATOM     25  C   UNL d   1      30.863 -22.626  -1.885  0.00  0.00     0.034 A 
ATOM     26  C   UNL d   1      31.288 -21.365  -2.368  0.00  0.00     0.054 A 
BRANCH  23  27
ATOM     27  N   UNL d   1      30.180 -22.018   1.728  0.00  0.00    -0.116 N 
ATOM     28  O   UNL d   1      31.139 -21.947   2.509  0.00  0.00    -0.532 OA
ATOM     29  O   UNL d   1      29.026 -22.330   2.063  0.00  0.00    -0.532 OA
ENDBRANCH  23  27
BRANCH  26  30
ATOM     30  N   UNL d   1      31.926 -21.473  -3.643  0.00  0.00    -0.386 N 
ATOM     31  H   UNL d   1      32.600 -22.225  -3.722  0.00  0.00     0.159 HD
BRANCH  30  32
ATOM     32  C   UNL d   1      31.083 -21.287  -4.770  0.00  0.00     0.146 C 
BRANCH  32  33
ATOM     33  C   UNL d   1      30.459 -19.978  -5.181  0.00  0.00     0.183 C 
BRANCH  33  34
ATOM     34  O   UNL d   1      31.064 -18.895  -4.444  0.00  0.00    -0.399 OA
ATOM     35  H   UNL d   1      30.439 -18.562  -3.782  0.00  0.00     0.209 HD
ENDBRANCH  33  34
ENDBRANCH  32  33
ENDBRANCH  30  32
ENDBRANCH  26  30
ENDBRANCH  19  21
ENDBRANCH   1  19
TORSDOF 11
ENDMDL
MODEL 6
REMARK VINA RESULT:    -5.824      5.188     10.590
REMARK INTER + INTRA:         -12.867
REMARK INTER:                  -9.105
REMARK INTRA:                  -3.762
REMARK CONF_INDEPENDENT:        3.281
REMARK UNBOUND:                -3.762
REMARK  11 active torsions:
REMARK  status: ('A' for Active; 'I' for Inactive)
REMARK    1  A    between atoms: C_5  and  N_6 
REMARK       I    between atoms: N_6  and  C_7 
REMARK    2  A    between atoms: C_7  and  C_9 
REMARK    3  A    between atoms: C_9  and  N_10 
REMARK    4  A    between atoms: N_10  and  C_11 
REMARK    5  A    between atoms: C_13  and  N_14 
REMARK    6  A    between atoms: C_19  and  N_20 
REMARK    7  A    between atoms: N_20  and  C_21 
REMARK    8  A    between atoms: C_21  and  C_22 
REMARK    9  A    between atoms: C_22  and  O_23 
REMARK   10  A    between atoms: C_25  and  S_26 
REMARK   11  A    between atoms: S_26  and  N_29 
ROOT
ATOM      1  C   UNL d   1      25.942  -7.539  -4.386  0.00  0.00     0.223 C 
ENDROOT
BRANCH   1   2
ATOM      2  C   UNL d   1      26.801  -8.653  -4.906  0.00  0.00     0.239 C 
ATOM      3  N   UNL d   1      26.079  -9.863  -5.086  0.00  0.00    -0.326 N 
ATOM      4  H   UNL d   1      25.083  -9.895  -4.900  0.00  0.00     0.169 HD
ATOM      5  O   UNL d   1      28.017  -8.484  -4.941  0.00  0.00    -0.271 OA
BRANCH   3   6
ATOM      6  C   UNL d   1      26.664 -11.067  -5.520  0.00  0.00     0.036 A 
ATOM      7  C   UNL d   1      27.838 -11.088  -6.273  0.00  0.00     0.030 A 
ATOM      8  C   UNL d   1      28.441 -12.322  -6.560  0.00  0.00     0.010 A 
ATOM      9  C   UNL d   1      27.870 -13.547  -6.153  0.00  0.00    -0.039 A 
ATOM     10  C   UNL d   1      28.542 -14.797  -6.625  0.00  0.00     0.050 C 
ATOM     11  C   UNL d   1      26.699 -13.501  -5.392  0.00  0.00     0.082 A 
ATOM     12  C   UNL d   1      26.109 -12.272  -5.130  0.00  0.00     0.054 A 
BRANCH  11  13
ATOM     13  S   UNL d   1      25.800 -14.833  -4.623  0.00  0.00     0.243 S 
ATOM     14  O   UNL d   1      24.501 -14.327  -4.254  0.00  0.00    -0.206 OA
ATOM     15  O   UNL d   1      25.930 -15.983  -5.511  0.00  0.00    -0.206 OA
BRANCH  13  16
ATOM     16  N   UNL d   1      26.592 -15.189  -3.167  0.00  0.00    -0.215 NA
ATOM     17  C   UNL d   1      25.923 -16.242  -2.367  0.00  0.00     0.129 C 
ATOM     18  C   UNL d   1      28.006 -15.570  -3.367  0.00  0.00     0.129 C 
ENDBRANCH  13  16
ENDBRANCH  11  13
ENDBRANCH   3   6
ENDBRANCH   1   2
BRANCH   1  19
ATOM     19  N   UNL d   1      25.284  -7.793  -3.106  0.00  0.00    -0.379 N 
ATOM     20  H   UNL d   1      24.373  -7.330  -3.017  0.00  0.00     0.160 HD
BRANCH  19  21
ATOM     21  C   UNL d   1      25.839  -8.271  -1.913  0.00  0.00     0.057 A 
ATOM     22  C   UNL d   1      25.367  -7.576  -0.760  0.00  0.00     0.067 A 
ATOM     23  C   UNL d   1      25.868  -7.843   0.524  0.00  0.00     0.105 A 
ATOM     24  C   UNL d   1      26.770  -8.880   0.722  0.00  0.00     0.038 A 
ATOM     25  C   UNL d   1      27.258  -9.567  -0.385  0.00  0.00     0.034 A 
ATOM     26  C   UNL d   1      26.847  -9.286  -1.710  0.00  0.00     0.054 A 
BRANCH  23  27
ATOM     27  N   UNL d   1      25.532  -6.973   1.660  0.00  0.00    -0.116 N 
ATOM     28  O   UNL d   1      25.942  -7.295   2.784  0.00  0.00    -0.532 OA
ATOM     29  O   UNL d   1      24.826  -5.979   1.432  0.00  0.00    -0.532 OA
ENDBRANCH  23  27
BRANCH  26  30
ATOM     30  N   UNL d   1      27.671  -9.947  -2.673  0.00  0.00    -0.386 N 
ATOM     31  H   UNL d   1      28.449  -9.399  -3.019  0.00  0.00     0.159 HD
BRANCH  30  32
ATOM     32  C   UNL d   1      27.957 -11.312  -2.403  0.00  0.00     0.146 C 
BRANCH  32  33
ATOM     33  C   UNL d   1      27.038 -12.266  -1.684  0.00  0.00     0.183 C 
BRANCH  33  34
ATOM     34  O   UNL d   1      25.789 -12.373  -2.399  0.00  0.00    -0.399 OA
ATOM     35  H   UNL d   1      25.689 -13.272  -2.748  0.00  0.00     0.209 HD
ENDBRANCH  33  34
ENDBRANCH  32  33
ENDBRANCH  30  32
ENDBRANCH  26  30
ENDBRANCH  19  21
ENDBRANCH   1  19
TORSDOF 11
ENDMDL
MODEL 7
REMARK VINA RESULT:    -5.607      2.285      3.504
REMARK INTER + INTRA:         -12.965
REMARK INTER:                  -8.888
REMARK INTRA:                  -4.077
REMARK CONF_INDEPENDENT:        3.281
REMARK UNBOUND:                -4.077
REMARK  11 active torsions:
REMARK  status: ('A' for Active; 'I' for Inactive)
REMARK    1  A    between atoms: C_5  and  N_6 
REMARK       I    between atoms: N_6  and  C_7 
REMARK    2  A    between atoms: C_7  and  C_9 
REMARK    3  A    between atoms: C_9  and  N_10 
REMARK    4  A    between atoms: N_10  and  C_11 
REMARK    5  A    between atoms: C_13  and  N_14 
REMARK    6  A    between atoms: C_19  and  N_20 
REMARK    7  A    between atoms: N_20  and  C_21 
REMARK    8  A    between atoms: C_21  and  C_22 
REMARK    9  A    between atoms: C_22  and  O_23 
REMARK   10  A    between atoms: C_25  and  S_26 
REMARK   11  A    between atoms: S_26  and  N_29 
ROOT
ATOM      1  C   UNL d   1      31.242 -17.047  -0.752  0.00  0.00     0.223 C 
ENDROOT
BRANCH   1   2
ATOM      2  C   UNL d   1      29.822 -16.598  -0.921  0.00  0.00     0.239 C 
ATOM      3  N   UNL d   1      28.883 -17.589  -0.526  0.00  0.00    -0.326 N 
ATOM      4  H   UNL d   1      29.204 -18.470  -0.143  0.00  0.00     0.169 HD
ATOM      5  O   UNL d   1      29.609 -15.554  -1.532  0.00  0.00    -0.271 OA
BRANCH   3   6
ATOM      6  C   UNL d   1      27.489 -17.432  -0.629  0.00  0.00     0.036 A 
ATOM      7  C   UNL d   1      26.614 -17.973   0.312  0.00  0.00     0.030 A 
ATOM      8  C   UNL d   1      25.247 -17.669   0.226  0.00  0.00     0.010 A 
ATOM      9  C   UNL d   1      24.722 -16.870  -0.812  0.00  0.00    -0.039 A 
ATOM     10  C   UNL d   1      23.235 -16.719  -0.864  0.00  0.00     0.050 C 
ATOM     11  C   UNL d   1      25.618 -16.330  -1.738  0.00  0.00     0.082 A 
ATOM     12  C   UNL d   1      26.965 -16.654  -1.646  0.00  0.00     0.054 A 
BRANCH  11  13
ATOM     13  S   UNL d   1      25.312 -15.196  -3.078  0.00  0.00     0.243 S 
ATOM     14  O   UNL d   1      25.527 -15.910  -4.312  0.00  0.00    -0.206 OA
ATOM     15  O   UNL d   1      24.029 -14.562  -2.794  0.00  0.00    -0.206 OA
BRANCH  13  16
ATOM     16  N   UNL d   1      26.521 -14.010  -3.009  0.00  0.00    -0.215 NA
ATOM     17  C   UNL d   1      26.317 -12.895  -3.963  0.00  0.00     0.129 C 
ATOM     18  C   UNL d   1      26.691 -13.450  -1.651  0.00  0.00     0.129 C 
ENDBRANCH  13  16
ENDBRANCH  11  13
ENDBRANCH   3   6
ENDBRANCH   1   2
BRANCH   1  19
ATOM     19  N   UNL d   1      31.929 -17.448  -1.978  0.00  0.00    -0.379 N 
ATOM     20  H   UNL d   1      32.797 -16.929  -2.148  0.00  0.00     0.160 HD
BRANCH  19  21
ATOM     21  C   UNL d   1      31.427 -18.162  -3.073  0.00  0.00     0.057 A 
ATOM     22  C   UNL d   1      32.148 -19.364  -3.334  0.00  0.00     0.067 A 
ATOM     23  C   UNL d   1      31.859 -20.176  -4.442  0.00  0.00     0.105 A 
ATOM     24  C   UNL d   1      30.778 -19.883  -5.262  0.00  0.00     0.038 A 
ATOM     25  C   UNL d   1      30.064 -18.710  -5.040  0.00  0.00     0.034 A 
ATOM     26  C   UNL d   1      30.362 -17.814  -3.986  0.00  0.00     0.054 A 
BRANCH  23  27
ATOM     27  N   UNL d   1      32.749 -21.285  -4.816  0.00  0.00    -0.116 N 
ATOM     28  O   UNL d   1      32.365 -22.442  -4.594  0.00  0.00    -0.532 OA
ATOM     29  O   UNL d   1      33.852 -20.996  -5.305  0.00  0.00    -0.532 OA
ENDBRANCH  23  27
BRANCH  26  30
ATOM     30  N   UNL d   1      29.656 -16.578  -4.124  0.00  0.00    -0.386 N 
ATOM     31  H   UNL d   1      29.606 -16.017  -3.283  0.00  0.00     0.159 HD
BRANCH  30  32
ATOM     32  C   UNL d   1      29.905 -15.861  -5.324  0.00  0.00     0.146 C 
BRANCH  32  33
ATOM     33  C   UNL d   1      28.943 -14.901  -5.977  0.00  0.00     0.183 C 
BRANCH  33  34
ATOM     34  O   UNL d   1      27.594 -15.204  -5.565  0.00  0.00    -0.399 OA
ATOM     35  H   UNL d   1      27.514 -15.096  -4.605  0.00  0.00     0.209 HD
ENDBRANCH  33  34
ENDBRANCH  32  33
ENDBRANCH  30  32
ENDBRANCH  26  30
ENDBRANCH  19  21
ENDBRANCH   1  19
TORSDOF 11
ENDMDL
MODEL 8
REMARK VINA RESULT:    -5.083      5.435     10.222
REMARK INTER + INTRA:         -12.677
REMARK INTER:                  -8.365
REMARK INTRA:                  -4.313
REMARK CONF_INDEPENDENT:        3.281
REMARK UNBOUND:                -4.313
REMARK  11 active torsions:
REMARK  status: ('A' for Active; 'I' for Inactive)
REMARK    1  A    between atoms: C_5  and  N_6 
REMARK       I    between atoms: N_6  and  C_7 
REMARK    2  A    between atoms: C_7  and  C_9 
REMARK    3  A    between atoms: C_9  and  N_10 
REMARK    4  A    between atoms: N_10  and  C_11 
REMARK    5  A    between atoms: C_13  and  N_14 
REMARK    6  A    between atoms: C_19  and  N_20 
REMARK    7  A    between atoms: N_20  and  C_21 
REMARK    8  A    between atoms: C_21  and  C_22 
REMARK    9  A    between atoms: C_22  and  O_23 
REMARK   10  A    between atoms: C_25  and  S_26 
REMARK   11  A    between atoms: S_26  and  N_29 
ROOT
ATOM      1  C   UNL d   1      29.872  -9.537  -1.687  0.00  0.00     0.223 C 
ENDROOT
BRANCH   1   2
ATOM      2  C   UNL d   1      28.923 -10.591  -2.174  0.00  0.00     0.239 C 
ATOM      3  N   UNL d   1      28.697 -11.611  -1.211  0.00  0.00    -0.326 N 
ATOM      4  H   UNL d   1      29.130 -11.554  -0.297  0.00  0.00     0.169 HD
ATOM      5  O   UNL d   1      28.601 -10.583  -3.359  0.00  0.00    -0.271 OA
BRANCH   3   6
ATOM      6  C   UNL d   1      27.883 -12.736  -1.439  0.00  0.00     0.036 A 
ATOM      7  C   UNL d   1      27.312 -13.459  -0.392  0.00  0.00     0.030 A 
ATOM      8  C   UNL d   1      26.405 -14.487  -0.690  0.00  0.00     0.010 A 
ATOM      9  C   UNL d   1      26.090 -14.847  -2.017  0.00  0.00    -0.039 A 
ATOM     10  C   UNL d   1      25.205 -16.038  -2.204  0.00  0.00     0.050 C 
ATOM     11  C   UNL d   1      26.666 -14.103  -3.050  0.00  0.00     0.082 A 
ATOM     12  C   UNL d   1      27.572 -13.099  -2.737  0.00  0.00     0.054 A 
BRANCH  11  13
ATOM     13  S   UNL d   1      26.391 -14.208  -4.807  0.00  0.00     0.243 S 
ATOM     14  O   UNL d   1      25.155 -14.921  -5.014  0.00  0.00    -0.206 OA
ATOM     15  O   UNL d   1      26.573 -12.859  -5.333  0.00  0.00    -0.206 OA
BRANCH  13  16
ATOM     16  N   UNL d   1      27.612 -15.198  -5.441  0.00  0.00    -0.215 NA
ATOM     17  C   UNL d   1      28.408 -14.551  -6.510  0.00  0.00     0.129 C 
ATOM     18  C   UNL d   1      28.534 -15.701  -4.400  0.00  0.00     0.129 C 
ENDBRANCH  13  16
ENDBRANCH  11  13
ENDBRANCH   3   6
ENDBRANCH   1   2
BRANCH   1  19
ATOM     19  N   UNL d   1      29.252  -8.341  -1.120  0.00  0.00    -0.379 N 
ATOM     20  H   UNL d   1      29.917  -7.724  -0.642  0.00  0.00     0.160 HD
BRANCH  19  21
ATOM     21  C   UNL d   1      27.900  -8.095  -0.853  0.00  0.00     0.057 A 
ATOM     22  C   UNL d   1      27.616  -7.988   0.540  0.00  0.00     0.067 A 
ATOM     23  C   UNL d   1      26.306  -7.832   1.021  0.00  0.00     0.105 A 
ATOM     24  C   UNL d   1      25.250  -7.666   0.135  0.00  0.00     0.038 A 
ATOM     25  C   UNL d   1      25.494  -7.779  -1.230  0.00  0.00     0.034 A 
ATOM     26  C   UNL d   1      26.783  -8.016  -1.766  0.00  0.00     0.054 A 
BRANCH  23  27
ATOM     27  N   UNL d   1      26.012  -7.943   2.457  0.00  0.00    -0.116 N 
ATOM     28  O   UNL d   1      26.280  -6.977   3.184  0.00  0.00    -0.532 OA
ATOM     29  O   UNL d   1      25.540  -9.016   2.865  0.00  0.00    -0.532 OA
ENDBRANCH  23  27
BRANCH  26  30
ATOM     30  N   UNL d   1      26.727  -8.338  -3.158  0.00  0.00    -0.386 N 
ATOM     31  H   UNL d   1      27.605  -8.636  -3.564  0.00  0.00     0.159 HD
BRANCH  30  32
ATOM     32  C   UNL d   1      25.583  -9.069  -3.574  0.00  0.00     0.146 C 
BRANCH  32  33
ATOM     33  C   UNL d   1      25.531 -10.004  -4.756  0.00  0.00     0.183 C 
BRANCH  33  34
ATOM     34  O   UNL d   1      26.857 -10.183  -5.295  0.00  0.00    -0.399 OA
ATOM     35  H   UNL d   1      27.269 -10.964  -4.895  0.00  0.00     0.209 HD
ENDBRANCH  33  34
ENDBRANCH  32  33
ENDBRANCH  30  32
ENDBRANCH  26  30
ENDBRANCH  19  21
ENDBRANCH   1  19
TORSDOF 11
ENDMDL
MODEL 9
REMARK VINA RESULT:    -4.772      5.081      8.533
REMARK INTER + INTRA:         -12.489
REMARK INTER:                  -8.053
REMARK INTRA:                  -4.436
REMARK CONF_INDEPENDENT:        3.281
REMARK UNBOUND:                -4.436
REMARK  11 active torsions:
REMARK  status: ('A' for Active; 'I' for Inactive)
REMARK    1  A    between atoms: C_5  and  N_6 
REMARK       I    between atoms: N_6  and  C_7 
REMARK    2  A    between atoms: C_7  and  C_9 
REMARK    3  A    between atoms: C_9  and  N_10 
REMARK    4  A    between atoms: N_10  and  C_11 
REMARK    5  A    between atoms: C_13  and  N_14 
REMARK    6  A    between atoms: C_19  and  N_20 
REMARK    7  A    between atoms: N_20  and  C_21 
REMARK    8  A    between atoms: C_21  and  C_22 
REMARK    9  A    between atoms: C_22  and  O_23 
REMARK   10  A    between atoms: C_25  and  S_26 
REMARK   11  A    between atoms: S_26  and  N_29 
ROOT
ATOM      1  C   UNL d   1      29.804 -12.651   1.871  0.00  0.00     0.223 C 
ENDROOT
BRANCH   1   2
ATOM      2  C   UNL d   1      28.672 -13.551   1.475  0.00  0.00     0.239 C 
ATOM      3  N   UNL d   1      28.807 -14.053   0.153  0.00  0.00    -0.326 N 
ATOM      4  H   UNL d   1      29.624 -13.820  -0.399  0.00  0.00     0.169 HD
ATOM      5  O   UNL d   1      27.691 -13.612   2.212  0.00  0.00    -0.271 OA
BRANCH   3   6
ATOM      6  C   UNL d   1      27.856 -14.881  -0.472  0.00  0.00     0.036 A 
ATOM      7  C   UNL d   1      27.191 -15.893   0.220  0.00  0.00     0.030 A 
ATOM      8  C   UNL d   1      26.160 -16.594  -0.424  0.00  0.00     0.010 A 
ATOM      9  C   UNL d   1      25.809 -16.341  -1.767  0.00  0.00    -0.039 A 
ATOM     10  C   UNL d   1      24.778 -17.238  -2.378  0.00  0.00     0.050 C 
ATOM     11  C   UNL d   1      26.482 -15.317  -2.437  0.00  0.00     0.082 A 
ATOM     12  C   UNL d   1      27.508 -14.643  -1.789  0.00  0.00     0.054 A 
BRANCH  11  13
ATOM     13  S   UNL d   1      26.205 -14.663  -4.072  0.00  0.00     0.243 S 
ATOM     14  O   UNL d   1      27.194 -15.242  -4.947  0.00  0.00    -0.206 OA
ATOM     15  O   UNL d   1      24.780 -14.824  -4.342  0.00  0.00    -0.206 OA
BRANCH  13  16
ATOM     16  N   UNL d   1      26.553 -13.005  -4.007  0.00  0.00    -0.215 NA
ATOM     17  C   UNL d   1      26.661 -12.367  -5.340  0.00  0.00     0.129 C 
ATOM     18  C   UNL d   1      25.574 -12.250  -3.196  0.00  0.00     0.129 C 
ENDBRANCH  13  16
ENDBRANCH  11  13
ENDBRANCH   3   6
ENDBRANCH   1   2
BRANCH   1  19
ATOM     19  N   UNL d   1      29.869 -11.371   1.170  0.00  0.00    -0.379 N 
ATOM     20  H   UNL d   1      30.699 -10.817   1.408  0.00  0.00     0.160 HD
BRANCH  19  21
ATOM     21  C   UNL d   1      28.847 -10.675   0.514  0.00  0.00     0.057 A 
ATOM     22  C   UNL d   1      28.199  -9.716   1.347  0.00  0.00     0.067 A 
ATOM     23  C   UNL d   1      27.089  -8.979   0.905  0.00  0.00     0.105 A 
ATOM     24  C   UNL d   1      26.655  -9.087  -0.408  0.00  0.00     0.038 A 
ATOM     25  C   UNL d   1      27.258 -10.024  -1.241  0.00  0.00     0.034 A 
ATOM     26  C   UNL d   1      28.329 -10.850  -0.824  0.00  0.00     0.054 A 
BRANCH  23  27
ATOM     27  N   UNL d   1      26.306  -8.162   1.843  0.00  0.00    -0.116 N 
ATOM     28  O   UNL d   1      25.321  -7.552   1.404  0.00  0.00    -0.532 OA
ATOM     29  O   UNL d   1      26.698  -8.103   3.019  0.00  0.00    -0.532 OA
ENDBRANCH  23  27
BRANCH  26  30
ATOM     30  N   UNL d   1      28.598 -11.887  -1.770  0.00  0.00    -0.386 N 
ATOM     31  H   UNL d   1      27.778 -12.305  -2.192  0.00  0.00     0.159 HD
BRANCH  30  32
ATOM     32  C   UNL d   1      29.684 -11.646  -2.653  0.00  0.00     0.146 C 
BRANCH  32  33
ATOM     33  C   UNL d   1      30.121 -12.567  -3.764  0.00  0.00     0.183 C 
BRANCH  33  34
ATOM     34  O   UNL d   1      29.253 -13.718  -3.815  0.00  0.00    -0.399 OA
ATOM     35  H   UNL d   1      28.596 -13.600  -4.518  0.00  0.00     0.209 HD
ENDBRANCH  33  34
ENDBRANCH  32  33
ENDBRANCH  30  32
ENDBRANCH  26  30
ENDBRANCH  19  21
ENDBRANCH   1  19
TORSDOF 11
ENDMDL
