MODEL 1
REMARK VINA RESULT:    -9.194      0.000      0.000
REMARK INTER + INTRA:         -11.235
REMARK INTER:                 -10.089
REMARK INTRA:                  -1.147
REMARK CONF_INDEPENDENT:        0.895
REMARK UNBOUND:                -1.147
REMARK  3 active torsions:
REMARK  status: ('A' for Active; 'I' for Inactive)
REMARK       I    between atoms: C_2  and  N_3 
REMARK    1  A    between atoms: C_2  and  C_14 
REMARK    2  A    between atoms: N_3  and  N_4 
REMARK       I    between atoms: N_4  and  C_5 
REMARK    3  A    between atoms: C_5  and  C_7 
ROOT
ATOM      1  O   UNL d   1      24.983 -18.575   0.527  0.00  0.00    -0.266 OA
ATOM      2  C   UNL d   1      24.556 -17.905  -0.413  0.00  0.00     0.270 C 
ATOM      3  N   UNL d   1      23.214 -17.901  -0.790  0.00  0.00    -0.263 N 
ATOM      4  H   UNL d   1      22.871 -17.446  -1.634  0.00  0.00     0.190 HD
ENDROOT
BRANCH   3   5
ATOM      5  N   UNL d   1      22.261 -18.686  -0.075  0.00  0.00    -0.263 N 
ATOM      6  C   UNL d   1      20.909 -18.575  -0.387  0.00  0.00     0.273 C 
ATOM      7  O   UNL d   1      20.485 -17.829  -1.270  0.00  0.00    -0.266 OA
ATOM      8  H   UNL d   1      22.632 -19.341   0.612  0.00  0.00     0.190 HD
BRANCH   6   9
ATOM      9  C   UNL d   1      19.955 -19.454   0.350  0.00  0.00     0.072 A 
ATOM     10  C   UNL d   1      18.936 -20.116  -0.356  0.00  0.00     0.020 A 
ATOM     11  C   UNL d   1      18.061 -20.993   0.307  0.00  0.00     0.001 A 
ATOM     12  C   UNL d   1      18.170 -21.184   1.683  0.00  0.00     0.003 A 
ATOM     13  C   UNL d   1      19.139 -20.480   2.400  0.00  0.00     0.043 A 
ATOM     14  C   UNL d   1      20.023 -19.623   1.732  0.00  0.00     0.132 A 
ATOM     15  F   UNL d   1      20.925 -18.951   2.460  0.00  0.00    -0.205 F 
ENDBRANCH   6   9
ENDBRANCH   3   5
BRANCH   2  16
ATOM     16  C   UNL d   1      25.496 -17.060  -1.236  0.00  0.00     0.034 A 
ATOM     17  C   UNL d   1      26.874 -17.016  -0.920  0.00  0.00     0.017 A 
ATOM     18  C   UNL d   1      27.782 -16.272  -1.703  0.00  0.00     0.009 A 
ATOM     19  C   UNL d   1      27.298 -15.574  -2.798  0.00  0.00    -0.052 A 
ATOM     20  C   UNL d   1      25.928 -15.571  -3.084  0.00  0.00    -0.051 A 
ATOM     21  C   UNL d   1      28.056 -14.735  -3.789  0.00  0.00     0.039 C 
ATOM     22  C   UNL d   1      25.019 -16.291  -2.308  0.00  0.00     0.024 A 
ATOM     23  C   UNL d   1      25.648 -14.700  -4.274  0.00  0.00     0.039 C 
ATOM     24  C   UNL d   1      27.034 -14.638  -4.934  0.00  0.00     0.009 C 
ENDBRANCH   2  16
TORSDOF 3
ENDMDL
MODEL 2
REMARK VINA RESULT:    -8.124      1.341      2.353
REMARK INTER + INTRA:          -9.998
REMARK INTER:                  -9.019
REMARK INTRA:                  -0.979
REMARK CONF_INDEPENDENT:        0.895
REMARK UNBOUND:                -0.979
REMARK  3 active torsions:
REMARK  status: ('A' for Active; 'I' for Inactive)
REMARK       I    between atoms: C_2  and  N_3 
REMARK    1  A    between atoms: C_2  and  C_14 
REMARK    2  A    between atoms: N_3  and  N_4 
REMARK       I    between atoms: N_4  and  C_5 
REMARK    3  A    between atoms: C_5  and  C_7 
ROOT
ATOM      1  O   UNL d   1      25.329 -18.572   0.694  0.00  0.00    -0.266 OA
ATOM      2  C   UNL d   1      24.999 -17.953  -0.318  0.00  0.00     0.270 C 
ATOM      3  N   UNL d   1      23.710 -18.000  -0.847  0.00  0.00    -0.263 N 
ATOM      4  H   UNL d   1      23.459 -17.589  -1.744  0.00  0.00     0.190 HD
ENDROOT
BRANCH   3   5
ATOM      5  N   UNL d   1      22.698 -18.781  -0.213  0.00  0.00    -0.263 N 
ATOM      6  C   UNL d   1      21.358 -18.483  -0.443  0.00  0.00     0.273 C 
ATOM      7  O   UNL d   1      20.993 -17.572  -1.186  0.00  0.00    -0.266 OA
ATOM      8  H   UNL d   1      23.015 -19.567   0.353  0.00  0.00     0.190 HD
BRANCH   6   9
ATOM      9  C   UNL d   1      20.335 -19.359   0.198  0.00  0.00     0.072 A 
ATOM     10  C   UNL d   1      20.448 -19.674   1.563  0.00  0.00     0.020 A 
ATOM     11  C   UNL d   1      19.467 -20.450   2.201  0.00  0.00     0.001 A 
ATOM     12  C   UNL d   1      18.388 -20.952   1.475  0.00  0.00     0.003 A 
ATOM     13  C   UNL d   1      18.305 -20.697   0.105  0.00  0.00     0.043 A 
ATOM     14  C   UNL d   1      19.274 -19.904  -0.524  0.00  0.00     0.132 A 
ATOM     15  F   UNL d   1      19.168 -19.700  -1.843  0.00  0.00    -0.205 F 
ENDBRANCH   6   9
ENDBRANCH   3   5
BRANCH   2  16
ATOM     16  C   UNL d   1      26.010 -17.117  -1.064  0.00  0.00     0.034 A 
ATOM     17  C   UNL d   1      25.592 -16.268  -2.116  0.00  0.00     0.017 A 
ATOM     18  C   UNL d   1      26.509 -15.441  -2.797  0.00  0.00     0.009 A 
ATOM     19  C   UNL d   1      27.842 -15.475  -2.420  0.00  0.00    -0.052 A 
ATOM     20  C   UNL d   1      28.270 -16.351  -1.417  0.00  0.00    -0.051 A 
ATOM     21  C   UNL d   1      28.996 -14.684  -2.970  0.00  0.00     0.039 C 
ATOM     22  C   UNL d   1      27.375 -17.185  -0.746  0.00  0.00     0.024 A 
ATOM     23  C   UNL d   1      29.755 -16.246  -1.232  0.00  0.00     0.039 C 
ATOM     24  C   UNL d   1      30.038 -14.869  -1.853  0.00  0.00     0.009 C 
ENDBRANCH   2  16
TORSDOF 3
ENDMDL
MODEL 3
REMARK VINA RESULT:    -7.771      2.608      8.491
REMARK INTER + INTRA:          -9.234
REMARK INTER:                  -8.666
REMARK INTRA:                  -0.568
REMARK CONF_INDEPENDENT:        0.895
REMARK UNBOUND:                -0.568
REMARK  3 active torsions:
REMARK  status: ('A' for Active; 'I' for Inactive)
REMARK       I    between atoms: C_2  and  N_3 
REMARK    1  A    between atoms: C_2  and  C_14 
REMARK    2  A    between atoms: N_3  and  N_4 
REMARK       I    between atoms: N_4  and  C_5 
REMARK    3  A    between atoms: C_5  and  C_7 
ROOT
ATOM      1  O   UNL d   1      22.939 -16.636  -0.206  0.00  0.00    -0.266 OA
ATOM      2  C   UNL d   1      22.907 -17.839   0.048  0.00  0.00     0.270 C 
ATOM      3  N   UNL d   1      24.050 -18.579   0.348  0.00  0.00    -0.263 N 
ATOM      4  H   UNL d   1      24.051 -19.593   0.443  0.00  0.00     0.190 HD
ENDROOT
BRANCH   3   5
ATOM      5  N   UNL d   1      25.330 -17.949   0.380  0.00  0.00    -0.263 N 
ATOM      6  C   UNL d   1      25.837 -17.367  -0.778  0.00  0.00     0.273 C 
ATOM      7  O   UNL d   1      25.223 -17.356  -1.845  0.00  0.00    -0.266 OA
ATOM      8  H   UNL d   1      25.799 -17.916   1.284  0.00  0.00     0.190 HD
BRANCH   6   9
ATOM      9  C   UNL d   1      27.154 -16.673  -0.683  0.00  0.00     0.072 A 
ATOM     10  C   UNL d   1      28.340 -17.422  -0.771  0.00  0.00     0.020 A 
ATOM     11  C   UNL d   1      29.591 -16.784  -0.741  0.00  0.00     0.001 A 
ATOM     12  C   UNL d   1      29.670 -15.402  -0.583  0.00  0.00     0.003 A 
ATOM     13  C   UNL d   1      28.497 -14.660  -0.431  0.00  0.00     0.043 A 
ATOM     14  C   UNL d   1      27.251 -15.296  -0.483  0.00  0.00     0.132 A 
ATOM     15  F   UNL d   1      26.151 -14.551  -0.312  0.00  0.00    -0.205 F 
ENDBRANCH   6   9
ENDBRANCH   3   5
BRANCH   2  16
ATOM     16  C   UNL d   1      21.600 -18.591   0.018  0.00  0.00     0.034 A 
ATOM     17  C   UNL d   1      20.923 -18.792  -1.208  0.00  0.00     0.017 A 
ATOM     18  C   UNL d   1      19.724 -19.533  -1.271  0.00  0.00     0.009 A 
ATOM     19  C   UNL d   1      19.209 -20.064  -0.099  0.00  0.00    -0.052 A 
ATOM     20  C   UNL d   1      19.845 -19.823   1.124  0.00  0.00    -0.051 A 
ATOM     21  C   UNL d   1      17.974 -20.897   0.093  0.00  0.00     0.039 C 
ATOM     22  C   UNL d   1      21.023 -19.080   1.200  0.00  0.00     0.024 A 
ATOM     23  C   UNL d   1      19.068 -20.448   2.246  0.00  0.00     0.039 C 
ATOM     24  C   UNL d   1      18.233 -21.492   1.487  0.00  0.00     0.009 C 
ENDBRANCH   2  16
TORSDOF 3
ENDMDL
MODEL 4
REMARK VINA RESULT:    -7.290      2.752      8.714
REMARK INTER + INTRA:          -9.327
REMARK INTER:                  -8.185
REMARK INTRA:                  -1.142
REMARK CONF_INDEPENDENT:        0.895
REMARK UNBOUND:                -1.142
REMARK  3 active torsions:
REMARK  status: ('A' for Active; 'I' for Inactive)
REMARK       I    between atoms: C_2  and  N_3 
REMARK    1  A    between atoms: C_2  and  C_14 
REMARK    2  A    between atoms: N_3  and  N_4 
REMARK       I    between atoms: N_4  and  C_5 
REMARK    3  A    between atoms: C_5  and  C_7 
ROOT
ATOM      1  O   UNL d   1      24.169 -18.220   0.776  0.00  0.00    -0.266 OA
ATOM      2  C   UNL d   1      23.317 -17.943  -0.068  0.00  0.00     0.270 C 
ATOM      3  N   UNL d   1      23.516 -16.978  -1.054  0.00  0.00    -0.263 N 
ATOM      4  H   UNL d   1      22.780 -16.659  -1.681  0.00  0.00     0.190 HD
ENDROOT
BRANCH   3   5
ATOM      5  N   UNL d   1      24.750 -16.266  -1.128  0.00  0.00    -0.263 N 
ATOM      6  C   UNL d   1      24.880 -15.212  -2.028  0.00  0.00     0.273 C 
ATOM      7  O   UNL d   1      23.967 -14.849  -2.770  0.00  0.00    -0.266 OA
ATOM      8  H   UNL d   1      25.476 -16.541  -0.468  0.00  0.00     0.190 HD
BRANCH   6   9
ATOM      9  C   UNL d   1      26.170 -14.462  -2.033  0.00  0.00     0.072 A 
ATOM     10  C   UNL d   1      26.789 -14.138  -0.814  0.00  0.00     0.020 A 
ATOM     11  C   UNL d   1      28.030 -13.482  -0.795  0.00  0.00     0.001 A 
ATOM     12  C   UNL d   1      28.644 -13.108  -1.989  0.00  0.00     0.003 A 
ATOM     13  C   UNL d   1      28.003 -13.369  -3.201  0.00  0.00     0.043 A 
ATOM     14  C   UNL d   1      26.776 -14.043  -3.217  0.00  0.00     0.132 A 
ATOM     15  F   UNL d   1      26.185 -14.256  -4.400  0.00  0.00    -0.205 F 
ENDBRANCH   6   9
ENDBRANCH   3   5
BRANCH   2  16
ATOM     16  C   UNL d   1      21.976 -18.633  -0.054  0.00  0.00     0.034 A 
ATOM     17  C   UNL d   1      21.326 -18.950  -1.270  0.00  0.00     0.017 A 
ATOM     18  C   UNL d   1      20.095 -19.638  -1.285  0.00  0.00     0.009 A 
ATOM     19  C   UNL d   1      19.521 -20.000  -0.078  0.00  0.00    -0.052 A 
ATOM     20  C   UNL d   1      20.132 -19.643   1.130  0.00  0.00    -0.051 A 
ATOM     21  C   UNL d   1      18.241 -20.748   0.170  0.00  0.00     0.039 C 
ATOM     22  C   UNL d   1      21.343 -18.950   1.158  0.00  0.00     0.024 A 
ATOM     23  C   UNL d   1      19.294 -20.093   2.290  0.00  0.00     0.039 C 
ATOM     24  C   UNL d   1      18.431 -21.182   1.633  0.00  0.00     0.009 C 
ENDBRANCH   2  16
TORSDOF 3
ENDMDL
MODEL 5
REMARK VINA RESULT:    -6.881      5.719      9.800
REMARK INTER + INTRA:          -8.950
REMARK INTER:                  -7.776
REMARK INTRA:                  -1.174
REMARK CONF_INDEPENDENT:        0.895
REMARK UNBOUND:                -1.174
REMARK  3 active torsions:
REMARK  status: ('A' for Active; 'I' for Inactive)
REMARK       I    between atoms: C_2  and  N_3 
REMARK    1  A    between atoms: C_2  and  C_14 
REMARK    2  A    between atoms: N_3  and  N_4 
REMARK       I    between atoms: N_4  and  C_5 
REMARK    3  A    between atoms: C_5  and  C_7 
ROOT
ATOM      1  O   UNL d   1      24.750 -14.075  -4.644  0.00  0.00    -0.266 OA
ATOM      2  C   UNL d   1      25.238 -13.854  -3.536  0.00  0.00     0.270 C 
ATOM      3  N   UNL d   1      25.523 -12.569  -3.079  0.00  0.00    -0.263 N 
ATOM      4  H   UNL d   1      26.034 -12.382  -2.217  0.00  0.00     0.190 HD
ENDROOT
BRANCH   3   5
ATOM      5  N   UNL d   1      25.243 -11.433  -3.896  0.00  0.00    -0.263 N 
ATOM      6  C   UNL d   1      25.661 -10.171  -3.482  0.00  0.00     0.273 C 
ATOM      7  O   UNL d   1      26.281  -9.982  -2.436  0.00  0.00    -0.266 OA
ATOM      8  H   UNL d   1      24.781 -11.614  -4.786  0.00  0.00     0.190 HD
BRANCH   6   9
ATOM      9  C   UNL d   1      25.393  -9.021  -4.394  0.00  0.00     0.072 A 
ATOM     10  C   UNL d   1      25.156  -7.747  -3.851  0.00  0.00     0.020 A 
ATOM     11  C   UNL d   1      24.958  -6.638  -4.691  0.00  0.00     0.001 A 
ATOM     12  C   UNL d   1      24.954  -6.800  -6.075  0.00  0.00     0.003 A 
ATOM     13  C   UNL d   1      25.124  -8.074  -6.619  0.00  0.00     0.043 A 
ATOM     14  C   UNL d   1      25.343  -9.173  -5.779  0.00  0.00     0.132 A 
ATOM     15  F   UNL d   1      25.482 -10.382  -6.340  0.00  0.00    -0.205 F 
ENDBRANCH   6   9
ENDBRANCH   3   5
BRANCH   2  16
ATOM     16  C   UNL d   1      25.585 -14.996  -2.614  0.00  0.00     0.034 A 
ATOM     17  C   UNL d   1      26.939 -15.304  -2.341  0.00  0.00     0.017 A 
ATOM     18  C   UNL d   1      27.289 -16.335  -1.445  0.00  0.00     0.009 A 
ATOM     19  C   UNL d   1      26.277 -17.055  -0.831  0.00  0.00    -0.052 A 
ATOM     20  C   UNL d   1      24.937 -16.791  -1.138  0.00  0.00    -0.051 A 
ATOM     21  C   UNL d   1      26.389 -18.174   0.166  0.00  0.00     0.039 C 
ATOM     22  C   UNL d   1      24.579 -15.783  -2.034  0.00  0.00     0.024 A 
ATOM     23  C   UNL d   1      24.038 -17.736  -0.396  0.00  0.00     0.039 C 
ATOM     24  C   UNL d   1      24.962 -18.200   0.740  0.00  0.00     0.009 C 
ENDBRANCH   2  16
TORSDOF 3
ENDMDL
MODEL 6
REMARK VINA RESULT:    -6.663      5.466      9.706
REMARK INTER + INTRA:          -8.736
REMARK INTER:                  -7.558
REMARK INTRA:                  -1.178
REMARK CONF_INDEPENDENT:        0.895
REMARK UNBOUND:                -1.178
REMARK  3 active torsions:
REMARK  status: ('A' for Active; 'I' for Inactive)
REMARK       I    between atoms: C_2  and  N_3 
REMARK    1  A    between atoms: C_2  and  C_14 
REMARK    2  A    between atoms: N_3  and  N_4 
REMARK       I    between atoms: N_4  and  C_5 
REMARK    3  A    between atoms: C_5  and  C_7 
ROOT
ATOM      1  O   UNL d   1      24.502 -14.450  -4.396  0.00  0.00    -0.266 OA
ATOM      2  C   UNL d   1      24.957 -14.172  -3.287  0.00  0.00     0.270 C 
ATOM      3  N   UNL d   1      25.340 -12.880  -2.930  0.00  0.00    -0.263 N 
ATOM      4  H   UNL d   1      25.826 -12.661  -2.062  0.00  0.00     0.190 HD
ENDROOT
BRANCH   3   5
ATOM      5  N   UNL d   1      25.205 -11.804  -3.857  0.00  0.00    -0.263 N 
ATOM      6  C   UNL d   1      25.705 -10.548  -3.527  0.00  0.00     0.273 C 
ATOM      7  O   UNL d   1      26.279 -10.315  -2.463  0.00  0.00    -0.266 OA
ATOM      8  H   UNL d   1      24.780 -12.027  -4.756  0.00  0.00     0.190 HD
BRANCH   6   9
ATOM      9  C   UNL d   1      25.589  -9.467  -4.549  0.00  0.00     0.072 A 
ATOM     10  C   UNL d   1      25.240  -8.167  -4.147  0.00  0.00     0.020 A 
ATOM     11  C   UNL d   1      25.179  -7.121  -5.083  0.00  0.00     0.001 A 
ATOM     12  C   UNL d   1      25.426  -7.373  -6.431  0.00  0.00     0.003 A 
ATOM     13  C   UNL d   1      25.710  -8.675  -6.846  0.00  0.00     0.043 A 
ATOM     14  C   UNL d   1      25.791  -9.711  -5.907  0.00  0.00     0.132 A 
ATOM     15  F   UNL d   1      26.046 -10.949  -6.350  0.00  0.00    -0.205 F 
ENDBRANCH   6   9
ENDBRANCH   3   5
BRANCH   2  16
ATOM     16  C   UNL d   1      25.153 -15.250  -2.251  0.00  0.00     0.034 A 
ATOM     17  C   UNL d   1      24.038 -15.949  -1.732  0.00  0.00     0.017 A 
ATOM     18  C   UNL d   1      24.198 -16.994  -0.799  0.00  0.00     0.009 A 
ATOM     19  C   UNL d   1      25.478 -17.329  -0.388  0.00  0.00    -0.052 A 
ATOM     20  C   UNL d   1      26.581 -16.606  -0.857  0.00  0.00    -0.051 A 
ATOM     21  C   UNL d   1      25.908 -18.404   0.569  0.00  0.00     0.039 C 
ATOM     22  C   UNL d   1      26.434 -15.561  -1.769  0.00  0.00     0.024 A 
ATOM     23  C   UNL d   1      27.843 -17.116  -0.226  0.00  0.00     0.039 C 
ATOM     24  C   UNL d   1      27.405 -18.516   0.233  0.00  0.00     0.009 C 
ENDBRANCH   2  16
TORSDOF 3
ENDMDL
MODEL 7
REMARK VINA RESULT:    -6.645      5.450      9.860
REMARK INTER + INTRA:          -8.657
REMARK INTER:                  -7.540
REMARK INTRA:                  -1.117
REMARK CONF_INDEPENDENT:        0.895
REMARK UNBOUND:                -1.117
REMARK  3 active torsions:
REMARK  status: ('A' for Active; 'I' for Inactive)
REMARK       I    between atoms: C_2  and  N_3 
REMARK    1  A    between atoms: C_2  and  C_14 
REMARK    2  A    between atoms: N_3  and  N_4 
REMARK       I    between atoms: N_4  and  C_5 
REMARK    3  A    between atoms: C_5  and  C_7 
ROOT
ATOM      1  O   UNL d   1      24.549 -14.381  -4.638  0.00  0.00    -0.266 OA
ATOM      2  C   UNL d   1      25.258 -14.128  -3.664  0.00  0.00     0.270 C 
ATOM      3  N   UNL d   1      25.796 -12.863  -3.429  0.00  0.00    -0.263 N 
ATOM      4  H   UNL d   1      26.476 -12.672  -2.696  0.00  0.00     0.190 HD
ENDROOT
BRANCH   3   5
ATOM      5  N   UNL d   1      25.529 -11.787  -4.328  0.00  0.00    -0.263 N 
ATOM      6  C   UNL d   1      26.354 -10.666  -4.318  0.00  0.00     0.273 C 
ATOM      7  O   UNL d   1      27.325 -10.556  -3.569  0.00  0.00    -0.266 OA
ATOM      8  H   UNL d   1      24.758 -11.918  -4.980  0.00  0.00     0.190 HD
BRANCH   6   9
ATOM      9  C   UNL d   1      26.069  -9.589  -5.311  0.00  0.00     0.072 A 
ATOM     10  C   UNL d   1      26.818  -9.525  -6.498  0.00  0.00     0.020 A 
ATOM     11  C   UNL d   1      26.531  -8.555  -7.472  0.00  0.00     0.001 A 
ATOM     12  C   UNL d   1      25.523  -7.618  -7.252  0.00  0.00     0.003 A 
ATOM     13  C   UNL d   1      24.819  -7.637  -6.047  0.00  0.00     0.043 A 
ATOM     14  C   UNL d   1      25.093  -8.618  -5.087  0.00  0.00     0.132 A 
ATOM     15  F   UNL d   1      24.409  -8.589  -3.936  0.00  0.00    -0.205 F 
ENDBRANCH   6   9
ENDBRANCH   3   5
BRANCH   2  16
ATOM     16  C   UNL d   1      25.607 -15.210  -2.673  0.00  0.00     0.034 A 
ATOM     17  C   UNL d   1      26.961 -15.487  -2.372  0.00  0.00     0.017 A 
ATOM     18  C   UNL d   1      27.314 -16.460  -1.413  0.00  0.00     0.009 A 
ATOM     19  C   UNL d   1      26.303 -17.153  -0.766  0.00  0.00    -0.052 A 
ATOM     20  C   UNL d   1      24.964 -16.921  -1.099  0.00  0.00    -0.051 A 
ATOM     21  C   UNL d   1      26.417 -18.209   0.296  0.00  0.00     0.039 C 
ATOM     22  C   UNL d   1      24.603 -15.971  -2.055  0.00  0.00     0.024 A 
ATOM     23  C   UNL d   1      24.067 -17.829  -0.310  0.00  0.00     0.039 C 
ATOM     24  C   UNL d   1      24.986 -18.216   0.860  0.00  0.00     0.009 C 
ENDBRANCH   2  16
TORSDOF 3
ENDMDL
MODEL 8
REMARK VINA RESULT:    -6.261      5.775      8.110
REMARK INTER + INTRA:          -8.290
REMARK INTER:                  -7.156
REMARK INTRA:                  -1.134
REMARK CONF_INDEPENDENT:        0.895
REMARK UNBOUND:                -1.134
REMARK  3 active torsions:
REMARK  status: ('A' for Active; 'I' for Inactive)
REMARK       I    between atoms: C_2  and  N_3 
REMARK    1  A    between atoms: C_2  and  C_14 
REMARK    2  A    between atoms: N_3  and  N_4 
REMARK       I    between atoms: N_4  and  C_5 
REMARK    3  A    between atoms: C_5  and  C_7 
ROOT
ATOM      1  O   UNL d   1      26.598 -10.646  -2.581  0.00  0.00    -0.266 OA
ATOM      2  C   UNL d   1      25.874 -10.902  -3.543  0.00  0.00     0.270 C 
ATOM      3  N   UNL d   1      25.282 -12.150  -3.732  0.00  0.00    -0.263 N 
ATOM      4  H   UNL d   1      24.780 -12.408  -4.580  0.00  0.00     0.190 HD
ENDROOT
BRANCH   3   5
ATOM      5  N   UNL d   1      25.492 -13.200  -2.789  0.00  0.00    -0.263 N 
ATOM      6  C   UNL d   1      25.204 -14.513  -3.149  0.00  0.00     0.273 C 
ATOM      7  O   UNL d   1      24.781 -14.824  -4.263  0.00  0.00    -0.266 OA
ATOM      8  H   UNL d   1      25.897 -12.933  -1.893  0.00  0.00     0.190 HD
BRANCH   6   9
ATOM      9  C   UNL d   1      25.489 -15.583  -2.149  0.00  0.00     0.072 A 
ATOM     10  C   UNL d   1      24.432 -16.351  -1.634  0.00  0.00     0.020 A 
ATOM     11  C   UNL d   1      24.683 -17.400  -0.735  0.00  0.00     0.001 A 
ATOM     12  C   UNL d   1      25.984 -17.665  -0.312  0.00  0.00     0.003 A 
ATOM     13  C   UNL d   1      27.031 -16.863  -0.771  0.00  0.00     0.043 A 
ATOM     14  C   UNL d   1      26.780 -15.832  -1.684  0.00  0.00     0.132 A 
ATOM     15  F   UNL d   1      27.810 -15.074  -2.083  0.00  0.00    -0.205 F 
ENDBRANCH   6   9
ENDBRANCH   3   5
BRANCH   2  16
ATOM     16  C   UNL d   1      25.613  -9.858  -4.599  0.00  0.00     0.034 A 
ATOM     17  C   UNL d   1      26.316  -9.897  -5.826  0.00  0.00     0.017 A 
ATOM     18  C   UNL d   1      26.056  -8.962  -6.850  0.00  0.00     0.009 A 
ATOM     19  C   UNL d   1      25.093  -7.990  -6.633  0.00  0.00    -0.052 A 
ATOM     20  C   UNL d   1      24.432  -7.913  -5.402  0.00  0.00    -0.051 A 
ATOM     21  C   UNL d   1      24.624  -6.906  -7.563  0.00  0.00     0.039 C 
ATOM     22  C   UNL d   1      24.691  -8.824  -4.377  0.00  0.00     0.024 A 
ATOM     23  C   UNL d   1      23.486  -6.749  -5.391  0.00  0.00     0.039 C 
ATOM     24  C   UNL d   1      23.298  -6.500  -6.896  0.00  0.00     0.009 C 
ENDBRANCH   2  16
TORSDOF 3
ENDMDL
