MODEL 1
REMARK VINA RESULT:   -32.584      0.000      0.000
REMARK INTER + INTRA:         -34.340
REMARK INTER:                 -33.777
REMARK INTRA:                  -0.563
REMARK CONF_INDEPENDENT:        1.193
REMARK UNBOUND:                -0.563
REMARK  4 active torsions:
REMARK  status: ('A' for Active; 'I' for Inactive)
REMARK    1  A    between atoms: C_2  and  C_4 
REMARK    2  A    between atoms: C_6  and  C_7 
REMARK       I    between atoms: C_7  and  N_9 
REMARK    3  A    between atoms: N_9  and  C_10 
REMARK    4  A    between atoms: C_13  and  N_14 
REMARK       I    between atoms: N_14  and  C_15 
REMARK       I    between atoms: C_15  and  N_16 
ROOT
ATOM      1  C   UNL d   1      25.213 -17.742  -0.145  0.00  0.00     0.035 C 
ATOM      2  C   UNL d   1      26.347 -18.298   0.459  0.00  0.00     0.032 C 
ATOM      3  C   UNL d   1      27.625 -17.721   0.233  0.00  0.00     0.032 C 
ATOM      4  C   UNL d   1      27.756 -16.573  -0.569  0.00  0.00     0.036 C 
ATOM      5  C   UNL d   1      26.584 -15.979  -1.000  0.00  0.00     0.032 C 
ATOM      6  C   UNL d   1      25.351 -16.578  -0.866  0.00  0.00     0.032 C 
ENDROOT
BRANCH   1   7
ATOM      7  N   UNL d   1      23.910 -18.238   0.035  0.00  0.00    -0.321 N 
ATOM      8  C   UNL d   1      23.079 -18.578  -1.052  0.00  0.00     0.282 C 
ATOM      9  O   UNL d   1      23.473 -18.640  -2.208  0.00  0.00    -0.265 OA
ATOM     10  H   UNL d   1      23.574 -18.301   0.984  0.00  0.00     0.169 HD
BRANCH   8  11
ATOM     11  C   UNL d   1      21.722 -18.895  -0.687  0.00  0.00     0.171 A 
ATOM     12  C   UNL d   1      21.148 -19.203   0.512  0.00  0.00     0.075 A 
ATOM     13  C   UNL d   1      19.806 -19.496   0.216  0.00  0.00     0.068 A 
ATOM     14  N   UNL d   1      19.540 -19.325  -1.083  0.00  0.00    -0.132 NA
ATOM     15  O   UNL d   1      20.754 -18.936  -1.654  0.00  0.00    -0.207 OA
BRANCH  13  16
ATOM     16  C   UNL d   1      18.809 -19.990   1.215  0.00  0.00     0.032 C 
ATOM     17  C   UNL d   1      18.045 -21.176   0.606  0.00  0.00     0.016 C 
ATOM     18  C   UNL d   1      19.528 -20.448   2.489  0.00  0.00     0.016 C 
ENDBRANCH  13  16
ENDBRANCH   8  11
ENDBRANCH   1   7
BRANCH   4  19
ATOM     19  N   UNL d   1      29.023 -16.063  -0.936  0.00  0.00    -0.309 N 
ATOM     20  C   UNL d   1      30.277 -16.609  -0.897  0.00  0.00     0.318 C 
ATOM     21  N   UNL d   1      30.460 -17.898  -0.532  0.00  0.00    -0.352 N 
ATOM     22  O   UNL d   1      31.258 -15.945  -1.226  0.00  0.00    -0.247 OA
ATOM     23  H   UNL d   1      29.925 -18.290   0.223  0.00  0.00     0.160 HD
ATOM     24  H   UNL d   1      31.424 -18.200  -0.488  0.00  0.00     0.160 HD
ATOM     25  H   UNL d   1      29.064 -15.092  -1.225  0.00  0.00     0.170 HD
ENDBRANCH   4  19
TORSDOF 4
ENDMDL
MODEL 2
REMARK VINA RESULT:   -32.444      0.315      1.082
REMARK INTER + INTRA:         -34.231
REMARK INTER:                 -33.637
REMARK INTRA:                  -0.593
REMARK CONF_INDEPENDENT:        1.193
REMARK UNBOUND:                -0.593
REMARK  4 active torsions:
REMARK  status: ('A' for Active; 'I' for Inactive)
REMARK    1  A    between atoms: C_2  and  C_4 
REMARK    2  A    between atoms: C_6  and  C_7 
REMARK       I    between atoms: C_7  and  N_9 
REMARK    3  A    between atoms: N_9  and  C_10 
REMARK    4  A    between atoms: C_13  and  N_14 
REMARK       I    between atoms: N_14  and  C_15 
REMARK       I    between atoms: C_15  and  N_16 
ROOT
ATOM      1  C   UNL d   1      25.100 -17.442  -0.088  0.00  0.00     0.035 C 
ATOM      2  C   UNL d   1      25.343 -16.268  -0.811  0.00  0.00     0.032 C 
ATOM      3  C   UNL d   1      26.672 -15.788  -0.956  0.00  0.00     0.032 C 
ATOM      4  C   UNL d   1      27.751 -16.502  -0.406  0.00  0.00     0.036 C 
ATOM      5  C   UNL d   1      27.462 -17.734   0.151  0.00  0.00     0.032 C 
ATOM      6  C   UNL d   1      26.174 -18.166   0.379  0.00  0.00     0.032 C 
ENDROOT
BRANCH   1   7
ATOM      7  N   UNL d   1      23.822 -17.998   0.093  0.00  0.00    -0.321 N 
ATOM      8  C   UNL d   1      23.056 -18.489  -0.984  0.00  0.00     0.282 C 
ATOM      9  O   UNL d   1      23.499 -18.635  -2.115  0.00  0.00    -0.265 OA
ATOM     10  H   UNL d   1      23.452 -17.993   1.031  0.00  0.00     0.169 HD
BRANCH   8  11
ATOM     11  C   UNL d   1      21.706 -18.854  -0.637  0.00  0.00     0.171 A 
ATOM     12  C   UNL d   1      21.136 -19.219   0.547  0.00  0.00     0.075 A 
ATOM     13  C   UNL d   1      19.803 -19.536   0.234  0.00  0.00     0.068 A 
ATOM     14  N   UNL d   1      19.538 -19.325  -1.059  0.00  0.00    -0.132 NA
ATOM     15  O   UNL d   1      20.744 -18.885  -1.610  0.00  0.00    -0.207 OA
BRANCH  13  16
ATOM     16  C   UNL d   1      18.815 -20.090   1.210  0.00  0.00     0.032 C 
ATOM     17  C   UNL d   1      18.188 -21.359   0.611  0.00  0.00     0.016 C 
ATOM     18  C   UNL d   1      19.520 -20.443   2.524  0.00  0.00     0.016 C 
ENDBRANCH  13  16
ENDBRANCH   8  11
ENDBRANCH   1   7
BRANCH   4  19
ATOM     19  N   UNL d   1      29.065 -15.978  -0.402  0.00  0.00    -0.309 N 
ATOM     20  C   UNL d   1      30.291 -16.579  -0.330  0.00  0.00     0.318 C 
ATOM     21  N   UNL d   1      30.403 -17.927  -0.338  0.00  0.00    -0.352 N 
ATOM     22  O   UNL d   1      31.317 -15.903  -0.289  0.00  0.00    -0.247 OA
ATOM     23  H   UNL d   1      29.748 -18.492   0.174  0.00  0.00     0.160 HD
ATOM     24  H   UNL d   1      31.344 -18.281  -0.234  0.00  0.00     0.160 HD
ATOM     25  H   UNL d   1      29.159 -14.968  -0.381  0.00  0.00     0.170 HD
ENDBRANCH   4  19
TORSDOF 4
ENDMDL
MODEL 3
REMARK VINA RESULT:   -32.431      0.789      1.099
REMARK INTER + INTRA:         -34.263
REMARK INTER:                 -33.624
REMARK INTRA:                  -0.638
REMARK CONF_INDEPENDENT:        1.193
REMARK UNBOUND:                -0.638
REMARK  4 active torsions:
REMARK  status: ('A' for Active; 'I' for Inactive)
REMARK    1  A    between atoms: C_2  and  C_4 
REMARK    2  A    between atoms: C_6  and  C_7 
REMARK       I    between atoms: C_7  and  N_9 
REMARK    3  A    between atoms: N_9  and  C_10 
REMARK    4  A    between atoms: C_13  and  N_14 
REMARK       I    between atoms: N_14  and  C_15 
REMARK       I    between atoms: C_15  and  N_16 
ROOT
ATOM      1  C   UNL d   1      25.213 -17.841  -0.479  0.00  0.00     0.035 C 
ATOM      2  C   UNL d   1      26.098 -17.880   0.605  0.00  0.00     0.032 C 
ATOM      3  C   UNL d   1      27.350 -17.214   0.522  0.00  0.00     0.032 C 
ATOM      4  C   UNL d   1      27.694 -16.487  -0.632  0.00  0.00     0.036 C 
ATOM      5  C   UNL d   1      26.713 -16.350  -1.597  0.00  0.00     0.032 C 
ATOM      6  C   UNL d   1      25.535 -17.064  -1.569  0.00  0.00     0.032 C 
ENDROOT
BRANCH   1   7
ATOM      7  N   UNL d   1      23.950 -18.457  -0.478  0.00  0.00    -0.321 N 
ATOM      8  C   UNL d   1      22.753 -17.719  -0.587  0.00  0.00     0.282 C 
ATOM      9  O   UNL d   1      22.719 -16.528  -0.865  0.00  0.00    -0.265 OA
ATOM     10  H   UNL d   1      23.932 -19.458  -0.354  0.00  0.00     0.169 HD
BRANCH   8  11
ATOM     11  C   UNL d   1      21.556 -18.494  -0.388  0.00  0.00     0.171 A 
ATOM     12  C   UNL d   1      21.178 -19.350   0.605  0.00  0.00     0.075 A 
ATOM     13  C   UNL d   1      19.935 -19.864   0.197  0.00  0.00     0.068 A 
ATOM     14  N   UNL d   1      19.530 -19.318  -0.954  0.00  0.00    -0.132 NA
ATOM     15  O   UNL d   1      20.555 -18.443  -1.321  0.00  0.00    -0.207 OA
BRANCH  13  16
ATOM     16  C   UNL d   1      19.180 -20.928   0.928  0.00  0.00     0.032 C 
ATOM     17  C   UNL d   1      18.917 -20.449   2.364  0.00  0.00     0.016 C 
ATOM     18  C   UNL d   1      17.844 -21.196   0.228  0.00  0.00     0.016 C 
ENDBRANCH  13  16
ENDBRANCH   8  11
ENDBRANCH   1   7
BRANCH   4  19
ATOM     19  N   UNL d   1      28.987 -15.940  -0.808  0.00  0.00    -0.309 N 
ATOM     20  C   UNL d   1      30.235 -16.494  -0.726  0.00  0.00     0.318 C 
ATOM     21  N   UNL d   1      30.391 -17.821  -0.522  0.00  0.00    -0.352 N 
ATOM     22  O   UNL d   1      31.238 -15.797  -0.870  0.00  0.00    -0.247 OA
ATOM     23  H   UNL d   1      29.791 -18.308   0.121  0.00  0.00     0.160 HD
ATOM     24  H   UNL d   1      31.349 -18.132  -0.429  0.00  0.00     0.160 HD
ATOM     25  H   UNL d   1      29.048 -14.939  -0.959  0.00  0.00     0.170 HD
ENDBRANCH   4  19
TORSDOF 4
ENDMDL
MODEL 4
REMARK VINA RESULT:   -32.051      1.182      1.854
REMARK INTER + INTRA:         -33.721
REMARK INTER:                 -33.244
REMARK INTRA:                  -0.477
REMARK CONF_INDEPENDENT:        1.193
REMARK UNBOUND:                -0.477
REMARK  4 active torsions:
REMARK  status: ('A' for Active; 'I' for Inactive)
REMARK    1  A    between atoms: C_2  and  C_4 
REMARK    2  A    between atoms: C_6  and  C_7 
REMARK       I    between atoms: C_7  and  N_9 
REMARK    3  A    between atoms: N_9  and  C_10 
REMARK    4  A    between atoms: C_13  and  N_14 
REMARK       I    between atoms: N_14  and  C_15 
REMARK       I    between atoms: C_15  and  N_16 
ROOT
ATOM      1  C   UNL d   1      25.131 -17.698  -0.020  0.00  0.00     0.035 C 
ATOM      2  C   UNL d   1      25.293 -16.319  -0.203  0.00  0.00     0.032 C 
ATOM      3  C   UNL d   1      26.586 -15.738  -0.106  0.00  0.00     0.032 C 
ATOM      4  C   UNL d   1      27.711 -16.544   0.141  0.00  0.00     0.036 C 
ATOM      5  C   UNL d   1      27.508 -17.912   0.148  0.00  0.00     0.032 C 
ATOM      6  C   UNL d   1      26.253 -18.479   0.147  0.00  0.00     0.032 C 
ENDROOT
BRANCH   1   7
ATOM      7  N   UNL d   1      23.895 -18.359  -0.113  0.00  0.00    -0.321 N 
ATOM      8  C   UNL d   1      22.712 -17.692  -0.495  0.00  0.00     0.282 C 
ATOM      9  O   UNL d   1      22.695 -16.553  -0.940  0.00  0.00    -0.265 OA
ATOM     10  H   UNL d   1      23.878 -19.333   0.148  0.00  0.00     0.169 HD
BRANCH   8  11
ATOM     11  C   UNL d   1      21.514 -18.480  -0.361  0.00  0.00     0.171 A 
ATOM     12  C   UNL d   1      21.094 -19.342   0.609  0.00  0.00     0.075 A 
ATOM     13  C   UNL d   1      19.880 -19.869   0.135  0.00  0.00     0.068 A 
ATOM     14  N   UNL d   1      19.531 -19.325  -1.036  0.00  0.00    -0.132 NA
ATOM     15  O   UNL d   1      20.565 -18.438  -1.346  0.00  0.00    -0.207 OA
BRANCH  13  16
ATOM     16  C   UNL d   1      19.099 -20.942   0.823  0.00  0.00     0.032 C 
ATOM     17  C   UNL d   1      18.789 -20.485   2.257  0.00  0.00     0.016 C 
ATOM     18  C   UNL d   1      17.786 -21.196   0.074  0.00  0.00     0.016 C 
ENDBRANCH  13  16
ENDBRANCH   8  11
ENDBRANCH   1   7
BRANCH   4  19
ATOM     19  N   UNL d   1      28.986 -15.984   0.392  0.00  0.00    -0.309 N 
ATOM     20  C   UNL d   1      29.628 -14.897  -0.134  0.00  0.00     0.318 C 
ATOM     21  N   UNL d   1      29.002 -14.079  -1.010  0.00  0.00    -0.352 N 
ATOM     22  O   UNL d   1      30.778 -14.625   0.206  0.00  0.00    -0.247 OA
ATOM     23  H   UNL d   1      28.404 -14.463  -1.722  0.00  0.00     0.160 HD
ATOM     24  H   UNL d   1      29.570 -13.329  -1.381  0.00  0.00     0.160 HD
ATOM     25  H   UNL d   1      29.596 -16.489   1.025  0.00  0.00     0.170 HD
ENDBRANCH   4  19
TORSDOF 4
ENDMDL
MODEL 5
REMARK VINA RESULT:   -31.431      1.235      1.375
REMARK INTER + INTRA:         -33.237
REMARK INTER:                 -32.624
REMARK INTRA:                  -0.614
REMARK CONF_INDEPENDENT:        1.193
REMARK UNBOUND:                -0.614
REMARK  4 active torsions:
REMARK  status: ('A' for Active; 'I' for Inactive)
REMARK    1  A    between atoms: C_2  and  C_4 
REMARK    2  A    between atoms: C_6  and  C_7 
REMARK       I    between atoms: C_7  and  N_9 
REMARK    3  A    between atoms: N_9  and  C_10 
REMARK    4  A    between atoms: C_13  and  N_14 
REMARK       I    between atoms: N_14  and  C_15 
REMARK       I    between atoms: C_15  and  N_16 
ROOT
ATOM      1  C   UNL d   1      24.756 -16.779  -1.260  0.00  0.00     0.035 C 
ATOM      2  C   UNL d   1      25.933 -17.252  -0.668  0.00  0.00     0.032 C 
ATOM      3  C   UNL d   1      27.189 -16.718  -1.064  0.00  0.00     0.032 C 
ATOM      4  C   UNL d   1      27.256 -15.693  -2.024  0.00  0.00     0.036 C 
ATOM      5  C   UNL d   1      26.054 -15.158  -2.448  0.00  0.00     0.032 C 
ATOM      6  C   UNL d   1      24.836 -15.726  -2.144  0.00  0.00     0.032 C 
ENDROOT
BRANCH   1   7
ATOM      7  N   UNL d   1      23.472 -17.238  -0.921  0.00  0.00    -0.321 N 
ATOM      8  C   UNL d   1      23.207 -18.595  -0.644  0.00  0.00     0.282 C 
ATOM      9  O   UNL d   1      24.082 -19.438  -0.504  0.00  0.00    -0.265 OA
ATOM     10  H   UNL d   1      22.729 -16.556  -0.924  0.00  0.00     0.169 HD
BRANCH   8  11
ATOM     11  C   UNL d   1      21.809 -18.910  -0.493  0.00  0.00     0.171 A 
ATOM     12  C   UNL d   1      21.060 -19.230   0.601  0.00  0.00     0.075 A 
ATOM     13  C   UNL d   1      19.777 -19.514   0.101  0.00  0.00     0.068 A 
ATOM     14  N   UNL d   1      19.712 -19.325  -1.221  0.00  0.00    -0.132 NA
ATOM     15  O   UNL d   1      20.999 -18.935  -1.596  0.00  0.00    -0.207 OA
BRANCH  13  16
ATOM     16  C   UNL d   1      18.639 -20.015   0.931  0.00  0.00     0.032 C 
ATOM     17  C   UNL d   1      18.015 -21.232   0.230  0.00  0.00     0.016 C 
ATOM     18  C   UNL d   1      19.145 -20.430   2.317  0.00  0.00     0.016 C 
ENDBRANCH  13  16
ENDBRANCH   8  11
ENDBRANCH   1   7
BRANCH   4  19
ATOM     19  N   UNL d   1      28.491 -15.246  -2.548  0.00  0.00    -0.309 N 
ATOM     20  C   UNL d   1      29.707 -15.859  -2.679  0.00  0.00     0.318 C 
ATOM     21  N   UNL d   1      29.864 -17.162  -2.354  0.00  0.00    -0.352 N 
ATOM     22  O   UNL d   1      30.673 -15.243  -3.126  0.00  0.00    -0.247 OA
ATOM     23  H   UNL d   1      29.411 -17.539  -1.540  0.00  0.00     0.160 HD
ATOM     24  H   UNL d   1      30.807 -17.516  -2.439  0.00  0.00     0.160 HD
ATOM     25  H   UNL d   1      28.548 -14.273  -2.830  0.00  0.00     0.170 HD
ENDBRANCH   4  19
TORSDOF 4
ENDMDL
