MODEL 1
REMARK VINA RESULT:    -8.289      0.000      0.000
REMARK INTER + INTRA:         -12.539
REMARK INTER:                 -10.676
REMARK INTRA:                  -1.864
REMARK CONF_INDEPENDENT:        2.386
REMARK UNBOUND:                -1.864
REMARK  8 active torsions:
REMARK  status: ('A' for Active; 'I' for Inactive)
REMARK    1  A    between atoms: C_5  and  C_6 
REMARK    2  A    between atoms: C_6  and  C_8 
REMARK    3  A    between atoms: C_8  and  N_9 
REMARK    4  A    between atoms: N_9  and  C_10 
REMARK    5  A    between atoms: C_15  and  N_16 
REMARK    6  A    between atoms: C_22  and  N_23 
REMARK    7  A    between atoms: N_24  and  C_25 
REMARK    8  A    between atoms: C_25  and  C_26 
ROOT
ATOM      1  C   UNL d   1      27.029 -10.230   3.887  0.00  0.00     0.164 C 
ATOM      2  N   UNL d   1      27.821 -11.446   3.999  0.00  0.00    -0.270 N 
ATOM      3  C   UNL d   1      27.859 -12.315   2.954  0.00  0.00     0.269 C 
ATOM      4  O   UNL d   1      27.221 -12.081   1.922  0.00  0.00    -0.267 OA
ATOM      5  C   UNL d   1      28.709 -13.534   3.095  0.00  0.00     0.123 C 
ATOM      6  C   UNL d   1      29.377 -13.742   4.271  0.00  0.00     0.125 C 
ATOM      7  N   UNL d   1      29.274 -12.779   5.293  0.00  0.00    -0.280 N 
ATOM      8  C   UNL d   1      28.585 -11.576   5.127  0.00  0.00     0.333 C 
ATOM      9  O   UNL d   1      28.610 -10.623   5.905  0.00  0.00    -0.246 OA
ENDROOT
BRANCH   5  10
ATOM     10  C   UNL d   1      28.723 -14.445   1.881  0.00  0.00     0.186 C 
ATOM     11  O   UNL d   1      29.762 -14.770   1.301  0.00  0.00    -0.290 OA
BRANCH  10  12
ATOM     12  C   UNL d   1      27.417 -14.946   1.353  0.00  0.00     0.204 C 
BRANCH  12  13
ATOM     13  N   UNL d   1      27.547 -15.659   0.107  0.00  0.00    -0.381 N 
ATOM     14  H   UNL d   1      28.491 -15.876  -0.196  0.00  0.00     0.160 HD
BRANCH  13  15
ATOM     15  C   UNL d   1      26.462 -16.411  -0.335  0.00  0.00     0.055 A 
ATOM     16  C   UNL d   1      25.979 -17.413   0.528  0.00  0.00     0.031 A 
ATOM     17  C   UNL d   1      24.896 -18.213   0.175  0.00  0.00     0.002 A 
ATOM     18  C   UNL d   1      24.264 -18.003  -1.044  0.00  0.00     0.002 A 
ATOM     19  C   UNL d   1      24.691 -16.969  -1.888  0.00  0.00     0.031 A 
ATOM     20  C   UNL d   1      25.783 -16.144  -1.562  0.00  0.00     0.057 A 
BRANCH  20  21
ATOM     21  N   UNL d   1      26.193 -15.168  -2.469  0.00  0.00    -0.379 N 
ATOM     22  C   UNL d   1      25.487 -13.904  -2.623  0.00  0.00     0.123 C 
ATOM     23  C   UNL d   1      25.078 -13.725  -4.078  0.00  0.00     0.020 C 
ATOM     24  C   UNL d   1      26.275 -13.890  -5.020  0.00  0.00     0.003 C 
ATOM     25  C   UNL d   1      27.022 -15.202  -4.759  0.00  0.00     0.020 C 
ATOM     26  C   UNL d   1      27.397 -15.343  -3.288  0.00  0.00     0.123 C 
ENDBRANCH  20  21
ENDBRANCH  13  15
ENDBRANCH  12  13
ENDBRANCH  10  12
ENDBRANCH   5  10
BRANCH   6  27
ATOM     27  N   UNL d   1      30.177 -14.833   4.551  0.00  0.00    -0.384 N 
ATOM     28  H   UNL d   1      30.027 -15.781   4.259  0.00  0.00     0.157 HD
ATOM     29  H   UNL d   1      31.075 -14.740   5.003  0.00  0.00     0.157 HD
ENDBRANCH   6  27
BRANCH   7  30
ATOM     30  C   UNL d   1      30.013 -13.049   6.563  0.00  0.00     0.174 C 
BRANCH  30  31
ATOM     31  C   UNL d   1      29.234 -13.213   7.832  0.00  0.00    -0.040 A 
ATOM     32  C   UNL d   1      29.226 -14.449   8.492  0.00  0.00     0.009 A 
ATOM     33  C   UNL d   1      28.685 -14.545   9.769  0.00  0.00     0.001 A 
ATOM     34  C   UNL d   1      28.174 -13.409  10.397  0.00  0.00     0.000 A 
ATOM     35  C   UNL d   1      28.156 -12.183   9.734  0.00  0.00     0.001 A 
ATOM     36  C   UNL d   1      28.634 -12.095   8.432  0.00  0.00     0.009 A 
ENDBRANCH  30  31
ENDBRANCH   7  30
TORSDOF 8
ENDMDL
MODEL 2
REMARK VINA RESULT:    -8.029      1.193      2.966
REMARK INTER + INTRA:         -12.513
REMARK INTER:                 -10.415
REMARK INTRA:                  -2.098
REMARK CONF_INDEPENDENT:        2.386
REMARK UNBOUND:                -2.098
REMARK  8 active torsions:
REMARK  status: ('A' for Active; 'I' for Inactive)
REMARK    1  A    between atoms: C_5  and  C_6 
REMARK    2  A    between atoms: C_6  and  C_8 
REMARK    3  A    between atoms: C_8  and  N_9 
REMARK    4  A    between atoms: N_9  and  C_10 
REMARK    5  A    between atoms: C_15  and  N_16 
REMARK    6  A    between atoms: C_22  and  N_23 
REMARK    7  A    between atoms: N_24  and  C_25 
REMARK    8  A    between atoms: C_25  and  C_26 
ROOT
ATOM      1  C   UNL d   1      26.716 -10.203   3.260  0.00  0.00     0.164 C 
ATOM      2  N   UNL d   1      27.607 -11.345   3.398  0.00  0.00    -0.270 N 
ATOM      3  C   UNL d   1      27.644 -12.285   2.415  0.00  0.00     0.269 C 
ATOM      4  O   UNL d   1      26.922 -12.175   1.418  0.00  0.00    -0.267 OA
ATOM      5  C   UNL d   1      28.595 -13.423   2.578  0.00  0.00     0.123 C 
ATOM      6  C   UNL d   1      29.354 -13.493   3.714  0.00  0.00     0.125 C 
ATOM      7  N   UNL d   1      29.244 -12.467   4.672  0.00  0.00    -0.280 N 
ATOM      8  C   UNL d   1      28.452 -11.335   4.474  0.00  0.00     0.333 C 
ATOM      9  O   UNL d   1      28.454 -10.327   5.180  0.00  0.00    -0.246 OA
ENDROOT
BRANCH   5  10
ATOM     10  C   UNL d   1      28.600 -14.418   1.432  0.00  0.00     0.186 C 
ATOM     11  O   UNL d   1      29.533 -14.511   0.630  0.00  0.00    -0.290 OA
BRANCH  10  12
ATOM     12  C   UNL d   1      27.408 -15.304   1.254  0.00  0.00     0.204 C 
BRANCH  12  13
ATOM     13  N   UNL d   1      26.319 -14.656   0.567  0.00  0.00    -0.381 N 
ATOM     14  H   UNL d   1      25.938 -13.824   1.005  0.00  0.00     0.160 HD
BRANCH  13  15
ATOM     15  C   UNL d   1      26.184 -14.875  -0.801  0.00  0.00     0.055 A 
ATOM     16  C   UNL d   1      27.036 -14.150  -1.655  0.00  0.00     0.031 A 
ATOM     17  C   UNL d   1      26.977 -14.303  -3.037  0.00  0.00     0.002 A 
ATOM     18  C   UNL d   1      26.076 -15.207  -3.584  0.00  0.00     0.002 A 
ATOM     19  C   UNL d   1      25.264 -15.983  -2.746  0.00  0.00     0.031 A 
ATOM     20  C   UNL d   1      25.297 -15.852  -1.346  0.00  0.00     0.057 A 
BRANCH  20  21
ATOM     21  N   UNL d   1      24.426 -16.614  -0.570  0.00  0.00    -0.379 N 
ATOM     22  C   UNL d   1      24.878 -17.753   0.216  0.00  0.00     0.123 C 
ATOM     23  C   UNL d   1      24.085 -18.990  -0.179  0.00  0.00     0.020 C 
ATOM     24  C   UNL d   1      22.577 -18.737  -0.100  0.00  0.00     0.003 C 
ATOM     25  C   UNL d   1      22.172 -17.484  -0.883  0.00  0.00     0.020 C 
ATOM     26  C   UNL d   1      23.002 -16.276  -0.463  0.00  0.00     0.123 C 
ENDBRANCH  20  21
ENDBRANCH  13  15
ENDBRANCH  12  13
ENDBRANCH  10  12
ENDBRANCH   5  10
BRANCH   6  27
ATOM     27  N   UNL d   1      30.255 -14.498   4.010  0.00  0.00    -0.384 N 
ATOM     28  H   UNL d   1      30.142 -15.479   3.834  0.00  0.00     0.157 HD
ATOM     29  H   UNL d   1      31.188 -14.304   4.345  0.00  0.00     0.157 HD
ENDBRANCH   6  27
BRANCH   7  30
ATOM     30  C   UNL d   1      30.085 -12.586   5.900  0.00  0.00     0.174 C 
BRANCH  30  31
ATOM     31  C   UNL d   1      29.421 -12.915   7.203  0.00  0.00    -0.040 A 
ATOM     32  C   UNL d   1      29.759 -14.093   7.881  0.00  0.00     0.009 A 
ATOM     33  C   UNL d   1      29.306 -14.294   9.180  0.00  0.00     0.001 A 
ATOM     34  C   UNL d   1      28.540 -13.314   9.811  0.00  0.00     0.000 A 
ATOM     35  C   UNL d   1      28.179 -12.153   9.131  0.00  0.00     0.001 A 
ATOM     36  C   UNL d   1      28.572 -11.977   7.810  0.00  0.00     0.009 A 
ENDBRANCH  30  31
ENDBRANCH   7  30
TORSDOF 8
ENDMDL
MODEL 3
REMARK VINA RESULT:    -7.885      6.311      9.219
REMARK INTER + INTRA:         -12.343
REMARK INTER:                 -10.271
REMARK INTRA:                  -2.072
REMARK CONF_INDEPENDENT:        2.386
REMARK UNBOUND:                -2.072
REMARK  8 active torsions:
REMARK  status: ('A' for Active; 'I' for Inactive)
REMARK    1  A    between atoms: C_5  and  C_6 
REMARK    2  A    between atoms: C_6  and  C_8 
REMARK    3  A    between atoms: C_8  and  N_9 
REMARK    4  A    between atoms: N_9  and  C_10 
REMARK    5  A    between atoms: C_15  and  N_16 
REMARK    6  A    between atoms: C_22  and  N_23 
REMARK    7  A    between atoms: N_24  and  C_25 
REMARK    8  A    between atoms: C_25  and  C_26 
ROOT
ATOM      1  C   UNL d   1      30.107 -17.199  -1.101  0.00  0.00     0.164 C 
ATOM      2  N   UNL d   1      28.988 -16.564  -1.782  0.00  0.00    -0.270 N 
ATOM      3  C   UNL d   1      29.124 -16.191  -3.083  0.00  0.00     0.269 C 
ATOM      4  O   UNL d   1      30.189 -16.381  -3.679  0.00  0.00    -0.267 OA
ATOM      5  C   UNL d   1      27.943 -15.574  -3.755  0.00  0.00     0.123 C 
ATOM      6  C   UNL d   1      26.798 -15.377  -3.032  0.00  0.00     0.125 C 
ATOM      7  N   UNL d   1      26.758 -15.801  -1.689  0.00  0.00    -0.280 N 
ATOM      8  C   UNL d   1      27.811 -16.492  -1.087  0.00  0.00     0.333 C 
ATOM      9  O   UNL d   1      27.769 -17.046   0.010  0.00  0.00    -0.246 OA
ENDROOT
BRANCH   5  10
ATOM     10  C   UNL d   1      28.160 -15.206  -5.211  0.00  0.00     0.186 C 
ATOM     11  O   UNL d   1      27.248 -15.200  -6.043  0.00  0.00    -0.290 OA
BRANCH  10  12
ATOM     12  C   UNL d   1      29.544 -14.862  -5.660  0.00  0.00     0.204 C 
BRANCH  12  13
ATOM     13  N   UNL d   1      29.800 -15.225  -7.032  0.00  0.00    -0.381 N 
ATOM     14  H   UNL d   1      29.090 -14.968  -7.710  0.00  0.00     0.160 HD
BRANCH  13  15
ATOM     15  C   UNL d   1      31.121 -15.431  -7.420  0.00  0.00     0.055 A 
ATOM     16  C   UNL d   1      31.890 -14.291  -7.718  0.00  0.00     0.031 A 
ATOM     17  C   UNL d   1      33.221 -14.397  -8.110  0.00  0.00     0.002 A 
ATOM     18  C   UNL d   1      33.810 -15.652  -8.188  0.00  0.00     0.002 A 
ATOM     19  C   UNL d   1      33.078 -16.794  -7.835  0.00  0.00     0.031 A 
ATOM     20  C   UNL d   1      31.731 -16.722  -7.435  0.00  0.00     0.057 A 
BRANCH  20  21
ATOM     21  N   UNL d   1      31.042 -17.899  -7.149  0.00  0.00    -0.379 N 
ATOM     22  C   UNL d   1      30.405 -18.133  -5.861  0.00  0.00     0.123 C 
ATOM     23  C   UNL d   1      30.937 -19.425  -5.258  0.00  0.00     0.020 C 
ATOM     24  C   UNL d   1      30.809 -20.595  -6.240  0.00  0.00     0.003 C 
ATOM     25  C   UNL d   1      31.430 -20.261  -7.600  0.00  0.00     0.020 C 
ATOM     26  C   UNL d   1      30.878 -18.953  -8.155  0.00  0.00     0.123 C 
ENDBRANCH  20  21
ENDBRANCH  13  15
ENDBRANCH  12  13
ENDBRANCH  10  12
ENDBRANCH   5  10
BRANCH   6  27
ATOM     27  N   UNL d   1      25.641 -14.797  -3.515  0.00  0.00    -0.384 N 
ATOM     28  H   UNL d   1      24.893 -14.404  -2.974  0.00  0.00     0.157 HD
ATOM     29  H   UNL d   1      25.498 -14.619  -4.498  0.00  0.00     0.157 HD
ENDBRANCH   6  27
BRANCH   7  30
ATOM     30  C   UNL d   1      25.492 -15.561  -0.935  0.00  0.00     0.174 C 
BRANCH  30  31
ATOM     31  C   UNL d   1      24.493 -16.673  -0.827  0.00  0.00    -0.040 A 
ATOM     32  C   UNL d   1      24.922 -17.969  -0.516  0.00  0.00     0.009 A 
ATOM     33  C   UNL d   1      23.986 -18.950  -0.208  0.00  0.00     0.001 A 
ATOM     34  C   UNL d   1      22.627 -18.635  -0.186  0.00  0.00     0.000 A 
ATOM     35  C   UNL d   1      22.194 -17.353  -0.520  0.00  0.00     0.001 A 
ATOM     36  C   UNL d   1      23.120 -16.387  -0.894  0.00  0.00     0.009 A 
ENDBRANCH  30  31
ENDBRANCH   7  30
TORSDOF 8
ENDMDL
MODEL 4
REMARK VINA RESULT:    -7.725      6.517      9.506
REMARK INTER + INTRA:         -12.349
REMARK INTER:                 -10.111
REMARK INTRA:                  -2.237
REMARK CONF_INDEPENDENT:        2.386
REMARK UNBOUND:                -2.237
REMARK  8 active torsions:
REMARK  status: ('A' for Active; 'I' for Inactive)
REMARK    1  A    between atoms: C_5  and  C_6 
REMARK    2  A    between atoms: C_6  and  C_8 
REMARK    3  A    between atoms: C_8  and  N_9 
REMARK    4  A    between atoms: N_9  and  C_10 
REMARK    5  A    between atoms: C_15  and  N_16 
REMARK    6  A    between atoms: C_22  and  N_23 
REMARK    7  A    between atoms: N_24  and  C_25 
REMARK    8  A    between atoms: C_25  and  C_26 
ROOT
ATOM      1  C   UNL d   1      28.901 -14.588  -6.294  0.00  0.00     0.164 C 
ATOM      2  N   UNL d   1      27.964 -13.737  -5.576  0.00  0.00    -0.270 N 
ATOM      3  C   UNL d   1      26.821 -14.276  -5.075  0.00  0.00     0.269 C 
ATOM      4  O   UNL d   1      26.573 -15.476  -5.236  0.00  0.00    -0.267 OA
ATOM      5  C   UNL d   1      25.903 -13.377  -4.316  0.00  0.00     0.123 C 
ATOM      6  C   UNL d   1      26.229 -12.054  -4.190  0.00  0.00     0.125 C 
ATOM      7  N   UNL d   1      27.439 -11.593  -4.743  0.00  0.00    -0.280 N 
ATOM      8  C   UNL d   1      28.364 -12.448  -5.345  0.00  0.00     0.333 C 
ATOM      9  O   UNL d   1      29.508 -12.144  -5.679  0.00  0.00    -0.246 OA
ENDROOT
BRANCH   5  10
ATOM     10  C   UNL d   1      24.660 -14.052  -3.767  0.00  0.00     0.186 C 
ATOM     11  O   UNL d   1      23.543 -13.908  -4.270  0.00  0.00    -0.290 OA
BRANCH  10  12
ATOM     12  C   UNL d   1      24.794 -14.907  -2.547  0.00  0.00     0.204 C 
BRANCH  12  13
ATOM     13  N   UNL d   1      25.445 -16.166  -2.808  0.00  0.00    -0.381 N 
ATOM     14  H   UNL d   1      25.461 -16.478  -3.773  0.00  0.00     0.160 HD
BRANCH  13  15
ATOM     15  C   UNL d   1      26.394 -16.615  -1.892  0.00  0.00     0.055 A 
ATOM     16  C   UNL d   1      27.743 -16.327  -2.170  0.00  0.00     0.031 A 
ATOM     17  C   UNL d   1      28.762 -16.731  -1.313  0.00  0.00     0.002 A 
ATOM     18  C   UNL d   1      28.439 -17.413  -0.147  0.00  0.00     0.002 A 
ATOM     19  C   UNL d   1      27.097 -17.654   0.177  0.00  0.00     0.031 A 
ATOM     20  C   UNL d   1      26.044 -17.259  -0.668  0.00  0.00     0.057 A 
BRANCH  20  21
ATOM     21  N   UNL d   1      24.733 -17.576  -0.315  0.00  0.00    -0.379 N 
ATOM     22  C   UNL d   1      24.286 -18.951  -0.140  0.00  0.00     0.123 C 
ATOM     23  C   UNL d   1      23.094 -19.216  -1.047  0.00  0.00     0.020 C 
ATOM     24  C   UNL d   1      21.992 -18.171  -0.844  0.00  0.00     0.003 C 
ATOM     25  C   UNL d   1      22.538 -16.745  -0.965  0.00  0.00     0.020 C 
ATOM     26  C   UNL d   1      23.738 -16.532  -0.050  0.00  0.00     0.123 C 
ENDBRANCH  20  21
ENDBRANCH  13  15
ENDBRANCH  12  13
ENDBRANCH  10  12
ENDBRANCH   5  10
BRANCH   6  27
ATOM     27  N   UNL d   1      25.465 -11.104  -3.538  0.00  0.00    -0.384 N 
ATOM     28  H   UNL d   1      25.619 -10.736  -2.618  0.00  0.00     0.157 HD
ATOM     29  H   UNL d   1      24.719 -10.604  -3.999  0.00  0.00     0.157 HD
ENDBRANCH   6  27
BRANCH   7  30
ATOM     30  C   UNL d   1      27.752 -10.141  -4.588  0.00  0.00     0.174 C 
BRANCH  30  31
ATOM     31  C   UNL d   1      26.717  -9.132  -4.982  0.00  0.00    -0.040 A 
ATOM     32  C   UNL d   1      26.030  -9.275  -6.195  0.00  0.00     0.009 A 
ATOM     33  C   UNL d   1      24.929  -8.468  -6.463  0.00  0.00     0.001 A 
ATOM     34  C   UNL d   1      24.500  -7.538  -5.515  0.00  0.00     0.000 A 
ATOM     35  C   UNL d   1      25.196  -7.375  -4.319  0.00  0.00     0.001 A 
ATOM     36  C   UNL d   1      26.336  -8.132  -4.076  0.00  0.00     0.009 A 
ENDBRANCH  30  31
ENDBRANCH   7  30
TORSDOF 8
ENDMDL
MODEL 5
REMARK VINA RESULT:    -7.586      6.453     10.721
REMARK INTER + INTRA:         -12.327
REMARK INTER:                  -9.972
REMARK INTRA:                  -2.355
REMARK CONF_INDEPENDENT:        2.386
REMARK UNBOUND:                -2.355
REMARK  8 active torsions:
REMARK  status: ('A' for Active; 'I' for Inactive)
REMARK    1  A    between atoms: C_5  and  C_6 
REMARK    2  A    between atoms: C_6  and  C_8 
REMARK    3  A    between atoms: C_8  and  N_9 
REMARK    4  A    between atoms: N_9  and  C_10 
REMARK    5  A    between atoms: C_15  and  N_16 
REMARK    6  A    between atoms: C_22  and  N_23 
REMARK    7  A    between atoms: N_24  and  C_25 
REMARK    8  A    between atoms: C_25  and  C_26 
ROOT
ATOM      1  C   UNL d   1      29.049 -14.695  -6.873  0.00  0.00     0.164 C 
ATOM      2  N   UNL d   1      28.101 -13.780  -6.255  0.00  0.00    -0.270 N 
ATOM      3  C   UNL d   1      27.112 -14.277  -5.464  0.00  0.00     0.269 C 
ATOM      4  O   UNL d   1      27.013 -15.495  -5.279  0.00  0.00    -0.267 OA
ATOM      5  C   UNL d   1      26.181 -13.303  -4.822  0.00  0.00     0.123 C 
ATOM      6  C   UNL d   1      26.336 -11.969  -5.082  0.00  0.00     0.125 C 
ATOM      7  N   UNL d   1      27.395 -11.556  -5.914  0.00  0.00    -0.280 N 
ATOM      8  C   UNL d   1      28.346 -12.443  -6.418  0.00  0.00     0.333 C 
ATOM      9  O   UNL d   1      29.388 -12.127  -6.991  0.00  0.00    -0.246 OA
ENDROOT
BRANCH   5  10
ATOM     10  C   UNL d   1      25.119 -13.928  -3.935  0.00  0.00     0.186 C 
ATOM     11  O   UNL d   1      23.916 -13.894  -4.207  0.00  0.00    -0.290 OA
BRANCH  10  12
ATOM     12  C   UNL d   1      25.550 -14.588  -2.665  0.00  0.00     0.204 C 
BRANCH  12  13
ATOM     13  N   UNL d   1      25.933 -15.966  -2.845  0.00  0.00    -0.381 N 
ATOM     14  H   UNL d   1      25.744 -16.375  -3.754  0.00  0.00     0.160 HD
BRANCH  13  15
ATOM     15  C   UNL d   1      26.926 -16.484  -2.017  0.00  0.00     0.055 A 
ATOM     16  C   UNL d   1      28.261 -16.315  -2.431  0.00  0.00     0.031 A 
ATOM     17  C   UNL d   1      29.322 -16.795  -1.668  0.00  0.00     0.002 A 
ATOM     18  C   UNL d   1      29.059 -17.435  -0.464  0.00  0.00     0.002 A 
ATOM     19  C   UNL d   1      27.740 -17.557  -0.007  0.00  0.00     0.031 A 
ATOM     20  C   UNL d   1      26.646 -17.084  -0.753  0.00  0.00     0.057 A 
BRANCH  20  21
ATOM     21  N   UNL d   1      25.354 -17.284  -0.269  0.00  0.00    -0.379 N 
ATOM     22  C   UNL d   1      24.903 -18.575   0.232  0.00  0.00     0.123 C 
ATOM     23  C   UNL d   1      23.658 -19.008  -0.529  0.00  0.00     0.020 C 
ATOM     24  C   UNL d   1      22.581 -17.919  -0.505  0.00  0.00     0.003 C 
ATOM     25  C   UNL d   1      23.134 -16.567  -0.969  0.00  0.00     0.020 C 
ATOM     26  C   UNL d   1      24.387 -16.184  -0.190  0.00  0.00     0.123 C 
ENDBRANCH  20  21
ENDBRANCH  13  15
ENDBRANCH  12  13
ENDBRANCH  10  12
ENDBRANCH   5  10
BRANCH   6  27
ATOM     27  N   UNL d   1      25.536 -10.961  -4.579  0.00  0.00    -0.384 N 
ATOM     28  H   UNL d   1      24.593 -11.047  -4.251  0.00  0.00     0.157 HD
ATOM     29  H   UNL d   1      25.892 -10.034  -4.395  0.00  0.00     0.157 HD
ENDBRANCH   6  27
BRANCH   7  30
ATOM     30  C   UNL d   1      27.523 -10.091  -6.178  0.00  0.00     0.174 C 
BRANCH  30  31
ATOM     31  C   UNL d   1      27.632  -9.618  -7.596  0.00  0.00    -0.040 A 
ATOM     32  C   UNL d   1      28.559  -8.623  -7.930  0.00  0.00     0.009 A 
ATOM     33  C   UNL d   1      28.809  -8.336  -9.268  0.00  0.00     0.001 A 
ATOM     34  C   UNL d   1      28.156  -9.055 -10.269  0.00  0.00     0.000 A 
ATOM     35  C   UNL d   1      27.214 -10.028  -9.940  0.00  0.00     0.001 A 
ATOM     36  C   UNL d   1      26.910 -10.272  -8.606  0.00  0.00     0.009 A 
ENDBRANCH  30  31
ENDBRANCH   7  30
TORSDOF 8
ENDMDL
MODEL 6
REMARK VINA RESULT:    -7.096      6.175     10.507
REMARK INTER + INTRA:         -12.513
REMARK INTER:                  -9.483
REMARK INTRA:                  -3.031
REMARK CONF_INDEPENDENT:        2.386
REMARK UNBOUND:                -3.031
REMARK  8 active torsions:
REMARK  status: ('A' for Active; 'I' for Inactive)
REMARK    1  A    between atoms: C_5  and  C_6 
REMARK    2  A    between atoms: C_6  and  C_8 
REMARK    3  A    between atoms: C_8  and  N_9 
REMARK    4  A    between atoms: N_9  and  C_10 
REMARK    5  A    between atoms: C_15  and  N_16 
REMARK    6  A    between atoms: C_22  and  N_23 
REMARK    7  A    between atoms: N_24  and  C_25 
REMARK    8  A    between atoms: C_25  and  C_26 
ROOT
ATOM      1  C   UNL d   1      29.165 -15.061  -6.625  0.00  0.00     0.164 C 
ATOM      2  N   UNL d   1      28.235 -14.048  -6.148  0.00  0.00    -0.270 N 
ATOM      3  C   UNL d   1      27.186 -14.420  -5.366  0.00  0.00     0.269 C 
ATOM      4  O   UNL d   1      27.019 -15.608  -5.070  0.00  0.00    -0.267 OA
ATOM      5  C   UNL d   1      26.275 -13.348  -4.870  0.00  0.00     0.123 C 
ATOM      6  C   UNL d   1      26.508 -12.054  -5.249  0.00  0.00     0.125 C 
ATOM      7  N   UNL d   1      27.624 -11.772  -6.061  0.00  0.00    -0.280 N 
ATOM      8  C   UNL d   1      28.554 -12.746  -6.427  0.00  0.00     0.333 C 
ATOM      9  O   UNL d   1      29.636 -12.535  -6.973  0.00  0.00    -0.246 OA
ENDROOT
BRANCH   5  10
ATOM     10  C   UNL d   1      25.143 -13.834  -3.984  0.00  0.00     0.186 C 
ATOM     11  O   UNL d   1      23.953 -13.674  -4.270  0.00  0.00    -0.290 OA
BRANCH  10  12
ATOM     12  C   UNL d   1      25.487 -14.511  -2.696  0.00  0.00     0.204 C 
BRANCH  12  13
ATOM     13  N   UNL d   1      25.573 -15.945  -2.816  0.00  0.00    -0.381 N 
ATOM     14  H   UNL d   1      25.898 -16.307  -3.706  0.00  0.00     0.160 HD
BRANCH  13  15
ATOM     15  C   UNL d   1      25.692 -16.695  -1.649  0.00  0.00     0.055 A 
ATOM     16  C   UNL d   1      24.542 -17.369  -1.197  0.00  0.00     0.031 A 
ATOM     17  C   UNL d   1      24.565 -18.146  -0.042  0.00  0.00     0.002 A 
ATOM     18  C   UNL d   1      25.752 -18.276   0.667  0.00  0.00     0.002 A 
ATOM     19  C   UNL d   1      26.921 -17.663   0.198  0.00  0.00     0.031 A 
ATOM     20  C   UNL d   1      26.932 -16.871  -0.965  0.00  0.00     0.057 A 
BRANCH  20  21
ATOM     21  N   UNL d   1      28.116 -16.244  -1.349  0.00  0.00    -0.379 N 
ATOM     22  C   UNL d   1      28.400 -14.853  -1.023  0.00  0.00     0.123 C 
ATOM     23  C   UNL d   1      28.698 -14.083  -2.301  0.00  0.00     0.020 C 
ATOM     24  C   UNL d   1      29.793 -14.767  -3.125  0.00  0.00     0.003 C 
ATOM     25  C   UNL d   1      29.475 -16.245  -3.370  0.00  0.00     0.020 C 
ATOM     26  C   UNL d   1      29.170 -16.971  -2.065  0.00  0.00     0.123 C 
ENDBRANCH  20  21
ENDBRANCH  13  15
ENDBRANCH  12  13
ENDBRANCH  10  12
ENDBRANCH   5  10
BRANCH   6  27
ATOM     27  N   UNL d   1      25.736 -10.966  -4.888  0.00  0.00    -0.384 N 
ATOM     28  H   UNL d   1      24.786 -10.982  -4.567  0.00  0.00     0.157 HD
ATOM     29  H   UNL d   1      26.120 -10.035  -4.813  0.00  0.00     0.157 HD
ENDBRANCH   6  27
BRANCH   7  30
ATOM     30  C   UNL d   1      27.837 -10.348  -6.457  0.00  0.00     0.174 C 
BRANCH  30  31
ATOM     31  C   UNL d   1      27.446  -9.915  -7.838  0.00  0.00    -0.040 A 
ATOM     32  C   UNL d   1      27.338 -10.865  -8.862  0.00  0.00     0.009 A 
ATOM     33  C   UNL d   1      26.775 -10.502 -10.081  0.00  0.00     0.001 A 
ATOM     34  C   UNL d   1      26.298  -9.205 -10.270  0.00  0.00     0.000 A 
ATOM     35  C   UNL d   1      26.427  -8.251  -9.263  0.00  0.00     0.001 A 
ATOM     36  C   UNL d   1      27.051  -8.589  -8.068  0.00  0.00     0.009 A 
ENDBRANCH  30  31
ENDBRANCH   7  30
TORSDOF 8
ENDMDL
MODEL 7
REMARK VINA RESULT:    -6.994      6.184      9.355
REMARK INTER + INTRA:         -12.411
REMARK INTER:                  -9.380
REMARK INTRA:                  -3.031
REMARK CONF_INDEPENDENT:        2.386
REMARK UNBOUND:                -3.031
REMARK  8 active torsions:
REMARK  status: ('A' for Active; 'I' for Inactive)
REMARK    1  A    between atoms: C_5  and  C_6 
REMARK    2  A    between atoms: C_6  and  C_8 
REMARK    3  A    between atoms: C_8  and  N_9 
REMARK    4  A    between atoms: N_9  and  C_10 
REMARK    5  A    between atoms: C_15  and  N_16 
REMARK    6  A    between atoms: C_22  and  N_23 
REMARK    7  A    between atoms: N_24  and  C_25 
REMARK    8  A    between atoms: C_25  and  C_26 
ROOT
ATOM      1  C   UNL d   1      28.689 -14.586  -6.822  0.00  0.00     0.164 C 
ATOM      2  N   UNL d   1      27.844 -13.739  -5.993  0.00  0.00    -0.270 N 
ATOM      3  C   UNL d   1      26.768 -14.281  -5.363  0.00  0.00     0.269 C 
ATOM      4  O   UNL d   1      26.503 -15.481  -5.500  0.00  0.00    -0.267 OA
ATOM      5  C   UNL d   1      25.947 -13.386  -4.496  0.00  0.00     0.123 C 
ATOM      6  C   UNL d   1      26.285 -12.064  -4.401  0.00  0.00     0.125 C 
ATOM      7  N   UNL d   1      27.422 -11.600  -5.092  0.00  0.00    -0.280 N 
ATOM      8  C   UNL d   1      28.269 -12.451  -5.804  0.00  0.00     0.333 C 
ATOM      9  O   UNL d   1      29.366 -12.145  -6.270  0.00  0.00    -0.246 OA
ENDROOT
BRANCH   5  10
ATOM     10  C   UNL d   1      24.778 -14.065  -3.807  0.00  0.00     0.186 C 
ATOM     11  O   UNL d   1      23.633 -14.059  -4.269  0.00  0.00    -0.290 OA
BRANCH  10  12
ATOM     12  C   UNL d   1      25.020 -14.747  -2.498  0.00  0.00     0.204 C 
BRANCH  12  13
ATOM     13  N   UNL d   1      25.534 -16.086  -2.645  0.00  0.00    -0.381 N 
ATOM     14  H   UNL d   1      25.979 -16.307  -3.529  0.00  0.00     0.160 HD
BRANCH  13  15
ATOM     15  C   UNL d   1      25.839 -16.801  -1.489  0.00  0.00     0.055 A 
ATOM     16  C   UNL d   1      24.810 -17.577  -0.924  0.00  0.00     0.031 A 
ATOM     17  C   UNL d   1      25.020 -18.329   0.229  0.00  0.00     0.002 A 
ATOM     18  C   UNL d   1      26.276 -18.332   0.820  0.00  0.00     0.002 A 
ATOM     19  C   UNL d   1      27.329 -17.615   0.235  0.00  0.00     0.031 A 
ATOM     20  C   UNL d   1      27.150 -16.845  -0.928  0.00  0.00     0.057 A 
BRANCH  20  21
ATOM     21  N   UNL d   1      28.224 -16.111  -1.430  0.00  0.00    -0.379 N 
ATOM     22  C   UNL d   1      28.466 -14.727  -1.048  0.00  0.00     0.123 C 
ATOM     23  C   UNL d   1      28.524 -13.858  -2.296  0.00  0.00     0.020 C 
ATOM     24  C   UNL d   1      29.528 -14.409  -3.314  0.00  0.00     0.003 C 
ATOM     25  C   UNL d   1      29.270 -15.888  -3.618  0.00  0.00     0.020 C 
ATOM     26  C   UNL d   1      29.205 -16.714  -2.339  0.00  0.00     0.123 C 
ENDBRANCH  20  21
ENDBRANCH  13  15
ENDBRANCH  12  13
ENDBRANCH  10  12
ENDBRANCH   5  10
BRANCH   6  27
ATOM     27  N   UNL d   1      25.605 -11.118  -3.658  0.00  0.00    -0.384 N 
ATOM     28  H   UNL d   1      25.987 -10.519  -2.951  0.00  0.00     0.157 HD
ATOM     29  H   UNL d   1      24.646 -10.870  -3.852  0.00  0.00     0.157 HD
ENDBRANCH   6  27
BRANCH   7  30
ATOM     30  C   UNL d   1      27.752 -10.149  -4.967  0.00  0.00     0.174 C 
BRANCH  30  31
ATOM     31  C   UNL d   1      26.679  -9.138  -5.239  0.00  0.00    -0.040 A 
ATOM     32  C   UNL d   1      25.778  -9.343  -6.292  0.00  0.00     0.009 A 
ATOM     33  C   UNL d   1      24.662  -8.522  -6.413  0.00  0.00     0.001 A 
ATOM     34  C   UNL d   1      24.431  -7.517  -5.474  0.00  0.00     0.000 A 
ATOM     35  C   UNL d   1      25.338  -7.293  -4.440  0.00  0.00     0.001 A 
ATOM     36  C   UNL d   1      26.490  -8.066  -4.354  0.00  0.00     0.009 A 
ENDBRANCH  30  31
ENDBRANCH   7  30
TORSDOF 8
ENDMDL
MODEL 8
REMARK VINA RESULT:    -6.953      4.886      7.782
REMARK INTER + INTRA:         -12.746
REMARK INTER:                  -9.339
REMARK INTRA:                  -3.406
REMARK CONF_INDEPENDENT:        2.386
REMARK UNBOUND:                -3.406
REMARK  8 active torsions:
REMARK  status: ('A' for Active; 'I' for Inactive)
REMARK    1  A    between atoms: C_5  and  C_6 
REMARK    2  A    between atoms: C_6  and  C_8 
REMARK    3  A    between atoms: C_8  and  N_9 
REMARK    4  A    between atoms: N_9  and  C_10 
REMARK    5  A    between atoms: C_15  and  N_16 
REMARK    6  A    between atoms: C_22  and  N_23 
REMARK    7  A    between atoms: N_24  and  C_25 
REMARK    8  A    between atoms: C_25  and  C_26 
ROOT
ATOM      1  C   UNL d   1      27.313 -12.426   0.486  0.00  0.00     0.164 C 
ATOM      2  N   UNL d   1      26.752 -13.442  -0.392  0.00  0.00    -0.270 N 
ATOM      3  C   UNL d   1      26.501 -13.135  -1.693  0.00  0.00     0.269 C 
ATOM      4  O   UNL d   1      26.738 -12.001  -2.124  0.00  0.00    -0.267 OA
ATOM      5  C   UNL d   1      25.957 -14.213  -2.569  0.00  0.00     0.123 C 
ATOM      6  C   UNL d   1      25.701 -15.442  -2.024  0.00  0.00     0.125 C 
ATOM      7  N   UNL d   1      25.999 -15.660  -0.665  0.00  0.00    -0.280 N 
ATOM      8  C   UNL d   1      26.624 -14.700   0.132  0.00  0.00     0.333 C 
ATOM      9  O   UNL d   1      27.073 -14.889   1.262  0.00  0.00    -0.246 OA
ENDROOT
BRANCH   5  10
ATOM     10  C   UNL d   1      25.725 -13.805  -4.012  0.00  0.00     0.186 C 
ATOM     11  O   UNL d   1      24.729 -14.152  -4.654  0.00  0.00    -0.290 OA
BRANCH  10  12
ATOM     12  C   UNL d   1      26.762 -12.969  -4.692  0.00  0.00     0.204 C 
BRANCH  12  13
ATOM     13  N   UNL d   1      28.100 -13.241  -4.230  0.00  0.00    -0.381 N 
ATOM     14  H   UNL d   1      28.336 -12.908  -3.301  0.00  0.00     0.160 HD
BRANCH  13  15
ATOM     15  C   UNL d   1      28.790 -14.303  -4.809  0.00  0.00     0.055 A 
ATOM     16  C   UNL d   1      28.990 -14.257  -6.202  0.00  0.00     0.031 A 
ATOM     17  C   UNL d   1      29.671 -15.270  -6.870  0.00  0.00     0.002 A 
ATOM     18  C   UNL d   1      30.184 -16.338  -6.144  0.00  0.00     0.002 A 
ATOM     19  C   UNL d   1      30.049 -16.369  -4.750  0.00  0.00     0.031 A 
ATOM     20  C   UNL d   1      29.366 -15.362  -4.045  0.00  0.00     0.057 A 
BRANCH  20  21
ATOM     21  N   UNL d   1      29.219 -15.478  -2.664  0.00  0.00    -0.379 N 
ATOM     22  C   UNL d   1      29.684 -14.450  -1.743  0.00  0.00     0.123 C 
ATOM     23  C   UNL d   1      30.639 -15.068  -0.732  0.00  0.00     0.020 C 
ATOM     24  C   UNL d   1      30.016 -16.286  -0.044  0.00  0.00     0.003 C 
ATOM     25  C   UNL d   1      29.477 -17.296  -1.063  0.00  0.00     0.020 C 
ATOM     26  C   UNL d   1      28.538 -16.629  -2.061  0.00  0.00     0.123 C 
ENDBRANCH  20  21
ENDBRANCH  13  15
ENDBRANCH  12  13
ENDBRANCH  10  12
ENDBRANCH   5  10
BRANCH   6  27
ATOM     27  N   UNL d   1      25.177 -16.523  -2.707  0.00  0.00    -0.384 N 
ATOM     28  H   UNL d   1      25.031 -17.449  -2.348  0.00  0.00     0.157 HD
ATOM     29  H   UNL d   1      24.781 -16.435  -3.632  0.00  0.00     0.157 HD
ENDBRANCH   6  27
BRANCH   7  30
ATOM     30  C   UNL d   1      25.698 -17.014  -0.109  0.00  0.00     0.174 C 
BRANCH  30  31
ATOM     31  C   UNL d   1      24.299 -17.542  -0.211  0.00  0.00    -0.040 A 
ATOM     32  C   UNL d   1      23.245 -16.672  -0.520  0.00  0.00     0.009 A 
ATOM     33  C   UNL d   1      21.991 -17.190  -0.822  0.00  0.00     0.001 A 
ATOM     34  C   UNL d   1      21.792 -18.571  -0.841  0.00  0.00     0.000 A 
ATOM     35  C   UNL d   1      22.831 -19.438  -0.510  0.00  0.00     0.001 A 
ATOM     36  C   UNL d   1      24.068 -18.924  -0.141  0.00  0.00     0.009 A 
ENDBRANCH  30  31
ENDBRANCH   7  30
TORSDOF 8
ENDMDL
MODEL 9
REMARK VINA RESULT:    -6.804      5.722      8.732
REMARK INTER + INTRA:         -12.167
REMARK INTER:                  -9.190
REMARK INTRA:                  -2.977
REMARK CONF_INDEPENDENT:        2.386
REMARK UNBOUND:                -2.977
REMARK  8 active torsions:
REMARK  status: ('A' for Active; 'I' for Inactive)
REMARK    1  A    between atoms: C_5  and  C_6 
REMARK    2  A    between atoms: C_6  and  C_8 
REMARK    3  A    between atoms: C_8  and  N_9 
REMARK    4  A    between atoms: N_9  and  C_10 
REMARK    5  A    between atoms: C_15  and  N_16 
REMARK    6  A    between atoms: C_22  and  N_23 
REMARK    7  A    between atoms: N_24  and  C_25 
REMARK    8  A    between atoms: C_25  and  C_26 
ROOT
ATOM      1  C   UNL d   1      29.872 -13.392  -6.651  0.00  0.00     0.164 C 
ATOM      2  N   UNL d   1      28.669 -12.896  -6.000  0.00  0.00    -0.270 N 
ATOM      3  C   UNL d   1      27.697 -13.774  -5.636  0.00  0.00     0.269 C 
ATOM      4  O   UNL d   1      27.829 -14.982  -5.864  0.00  0.00    -0.267 OA
ATOM      5  C   UNL d   1      26.494 -13.230  -4.941  0.00  0.00     0.123 C 
ATOM      6  C   UNL d   1      26.402 -11.880  -4.735  0.00  0.00     0.125 C 
ATOM      7  N   UNL d   1      27.466 -11.055  -5.147  0.00  0.00    -0.280 N 
ATOM      8  C   UNL d   1      28.650 -11.564  -5.684  0.00  0.00     0.333 C 
ATOM      9  O   UNL d   1      29.678 -10.920  -5.891  0.00  0.00    -0.246 OA
ENDROOT
BRANCH   5  10
ATOM     10  C   UNL d   1      25.463 -14.271  -4.544  0.00  0.00     0.186 C 
ATOM     11  O   UNL d   1      24.247 -14.077  -4.634  0.00  0.00    -0.290 OA
BRANCH  10  12
ATOM     12  C   UNL d   1      25.943 -15.575  -3.994  0.00  0.00     0.204 C 
BRANCH  12  13
ATOM     13  N   UNL d   1      27.166 -15.456  -3.240  0.00  0.00    -0.381 N 
ATOM     14  H   UNL d   1      28.031 -15.517  -3.766  0.00  0.00     0.160 HD
BRANCH  13  15
ATOM     15  C   UNL d   1      27.118 -14.803  -2.011  0.00  0.00     0.055 A 
ATOM     16  C   UNL d   1      27.914 -13.652  -1.862  0.00  0.00     0.031 A 
ATOM     17  C   UNL d   1      27.930 -12.931  -0.672  0.00  0.00     0.002 A 
ATOM     18  C   UNL d   1      27.126 -13.343   0.383  0.00  0.00     0.002 A 
ATOM     19  C   UNL d   1      26.280 -14.450   0.232  0.00  0.00     0.031 A 
ATOM     20  C   UNL d   1      26.241 -15.200  -0.957  0.00  0.00     0.057 A 
BRANCH  20  21
ATOM     21  N   UNL d   1      25.418 -16.323  -1.026  0.00  0.00    -0.379 N 
ATOM     22  C   UNL d   1      24.063 -16.263  -1.556  0.00  0.00     0.123 C 
ATOM     23  C   UNL d   1      23.087 -16.793  -0.516  0.00  0.00     0.020 C 
ATOM     24  C   UNL d   1      23.501 -18.181  -0.017  0.00  0.00     0.003 C 
ATOM     25  C   UNL d   1      24.958 -18.200   0.456  0.00  0.00     0.020 C 
ATOM     26  C   UNL d   1      25.894 -17.647  -0.611  0.00  0.00     0.123 C 
ENDBRANCH  20  21
ENDBRANCH  13  15
ENDBRANCH  12  13
ENDBRANCH  10  12
ENDBRANCH   5  10
BRANCH   6  27
ATOM     27  N   UNL d   1      25.340 -11.237  -4.129  0.00  0.00    -0.384 N 
ATOM     28  H   UNL d   1      25.177 -10.248  -4.093  0.00  0.00     0.157 HD
ATOM     29  H   UNL d   1      24.552 -11.740  -3.748  0.00  0.00     0.157 HD
ENDBRANCH   6  27
BRANCH   7  30
ATOM     30  C   UNL d   1      27.323  -9.587  -4.909  0.00  0.00     0.174 C 
BRANCH  30  31
ATOM     31  C   UNL d   1      27.198  -9.093  -3.500  0.00  0.00    -0.040 A 
ATOM     32  C   UNL d   1      26.081  -8.335  -3.123  0.00  0.00     0.009 A 
ATOM     33  C   UNL d   1      25.859  -8.058  -1.778  0.00  0.00     0.001 A 
ATOM     34  C   UNL d   1      26.732  -8.555  -0.810  0.00  0.00     0.000 A 
ATOM     35  C   UNL d   1      27.858  -9.286  -1.183  0.00  0.00     0.001 A 
ATOM     36  C   UNL d   1      28.122  -9.509  -2.529  0.00  0.00     0.009 A 
ENDBRANCH  30  31
ENDBRANCH   7  30
TORSDOF 8
ENDMDL
