MODEL 1
REMARK VINA RESULT:    -8.998      0.000      0.000
REMARK INTER + INTRA:         -14.663
REMARK INTER:                 -12.279
REMARK INTRA:                  -2.384
REMARK CONF_INDEPENDENT:        3.281
REMARK UNBOUND:                -2.384
REMARK  11 active torsions:
REMARK  status: ('A' for Active; 'I' for Inactive)
REMARK    1  A    between atoms: C_4  and  O_5 
REMARK    2  A    between atoms: O_5  and  C_6 
REMARK    3  A    between atoms: C_6  and  C_7 
REMARK       I    between atoms: C_7  and  N_9 
REMARK    4  A    between atoms: N_9  and  C_10 
REMARK    5  A    between atoms: C_10  and  N_12 
REMARK    6  A    between atoms: N_12  and  N_13 
REMARK       I    between atoms: N_13  and  C_14 
REMARK    7  A    between atoms: C_14  and  C_16 
REMARK    8  A    between atoms: C_16  and  C_17 
REMARK    9  A    between atoms: C_17  and  C_18 
REMARK       I    between atoms: C_18  and  N_20 
REMARK   10  A    between atoms: N_20  and  C_21 
REMARK   11  A    between atoms: C_21  and  C_22 
ROOT
ATOM      1  N   UNL d   1      25.834 -15.327  -3.912  0.00  0.00    -0.273 N 
ATOM      2  H   UNL d   1      25.576 -15.683  -4.831  0.00  0.00     0.189 HD
ENDROOT
BRANCH   1   3
ATOM      3  C   UNL d   1      26.445 -14.088  -3.621  0.00  0.00     0.193 C 
ATOM      4  S   UNL d   1      25.911 -13.217  -2.276  0.00  0.00    -0.039 SA
BRANCH   3   5
ATOM      5  N   UNL d   1      27.483 -13.672  -4.506  0.00  0.00    -0.301 N 
ATOM      6  C   UNL d   1      27.844 -14.311  -5.727  0.00  0.00     0.248 C 
ATOM      7  O   UNL d   1      27.271 -15.320  -6.142  0.00  0.00    -0.271 OA
ATOM      8  H   UNL d   1      28.010 -12.850  -4.244  0.00  0.00     0.171 HD
BRANCH   6   9
ATOM      9  C   UNL d   1      29.006 -13.734  -6.591  0.00  0.00     0.278 C 
BRANCH   9  10
ATOM     10  O   UNL d   1      30.258 -14.316  -6.134  0.00  0.00    -0.342 OA
BRANCH  10  11
ATOM     11  C   UNL d   1      30.409 -15.677  -6.074  0.00  0.00     0.070 A 
ATOM     12  C   UNL d   1      31.005 -16.442  -7.069  0.00  0.00     0.044 A 
ATOM     13  C   UNL d   1      31.135 -17.841  -6.947  0.00  0.00    -0.042 A 
ATOM     14  C   UNL d   1      31.784 -18.598  -8.069  0.00  0.00     0.049 C 
ATOM     15  C   UNL d   1      30.653 -18.475  -5.793  0.00  0.00     0.017 A 
ATOM     16  C   UNL d   1      30.050 -17.723  -4.785  0.00  0.00     0.022 A 
ATOM     17 BR   UNL d   1      30.789 -20.356  -5.553  0.00  0.00    -0.051 Br
ATOM     18  C   UNL d   1      29.927 -16.331  -4.928  0.00  0.00     0.038 A 
ENDBRANCH  10  11
ENDBRANCH   9  10
ENDBRANCH   6   9
ENDBRANCH   3   5
ENDBRANCH   1   3
BRANCH   1  19
ATOM     19  N   UNL d   1      25.512 -16.237  -2.802  0.00  0.00    -0.268 N 
ATOM     20  C   UNL d   1      26.330 -16.362  -1.687  0.00  0.00     0.236 C 
ATOM     21  O   UNL d   1      27.371 -15.714  -1.570  0.00  0.00    -0.272 OA
ATOM     22  H   UNL d   1      24.645 -16.768  -2.913  0.00  0.00     0.190 HD
BRANCH  20  23
ATOM     23  C   UNL d   1      25.849 -17.361  -0.614  0.00  0.00     0.114 C 
BRANCH  23  24
ATOM     24  C   UNL d   1      24.413 -17.082  -0.120  0.00  0.00     0.112 C 
BRANCH  24  25
ATOM     25  C   UNL d   1      23.355 -17.851  -0.911  0.00  0.00     0.218 C 
ATOM     26  O   UNL d   1      23.588 -18.372  -2.004  0.00  0.00    -0.274 OA
ATOM     27  N   UNL d   1      22.115 -17.910  -0.317  0.00  0.00    -0.357 N 
ATOM     28  H   UNL d   1      22.019 -17.566   0.627  0.00  0.00     0.162 HD
BRANCH  27  29
ATOM     29  C   UNL d   1      20.993 -18.608  -0.939  0.00  0.00     0.161 C 
BRANCH  29  30
ATOM     30  C   UNL d   1      20.070 -19.336   0.019  0.00  0.00    -0.041 A 
ATOM     31  C   UNL d   1      20.250 -19.323   1.410  0.00  0.00     0.009 A 
ATOM     32  C   UNL d   1      19.478 -20.132   2.243  0.00  0.00     0.001 A 
ATOM     33  C   UNL d   1      18.425 -20.871   1.719  0.00  0.00     0.000 A 
ATOM     34  C   UNL d   1      18.170 -20.834   0.351  0.00  0.00     0.001 A 
ATOM     35  C   UNL d   1      18.991 -20.080  -0.495  0.00  0.00     0.009 A 
ENDBRANCH  29  30
ENDBRANCH  27  29
ENDBRANCH  24  25
ENDBRANCH  23  24
ENDBRANCH  20  23
ENDBRANCH   1  19
TORSDOF 11
ENDMDL
MODEL 2
REMARK VINA RESULT:    -7.074      5.160      8.463
REMARK INTER + INTRA:         -14.744
REMARK INTER:                 -10.355
REMARK INTRA:                  -4.389
REMARK CONF_INDEPENDENT:        3.281
REMARK UNBOUND:                -4.389
REMARK  11 active torsions:
REMARK  status: ('A' for Active; 'I' for Inactive)
REMARK    1  A    between atoms: C_4  and  O_5 
REMARK    2  A    between atoms: O_5  and  C_6 
REMARK    3  A    between atoms: C_6  and  C_7 
REMARK       I    between atoms: C_7  and  N_9 
REMARK    4  A    between atoms: N_9  and  C_10 
REMARK    5  A    between atoms: C_10  and  N_12 
REMARK    6  A    between atoms: N_12  and  N_13 
REMARK       I    between atoms: N_13  and  C_14 
REMARK    7  A    between atoms: C_14  and  C_16 
REMARK    8  A    between atoms: C_16  and  C_17 
REMARK    9  A    between atoms: C_17  and  C_18 
REMARK       I    between atoms: C_18  and  N_20 
REMARK   10  A    between atoms: N_20  and  C_21 
REMARK   11  A    between atoms: C_21  and  C_22 
ROOT
ATOM      1  N   UNL d   1      29.901 -16.908  -1.474  0.00  0.00    -0.273 N 
ATOM      2  H   UNL d   1      29.696 -17.899  -1.596  0.00  0.00     0.189 HD
ENDROOT
BRANCH   1   3
ATOM      3  C   UNL d   1      30.339 -16.269  -0.294  0.00  0.00     0.193 C 
ATOM      4  S   UNL d   1      31.986 -16.299   0.079  0.00  0.00    -0.039 SA
BRANCH   3   5
ATOM      5  N   UNL d   1      29.332 -15.640   0.496  0.00  0.00    -0.301 N 
ATOM      6  C   UNL d   1      28.553 -14.511   0.110  0.00  0.00     0.248 C 
ATOM      7  O   UNL d   1      28.686 -13.956  -0.982  0.00  0.00    -0.271 OA
ATOM      8  H   UNL d   1      29.154 -16.030   1.412  0.00  0.00     0.171 HD
BRANCH   6   9
ATOM      9  C   UNL d   1      27.484 -13.935   1.087  0.00  0.00     0.278 C 
BRANCH   9  10
ATOM     10  O   UNL d   1      27.434 -14.781   2.270  0.00  0.00    -0.342 OA
BRANCH  10  11
ATOM     11  C   UNL d   1      27.781 -14.279   3.497  0.00  0.00     0.070 A 
ATOM     12  C   UNL d   1      27.786 -12.926   3.815  0.00  0.00     0.044 A 
ATOM     13  C   UNL d   1      28.150 -12.470   5.099  0.00  0.00    -0.042 A 
ATOM     14  C   UNL d   1      28.137 -10.993   5.362  0.00  0.00     0.049 C 
ATOM     15  C   UNL d   1      28.515 -13.405   6.079  0.00  0.00     0.017 A 
ATOM     16  C   UNL d   1      28.518 -14.766   5.777  0.00  0.00     0.022 A 
ATOM     17 BR   UNL d   1      29.020 -12.872   7.832  0.00  0.00    -0.051 Br
ATOM     18  C   UNL d   1      28.155 -15.199   4.490  0.00  0.00     0.038 A 
ENDBRANCH  10  11
ENDBRANCH   9  10
ENDBRANCH   6   9
ENDBRANCH   3   5
ENDBRANCH   1   3
BRANCH   1  19
ATOM     19  N   UNL d   1      29.702 -16.100  -2.687  0.00  0.00    -0.268 N 
ATOM     20  C   UNL d   1      29.762 -16.652  -3.960  0.00  0.00     0.236 C 
ATOM     21  O   UNL d   1      29.986 -17.850  -4.139  0.00  0.00    -0.272 OA
ATOM     22  H   UNL d   1      29.517 -15.108  -2.523  0.00  0.00     0.190 HD
BRANCH  20  23
ATOM     23  C   UNL d   1      29.532 -15.667  -5.126  0.00  0.00     0.114 C 
BRANCH  23  24
ATOM     24  C   UNL d   1      28.544 -14.532  -4.781  0.00  0.00     0.112 C 
BRANCH  24  25
ATOM     25  C   UNL d   1      27.127 -15.040  -4.520  0.00  0.00     0.218 C 
ATOM     26  O   UNL d   1      26.439 -15.575  -5.393  0.00  0.00    -0.274 OA
ATOM     27  N   UNL d   1      26.667 -14.847  -3.237  0.00  0.00    -0.357 N 
ATOM     28  H   UNL d   1      27.316 -14.511  -2.541  0.00  0.00     0.162 HD
BRANCH  27  29
ATOM     29  C   UNL d   1      25.334 -15.276  -2.821  0.00  0.00     0.161 C 
BRANCH  29  30
ATOM     30  C   UNL d   1      25.303 -16.349  -1.751  0.00  0.00    -0.041 A 
ATOM     31  C   UNL d   1      24.113 -16.913  -1.268  0.00  0.00     0.009 A 
ATOM     32  C   UNL d   1      24.118 -17.779  -0.175  0.00  0.00     0.001 A 
ATOM     33  C   UNL d   1      25.321 -18.200   0.378  0.00  0.00     0.000 A 
ATOM     34  C   UNL d   1      26.522 -17.722  -0.138  0.00  0.00     0.001 A 
ATOM     35  C   UNL d   1      26.514 -16.796  -1.188  0.00  0.00     0.009 A 
ENDBRANCH  29  30
ENDBRANCH  27  29
ENDBRANCH  24  25
ENDBRANCH  23  24
ENDBRANCH  20  23
ENDBRANCH   1  19
TORSDOF 11
ENDMDL
MODEL 3
REMARK VINA RESULT:    -7.000      5.879      8.782
REMARK INTER + INTRA:         -14.013
REMARK INTER:                 -10.282
REMARK INTRA:                  -3.732
REMARK CONF_INDEPENDENT:        3.281
REMARK UNBOUND:                -3.732
REMARK  11 active torsions:
REMARK  status: ('A' for Active; 'I' for Inactive)
REMARK    1  A    between atoms: C_4  and  O_5 
REMARK    2  A    between atoms: O_5  and  C_6 
REMARK    3  A    between atoms: C_6  and  C_7 
REMARK       I    between atoms: C_7  and  N_9 
REMARK    4  A    between atoms: N_9  and  C_10 
REMARK    5  A    between atoms: C_10  and  N_12 
REMARK    6  A    between atoms: N_12  and  N_13 
REMARK       I    between atoms: N_13  and  C_14 
REMARK    7  A    between atoms: C_14  and  C_16 
REMARK    8  A    between atoms: C_16  and  C_17 
REMARK    9  A    between atoms: C_17  and  C_18 
REMARK       I    between atoms: C_18  and  N_20 
REMARK   10  A    between atoms: N_20  and  C_21 
REMARK   11  A    between atoms: C_21  and  C_22 
ROOT
ATOM      1  N   UNL d   1      29.413 -14.254  -0.808  0.00  0.00    -0.273 N 
ATOM      2  H   UNL d   1      30.357 -13.943  -1.033  0.00  0.00     0.189 HD
ENDROOT
BRANCH   1   3
ATOM      3  C   UNL d   1      29.048 -15.288   0.080  0.00  0.00     0.193 C 
ATOM      4  S   UNL d   1      29.215 -16.890  -0.431  0.00  0.00    -0.039 SA
BRANCH   3   5
ATOM      5  N   UNL d   1      28.560 -14.884   1.356  0.00  0.00    -0.301 N 
ATOM      6  C   UNL d   1      27.482 -13.981   1.589  0.00  0.00     0.248 C 
ATOM      7  O   UNL d   1      26.853 -13.449   0.673  0.00  0.00    -0.271 OA
ATOM      8  H   UNL d   1      29.018 -15.272   2.170  0.00  0.00     0.171 HD
BRANCH   6   9
ATOM      9  C   UNL d   1      27.061 -13.636   3.050  0.00  0.00     0.278 C 
BRANCH   9  10
ATOM     10  O   UNL d   1      27.847 -14.450   3.964  0.00  0.00    -0.342 OA
BRANCH  10  11
ATOM     11  C   UNL d   1      28.220 -13.956   5.187  0.00  0.00     0.070 A 
ATOM     12  C   UNL d   1      29.297 -14.431   5.926  0.00  0.00     0.044 A 
ATOM     13  C   UNL d   1      29.634 -13.877   7.179  0.00  0.00    -0.042 A 
ATOM     14  C   UNL d   1      30.807 -14.451   7.919  0.00  0.00     0.049 C 
ATOM     15  C   UNL d   1      28.866 -12.822   7.690  0.00  0.00     0.017 A 
ATOM     16  C   UNL d   1      27.780 -12.334   6.963  0.00  0.00     0.022 A 
ATOM     17 BR   UNL d   1      29.253 -12.024   9.371  0.00  0.00    -0.051 Br
ATOM     18  C   UNL d   1      27.459 -12.902   5.718  0.00  0.00     0.038 A 
ENDBRANCH  10  11
ENDBRANCH   9  10
ENDBRANCH   6   9
ENDBRANCH   3   5
ENDBRANCH   1   3
BRANCH   1  19
ATOM     19  N   UNL d   1      28.354 -13.513  -1.509  0.00  0.00    -0.268 N 
ATOM     20  C   UNL d   1      28.335 -13.380  -2.892  0.00  0.00     0.236 C 
ATOM     21  O   UNL d   1      29.208 -13.877  -3.604  0.00  0.00    -0.272 OA
ATOM     22  H   UNL d   1      27.636 -13.105  -0.906  0.00  0.00     0.190 HD
BRANCH  20  23
ATOM     23  C   UNL d   1      27.154 -12.571  -3.469  0.00  0.00     0.114 C 
BRANCH  23  24
ATOM     24  C   UNL d   1      25.778 -13.050  -2.957  0.00  0.00     0.112 C 
BRANCH  24  25
ATOM     25  C   UNL d   1      25.641 -14.572  -2.962  0.00  0.00     0.218 C 
ATOM     26  O   UNL d   1      25.225 -15.201  -3.938  0.00  0.00    -0.274 OA
ATOM     27  N   UNL d   1      26.010 -15.192  -1.790  0.00  0.00    -0.357 N 
ATOM     28  H   UNL d   1      26.451 -14.637  -1.072  0.00  0.00     0.162 HD
BRANCH  27  29
ATOM     29  C   UNL d   1      25.942 -16.642  -1.629  0.00  0.00     0.161 C 
BRANCH  29  30
ATOM     30  C   UNL d   1      24.645 -17.170  -1.046  0.00  0.00    -0.041 A 
ATOM     31  C   UNL d   1      24.513 -18.465  -0.525  0.00  0.00     0.009 A 
ATOM     32  C   UNL d   1      23.267 -18.965  -0.146  0.00  0.00     0.001 A 
ATOM     33  C   UNL d   1      22.150 -18.140  -0.158  0.00  0.00     0.000 A 
ATOM     34  C   UNL d   1      22.270 -16.822  -0.589  0.00  0.00     0.001 A 
ATOM     35  C   UNL d   1      23.506 -16.342  -1.039  0.00  0.00     0.009 A 
ENDBRANCH  29  30
ENDBRANCH  27  29
ENDBRANCH  24  25
ENDBRANCH  23  24
ENDBRANCH  20  23
ENDBRANCH   1  19
TORSDOF 11
ENDMDL
MODEL 4
REMARK VINA RESULT:    -6.470      4.491      7.546
REMARK INTER + INTRA:         -14.402
REMARK INTER:                  -9.752
REMARK INTRA:                  -4.650
REMARK CONF_INDEPENDENT:        3.281
REMARK UNBOUND:                -4.650
REMARK  11 active torsions:
REMARK  status: ('A' for Active; 'I' for Inactive)
REMARK    1  A    between atoms: C_4  and  O_5 
REMARK    2  A    between atoms: O_5  and  C_6 
REMARK    3  A    between atoms: C_6  and  C_7 
REMARK       I    between atoms: C_7  and  N_9 
REMARK    4  A    between atoms: N_9  and  C_10 
REMARK    5  A    between atoms: C_10  and  N_12 
REMARK    6  A    between atoms: N_12  and  N_13 
REMARK       I    between atoms: N_13  and  C_14 
REMARK    7  A    between atoms: C_14  and  C_16 
REMARK    8  A    between atoms: C_16  and  C_17 
REMARK    9  A    between atoms: C_17  and  C_18 
REMARK       I    between atoms: C_18  and  N_20 
REMARK   10  A    between atoms: N_20  and  C_21 
REMARK   11  A    between atoms: C_21  and  C_22 
ROOT
ATOM      1  N   UNL d   1      28.868 -14.602  -7.018  0.00  0.00    -0.273 N 
ATOM      2  H   UNL d   1      28.858 -14.418  -8.020  0.00  0.00     0.189 HD
ENDROOT
BRANCH   1   3
ATOM      3  C   UNL d   1      29.680 -15.531  -6.332  0.00  0.00     0.193 C 
ATOM      4  S   UNL d   1      30.846 -16.386  -7.204  0.00  0.00    -0.039 SA
BRANCH   3   5
ATOM      5  N   UNL d   1      29.440 -15.669  -4.933  0.00  0.00    -0.301 N 
ATOM      6  C   UNL d   1      30.142 -16.537  -4.049  0.00  0.00     0.248 C 
ATOM      7  O   UNL d   1      31.053 -17.275  -4.428  0.00  0.00    -0.271 OA
ATOM      8  H   UNL d   1      28.706 -15.100  -4.533  0.00  0.00     0.171 HD
BRANCH   6   9
ATOM      9  C   UNL d   1      29.764 -16.576  -2.537  0.00  0.00     0.278 C 
BRANCH   9  10
ATOM     10  O   UNL d   1      28.585 -15.749  -2.332  0.00  0.00    -0.342 OA
BRANCH  10  11
ATOM     11  C   UNL d   1      27.445 -16.286  -1.795  0.00  0.00     0.070 A 
ATOM     12  C   UNL d   1      27.425 -17.137  -0.696  0.00  0.00     0.044 A 
ATOM     13  C   UNL d   1      26.217 -17.656  -0.185  0.00  0.00    -0.042 A 
ATOM     14  C   UNL d   1      26.280 -18.575   0.999  0.00  0.00     0.049 C 
ATOM     15  C   UNL d   1      25.007 -17.304  -0.800  0.00  0.00     0.017 A 
ATOM     16  C   UNL d   1      25.008 -16.453  -1.905  0.00  0.00     0.022 A 
ATOM     17 BR   UNL d   1      23.338 -17.962  -0.174  0.00  0.00    -0.051 Br
ATOM     18  C   UNL d   1      26.223 -15.950  -2.401  0.00  0.00     0.038 A 
ENDBRANCH  10  11
ENDBRANCH   9  10
ENDBRANCH   6   9
ENDBRANCH   3   5
ENDBRANCH   1   3
BRANCH   1  19
ATOM     19  N   UNL d   1      27.916 -13.787  -6.248  0.00  0.00    -0.268 N 
ATOM     20  C   UNL d   1      26.909 -14.355  -5.479  0.00  0.00     0.236 C 
ATOM     21  O   UNL d   1      26.760 -15.575  -5.403  0.00  0.00    -0.272 OA
ATOM     22  H   UNL d   1      28.051 -12.776  -6.321  0.00  0.00     0.190 HD
BRANCH  20  23
ATOM     23  C   UNL d   1      25.995 -13.359  -4.734  0.00  0.00     0.114 C 
BRANCH  23  24
ATOM     24  C   UNL d   1      26.774 -12.241  -4.008  0.00  0.00     0.112 C 
BRANCH  24  25
ATOM     25  C   UNL d   1      27.897 -12.781  -3.123  0.00  0.00     0.218 C 
ATOM     26  O   UNL d   1      28.973 -13.176  -3.578  0.00  0.00    -0.274 OA
ATOM     27  N   UNL d   1      27.615 -12.804  -1.776  0.00  0.00    -0.357 N 
ATOM     28  H   UNL d   1      26.767 -12.361  -1.457  0.00  0.00     0.162 HD
BRANCH  27  29
ATOM     29  C   UNL d   1      28.581 -13.288  -0.793  0.00  0.00     0.161 C 
BRANCH  29  30
ATOM     30  C   UNL d   1      28.082 -13.333   0.638  0.00  0.00    -0.041 A 
ATOM     31  C   UNL d   1      27.333 -12.299   1.218  0.00  0.00     0.009 A 
ATOM     32  C   UNL d   1      27.030 -12.305   2.580  0.00  0.00     0.001 A 
ATOM     33  C   UNL d   1      27.358 -13.405   3.363  0.00  0.00     0.000 A 
ATOM     34  C   UNL d   1      28.026 -14.484   2.793  0.00  0.00     0.001 A 
ATOM     35  C   UNL d   1      28.395 -14.445   1.443  0.00  0.00     0.009 A 
ENDBRANCH  29  30
ENDBRANCH  27  29
ENDBRANCH  24  25
ENDBRANCH  23  24
ENDBRANCH  20  23
ENDBRANCH   1  19
TORSDOF 11
ENDMDL
MODEL 5
REMARK VINA RESULT:    -6.420      5.084      8.309
REMARK INTER + INTRA:         -14.244
REMARK INTER:                  -9.701
REMARK INTRA:                  -4.543
REMARK CONF_INDEPENDENT:        3.281
REMARK UNBOUND:                -4.543
REMARK  11 active torsions:
REMARK  status: ('A' for Active; 'I' for Inactive)
REMARK    1  A    between atoms: C_4  and  O_5 
REMARK    2  A    between atoms: O_5  and  C_6 
REMARK    3  A    between atoms: C_6  and  C_7 
REMARK       I    between atoms: C_7  and  N_9 
REMARK    4  A    between atoms: N_9  and  C_10 
REMARK    5  A    between atoms: C_10  and  N_12 
REMARK    6  A    between atoms: N_12  and  N_13 
REMARK       I    between atoms: N_13  and  C_14 
REMARK    7  A    between atoms: C_14  and  C_16 
REMARK    8  A    between atoms: C_16  and  C_17 
REMARK    9  A    between atoms: C_17  and  C_18 
REMARK       I    between atoms: C_18  and  N_20 
REMARK   10  A    between atoms: N_20  and  C_21 
REMARK   11  A    between atoms: C_21  and  C_22 
ROOT
ATOM      1  N   UNL d   1      31.310 -13.860   3.473  0.00  0.00    -0.273 N 
ATOM      2  H   UNL d   1      31.853 -13.722   4.323  0.00  0.00     0.189 HD
ENDROOT
BRANCH   1   3
ATOM      3  C   UNL d   1      31.628 -14.705   2.388  0.00  0.00     0.193 C 
ATOM      4  S   UNL d   1      33.251 -15.066   2.092  0.00  0.00    -0.039 SA
BRANCH   3   5
ATOM      5  N   UNL d   1      30.529 -15.191   1.621  0.00  0.00    -0.301 N 
ATOM      6  C   UNL d   1      30.495 -15.324   0.203  0.00  0.00     0.248 C 
ATOM      7  O   UNL d   1      31.449 -15.017  -0.514  0.00  0.00    -0.271 OA
ATOM      8  H   UNL d   1      29.698 -15.467   2.128  0.00  0.00     0.171 HD
BRANCH   6   9
ATOM      9  C   UNL d   1      29.215 -15.875  -0.494  0.00  0.00     0.278 C 
BRANCH   9  10
ATOM     10  O   UNL d   1      28.116 -15.840   0.458  0.00  0.00    -0.342 OA
BRANCH  10  11
ATOM     11  C   UNL d   1      26.935 -16.478   0.179  0.00  0.00     0.070 A 
ATOM     12  C   UNL d   1      25.906 -15.923  -0.573  0.00  0.00     0.044 A 
ATOM     13  C   UNL d   1      24.714 -16.632  -0.830  0.00  0.00    -0.042 A 
ATOM     14  C   UNL d   1      23.647 -15.960  -1.644  0.00  0.00     0.049 C 
ATOM     15  C   UNL d   1      24.564 -17.928  -0.317  0.00  0.00     0.017 A 
ATOM     16  C   UNL d   1      25.586 -18.500   0.441  0.00  0.00     0.022 A 
ATOM     17 BR   UNL d   1      22.989 -18.947  -0.617  0.00  0.00    -0.051 Br
ATOM     18  C   UNL d   1      26.764 -17.775   0.689  0.00  0.00     0.038 A 
ENDBRANCH  10  11
ENDBRANCH   9  10
ENDBRANCH   6   9
ENDBRANCH   3   5
ENDBRANCH   1   3
BRANCH   1  19
ATOM     19  N   UNL d   1      30.069 -13.072   3.419  0.00  0.00    -0.268 N 
ATOM     20  C   UNL d   1      28.823 -13.638   3.651  0.00  0.00     0.236 C 
ATOM     21  O   UNL d   1      28.692 -14.834   3.914  0.00  0.00    -0.272 OA
ATOM     22  H   UNL d   1      30.194 -12.081   3.199  0.00  0.00     0.190 HD
BRANCH  20  23
ATOM     23  C   UNL d   1      27.622 -12.672   3.556  0.00  0.00     0.114 C 
BRANCH  23  24
ATOM     24  C   UNL d   1      26.657 -13.009   2.399  0.00  0.00     0.112 C 
BRANCH  24  25
ATOM     25  C   UNL d   1      27.047 -12.330   1.086  0.00  0.00     0.218 C 
ATOM     26  O   UNL d   1      27.368 -11.141   1.020  0.00  0.00    -0.274 OA
ATOM     27  N   UNL d   1      27.004 -13.144  -0.023  0.00  0.00    -0.357 N 
ATOM     28  H   UNL d   1      26.848 -14.131   0.113  0.00  0.00     0.162 HD
BRANCH  27  29
ATOM     29  C   UNL d   1      27.349 -12.652  -1.355  0.00  0.00     0.161 C 
BRANCH  29  30
ATOM     30  C   UNL d   1      26.882 -13.520  -2.507  0.00  0.00    -0.041 A 
ATOM     31  C   UNL d   1      27.703 -14.472  -3.128  0.00  0.00     0.009 A 
ATOM     32  C   UNL d   1      27.291 -15.136  -4.283  0.00  0.00     0.001 A 
ATOM     33  C   UNL d   1      26.001 -14.958  -4.769  0.00  0.00     0.000 A 
ATOM     34  C   UNL d   1      25.135 -14.083  -4.120  0.00  0.00     0.001 A 
ATOM     35  C   UNL d   1      25.574 -13.361  -3.004  0.00  0.00     0.009 A 
ENDBRANCH  29  30
ENDBRANCH  27  29
ENDBRANCH  24  25
ENDBRANCH  23  24
ENDBRANCH  20  23
ENDBRANCH   1  19
TORSDOF 11
ENDMDL
MODEL 6
REMARK VINA RESULT:    -6.336      2.879      4.236
REMARK INTER + INTRA:         -14.047
REMARK INTER:                  -9.617
REMARK INTRA:                  -4.430
REMARK CONF_INDEPENDENT:        3.281
REMARK UNBOUND:                -4.430
REMARK  11 active torsions:
REMARK  status: ('A' for Active; 'I' for Inactive)
REMARK    1  A    between atoms: C_4  and  O_5 
REMARK    2  A    between atoms: O_5  and  C_6 
REMARK    3  A    between atoms: C_6  and  C_7 
REMARK       I    between atoms: C_7  and  N_9 
REMARK    4  A    between atoms: N_9  and  C_10 
REMARK    5  A    between atoms: C_10  and  N_12 
REMARK    6  A    between atoms: N_12  and  N_13 
REMARK       I    between atoms: N_13  and  C_14 
REMARK    7  A    between atoms: C_14  and  C_16 
REMARK    8  A    between atoms: C_16  and  C_17 
REMARK    9  A    between atoms: C_17  and  C_18 
REMARK       I    between atoms: C_18  and  N_20 
REMARK   10  A    between atoms: N_20  and  C_21 
REMARK   11  A    between atoms: C_21  and  C_22 
ROOT
ATOM      1  N   UNL d   1      27.091 -11.545  -2.596  0.00  0.00    -0.273 N 
ATOM      2  H   UNL d   1      27.835 -10.882  -2.388  0.00  0.00     0.189 HD
ENDROOT
BRANCH   1   3
ATOM      3  C   UNL d   1      26.375 -11.666  -3.806  0.00  0.00     0.193 C 
ATOM      4  S   UNL d   1      25.530 -10.323  -4.386  0.00  0.00    -0.039 SA
BRANCH   3   5
ATOM      5  N   UNL d   1      26.428 -12.938  -4.449  0.00  0.00    -0.301 N 
ATOM      6  C   UNL d   1      25.628 -14.071  -4.122  0.00  0.00     0.248 C 
ATOM      7  O   UNL d   1      24.788 -14.052  -3.221  0.00  0.00    -0.271 OA
ATOM      8  H   UNL d   1      27.092 -13.046  -5.203  0.00  0.00     0.171 HD
BRANCH   6   9
ATOM      9  C   UNL d   1      25.801 -15.399  -4.920  0.00  0.00     0.278 C 
BRANCH   9  10
ATOM     10  O   UNL d   1      27.036 -15.323  -5.686  0.00  0.00    -0.342 OA
BRANCH  10  11
ATOM     11  C   UNL d   1      28.243 -15.556  -5.081  0.00  0.00     0.070 A 
ATOM     12  C   UNL d   1      28.405 -15.768  -3.717  0.00  0.00     0.044 A 
ATOM     13  C   UNL d   1      29.675 -16.008  -3.153  0.00  0.00    -0.042 A 
ATOM     14  C   UNL d   1      29.769 -16.220  -1.670  0.00  0.00     0.049 C 
ATOM     15  C   UNL d   1      30.801 -16.034  -3.988  0.00  0.00     0.017 A 
ATOM     16  C   UNL d   1      30.657 -15.821  -5.359  0.00  0.00     0.022 A 
ATOM     17 BR   UNL d   1      32.547 -16.348  -3.305  0.00  0.00    -0.051 Br
ATOM     18  C   UNL d   1      29.384 -15.580  -5.900  0.00  0.00     0.038 A 
ENDBRANCH  10  11
ENDBRANCH   9  10
ENDBRANCH   6   9
ENDBRANCH   3   5
ENDBRANCH   1   3
BRANCH   1  19
ATOM     19  N   UNL d   1      26.765 -12.452  -1.485  0.00  0.00    -0.268 N 
ATOM     20  C   UNL d   1      27.250 -12.249  -0.199  0.00  0.00     0.236 C 
ATOM     21  O   UNL d   1      27.980 -11.296   0.077  0.00  0.00    -0.272 OA
ATOM     22  H   UNL d   1      26.159 -13.238  -1.729  0.00  0.00     0.190 HD
BRANCH  20  23
ATOM     23  C   UNL d   1      26.814 -13.292   0.851  0.00  0.00     0.114 C 
BRANCH  23  24
ATOM     24  C   UNL d   1      27.584 -14.625   0.744  0.00  0.00     0.112 C 
BRANCH  24  25
ATOM     25  C   UNL d   1      26.897 -15.633  -0.178  0.00  0.00     0.218 C 
ATOM     26  O   UNL d   1      26.484 -15.336  -1.302  0.00  0.00    -0.274 OA
ATOM     27  N   UNL d   1      26.763 -16.900   0.344  0.00  0.00    -0.357 N 
ATOM     28  H   UNL d   1      27.223 -17.109   1.217  0.00  0.00     0.162 HD
BRANCH  27  29
ATOM     29  C   UNL d   1      26.132 -17.982  -0.408  0.00  0.00     0.161 C 
BRANCH  29  30
ATOM     30  C   UNL d   1      24.621 -17.900  -0.517  0.00  0.00    -0.041 A 
ATOM     31  C   UNL d   1      23.926 -16.684  -0.594  0.00  0.00     0.009 A 
ATOM     32  C   UNL d   1      22.533 -16.645  -0.532  0.00  0.00     0.001 A 
ATOM     33  C   UNL d   1      21.802 -17.826  -0.522  0.00  0.00     0.000 A 
ATOM     34  C   UNL d   1      22.466 -19.049  -0.532  0.00  0.00     0.001 A 
ATOM     35  C   UNL d   1      23.865 -19.087  -0.520  0.00  0.00     0.009 A 
ENDBRANCH  29  30
ENDBRANCH  27  29
ENDBRANCH  24  25
ENDBRANCH  23  24
ENDBRANCH  20  23
ENDBRANCH   1  19
TORSDOF 11
ENDMDL
MODEL 7
REMARK VINA RESULT:    -6.323      4.338      6.930
REMARK INTER + INTRA:         -14.432
REMARK INTER:                  -9.604
REMARK INTRA:                  -4.828
REMARK CONF_INDEPENDENT:        3.281
REMARK UNBOUND:                -4.828
REMARK  11 active torsions:
REMARK  status: ('A' for Active; 'I' for Inactive)
REMARK    1  A    between atoms: C_4  and  O_5 
REMARK    2  A    between atoms: O_5  and  C_6 
REMARK    3  A    between atoms: C_6  and  C_7 
REMARK       I    between atoms: C_7  and  N_9 
REMARK    4  A    between atoms: N_9  and  C_10 
REMARK    5  A    between atoms: C_10  and  N_12 
REMARK    6  A    between atoms: N_12  and  N_13 
REMARK       I    between atoms: N_13  and  C_14 
REMARK    7  A    between atoms: C_14  and  C_16 
REMARK    8  A    between atoms: C_16  and  C_17 
REMARK    9  A    between atoms: C_17  and  C_18 
REMARK       I    between atoms: C_18  and  N_20 
REMARK   10  A    between atoms: N_20  and  C_21 
REMARK   11  A    between atoms: C_21  and  C_22 
ROOT
ATOM      1  N   UNL d   1      29.544 -15.711  -6.665  0.00  0.00    -0.273 N 
ATOM      2  H   UNL d   1      29.750 -15.849  -7.653  0.00  0.00     0.189 HD
ENDROOT
BRANCH   1   3
ATOM      3  C   UNL d   1      29.879 -16.574  -5.599  0.00  0.00     0.193 C 
ATOM      4  S   UNL d   1      30.592 -18.063  -5.955  0.00  0.00    -0.039 SA
BRANCH   3   5
ATOM      5  N   UNL d   1      29.580 -16.103  -4.286  0.00  0.00    -0.301 N 
ATOM      6  C   UNL d   1      30.474 -16.105  -3.176  0.00  0.00     0.248 C 
ATOM      7  O   UNL d   1      31.627 -16.532  -3.254  0.00  0.00    -0.271 OA
ATOM      8  H   UNL d   1      28.652 -15.734  -4.128  0.00  0.00     0.171 HD
BRANCH   6   9
ATOM      9  C   UNL d   1      30.000 -15.553  -1.798  0.00  0.00     0.278 C 
BRANCH   9  10
ATOM     10  O   UNL d   1      28.753 -14.829  -1.992  0.00  0.00    -0.342 OA
BRANCH  10  11
ATOM     11  C   UNL d   1      28.282 -13.985  -1.020  0.00  0.00     0.070 A 
ATOM     12  C   UNL d   1      28.092 -14.350   0.307  0.00  0.00     0.044 A 
ATOM     13  C   UNL d   1      27.608 -13.434   1.264  0.00  0.00    -0.042 A 
ATOM     14  C   UNL d   1      27.423 -13.907   2.675  0.00  0.00     0.049 C 
ATOM     15  C   UNL d   1      27.312 -12.122   0.866  0.00  0.00     0.017 A 
ATOM     16  C   UNL d   1      27.494 -11.739  -0.463  0.00  0.00     0.022 A 
ATOM     17 BR   UNL d   1      26.653 -10.829   2.093  0.00  0.00    -0.051 Br
ATOM     18  C   UNL d   1      27.974 -12.668  -1.401  0.00  0.00     0.038 A 
ENDBRANCH  10  11
ENDBRANCH   9  10
ENDBRANCH   6   9
ENDBRANCH   3   5
ENDBRANCH   1   3
BRANCH   1  19
ATOM     19  N   UNL d   1      28.819 -14.466  -6.369  0.00  0.00    -0.268 N 
ATOM     20  C   UNL d   1      27.580 -14.463  -5.741  0.00  0.00     0.236 C 
ATOM     21  O   UNL d   1      27.023 -15.506  -5.399  0.00  0.00    -0.272 OA
ATOM     22  H   UNL d   1      29.294 -13.608  -6.659  0.00  0.00     0.190 HD
BRANCH  20  23
ATOM     23  C   UNL d   1      26.955 -13.072  -5.505  0.00  0.00     0.114 C 
BRANCH  23  24
ATOM     24  C   UNL d   1      26.342 -12.908  -4.098  0.00  0.00     0.112 C 
BRANCH  24  25
ATOM     25  C   UNL d   1      25.368 -14.032  -3.743  0.00  0.00     0.218 C 
ATOM     26  O   UNL d   1      24.156 -13.957  -3.957  0.00  0.00    -0.274 OA
ATOM     27  N   UNL d   1      25.945 -15.134  -3.154  0.00  0.00    -0.357 N 
ATOM     28  H   UNL d   1      26.951 -15.184  -3.112  0.00  0.00     0.162 HD
BRANCH  27  29
ATOM     29  C   UNL d   1      25.156 -16.297  -2.754  0.00  0.00     0.161 C 
BRANCH  29  30
ATOM     30  C   UNL d   1      25.575 -16.948  -1.450  0.00  0.00    -0.041 A 
ATOM     31  C   UNL d   1      26.911 -17.033  -1.035  0.00  0.00     0.009 A 
ATOM     32  C   UNL d   1      27.270 -17.777   0.089  0.00  0.00     0.001 A 
ATOM     33  C   UNL d   1      26.289 -18.344   0.894  0.00  0.00     0.000 A 
ATOM     34  C   UNL d   1      24.948 -18.201   0.551  0.00  0.00     0.001 A 
ATOM     35  C   UNL d   1      24.592 -17.517  -0.617  0.00  0.00     0.009 A 
ENDBRANCH  29  30
ENDBRANCH  27  29
ENDBRANCH  24  25
ENDBRANCH  23  24
ENDBRANCH  20  23
ENDBRANCH   1  19
TORSDOF 11
ENDMDL
