MODEL 1
REMARK VINA RESULT:    -9.920      0.000      0.000
REMARK INTER + INTRA:         -16.074
REMARK INTER:                 -12.903
REMARK INTRA:                  -3.171
REMARK CONF_INDEPENDENT:        2.983
REMARK UNBOUND:                -3.171
REMARK  10 active torsions:
REMARK  status: ('A' for Active; 'I' for Inactive)
REMARK    1  A    between atoms: N_2  and  C_4 
REMARK    2  A    between atoms: C_5  and  N_6 
REMARK    3  A    between atoms: N_6  and  C_7 
REMARK    4  A    between atoms: C_7  and  C_8 
REMARK    5  A    between atoms: C_8  and  O_9 
REMARK    6  A    between atoms: C_11  and  N_12 
REMARK    7  A    between atoms: N_15  and  C_16 
REMARK    8  A    between atoms: C_16  and  C_17 
REMARK    9  A    between atoms: C_17  and  O_18 
REMARK   10  A    between atoms: O_18  and  C_19 
ROOT
ATOM      1  C   UNL d   1      27.095  -9.537   2.509  0.00  0.00     0.162 A 
ATOM      2  C   UNL d   1      27.646 -10.201   3.631  0.00  0.00     0.066 A 
ATOM      3  C   UNL d   1      28.213 -11.509   3.452  0.00  0.00     0.063 A 
ATOM      4  C   UNL d   1      28.329 -12.225   2.230  0.00  0.00     0.066 A 
ATOM      5  C   UNL d   1      27.805 -11.491   1.126  0.00  0.00     0.146 A 
ATOM      6  N   UNL d   1      27.746 -11.854  -0.162  0.00  0.00    -0.101 NA
ATOM      7  O   UNL d   1      27.114 -10.817  -0.823  0.00  0.00    -0.106 OA
ATOM      8  N   UNL d   1      26.798  -9.782   0.033  0.00  0.00    -0.100 NA
ATOM      9  C   UNL d   1      27.188 -10.167   1.257  0.00  0.00     0.155 A 
ENDROOT
BRANCH   4  10
ATOM     10  N   UNL d   1      28.860 -13.501   2.161  0.00  0.00    -0.376 N 
ATOM     11  C   UNL d   1      30.009 -13.843   1.324  0.00  0.00     0.150 C 
ATOM     12  C   UNL d   1      29.568 -14.729   0.132  0.00  0.00     0.254 C 
ATOM     13  N   UNL d   1      28.750 -15.968   0.606  0.00  0.00    -0.066 N 
ATOM     14  C   UNL d   1      27.626 -15.546   1.588  0.00  0.00     0.254 C 
ATOM     15  H   UNL d   1      29.409 -16.567   1.122  0.00  0.00     0.280 HD
ATOM     16  C   UNL d   1      28.155 -14.645   2.734  0.00  0.00     0.150 C 
BRANCH  13  17
ATOM     17  C   UNL d   1      28.224 -16.785  -0.593  0.00  0.00     0.261 C 
BRANCH  17  18
ATOM     18  C   UNL d   1      26.897 -17.526  -0.306  0.00  0.00     0.203 C 
BRANCH  18  19
ATOM     19  O   UNL d   1      25.800 -16.599  -0.384  0.00  0.00    -0.349 OA
BRANCH  19  20
ATOM     20  C   UNL d   1      24.562 -17.183  -0.523  0.00  0.00     0.068 C 
ATOM     21  C   UNL d   1      23.394 -16.478  -0.828  0.00  0.00     0.038 C 
ATOM     22  C   UNL d   1      22.157 -17.135  -0.845  0.00  0.00     0.026 C 
ATOM     23  C   UNL d   1      22.101 -18.516  -0.673  0.00  0.00     0.034 C 
ATOM     24 CL   UNL d   1      20.578 -19.313  -0.632  0.00  0.00    -0.084 Cl
ATOM     25  C   UNL d   1      23.276 -19.246  -0.519  0.00  0.00     0.026 C 
ATOM     26  C   UNL d   1      24.501 -18.575  -0.408  0.00  0.00     0.038 C 
ENDBRANCH  19  20
ENDBRANCH  18  19
ENDBRANCH  17  18
ENDBRANCH  13  17
ENDBRANCH   4  10
BRANCH   2  27
ATOM     27  N   UNL d   1      27.514  -9.657   4.912  0.00  0.00    -0.386 N 
ATOM     28  H   UNL d   1      26.676  -9.080   5.069  0.00  0.00     0.159 HD
BRANCH  27  29
ATOM     29  C   UNL d   1      28.646  -9.356   5.768  0.00  0.00     0.146 C 
BRANCH  29  30
ATOM     30  C   UNL d   1      28.752  -7.864   6.067  0.00  0.00     0.183 C 
BRANCH  30  31
ATOM     31  O   UNL d   1      27.443  -7.322   6.208  0.00  0.00    -0.399 OA
ATOM     32  H   UNL d   1      26.836  -7.879   5.691  0.00  0.00     0.209 HD
ENDBRANCH  30  31
ENDBRANCH  29  30
ENDBRANCH  27  29
ENDBRANCH   2  27
BRANCH   1  33
ATOM     33  N   UNL d   1      26.433  -8.260   2.627  0.00  0.00    -0.111 N 
ATOM     34  O   UNL d   1      26.759  -7.543   3.580  0.00  0.00    -0.532 OA
ATOM     35  O   UNL d   1      25.530  -7.998   1.815  0.00  0.00    -0.532 OA
ENDBRANCH   1  33
TORSDOF 10
ENDMDL
MODEL 2
REMARK VINA RESULT:    -9.468      1.643      3.585
REMARK INTER + INTRA:         -15.676
REMARK INTER:                 -12.451
REMARK INTRA:                  -3.225
REMARK CONF_INDEPENDENT:        2.983
REMARK UNBOUND:                -3.225
REMARK  10 active torsions:
REMARK  status: ('A' for Active; 'I' for Inactive)
REMARK    1  A    between atoms: N_2  and  C_4 
REMARK    2  A    between atoms: C_5  and  N_6 
REMARK    3  A    between atoms: N_6  and  C_7 
REMARK    4  A    between atoms: C_7  and  C_8 
REMARK    5  A    between atoms: C_8  and  O_9 
REMARK    6  A    between atoms: C_11  and  N_12 
REMARK    7  A    between atoms: N_15  and  C_16 
REMARK    8  A    between atoms: C_16  and  C_17 
REMARK    9  A    between atoms: C_17  and  O_18 
REMARK   10  A    between atoms: O_18  and  C_19 
ROOT
ATOM      1  C   UNL d   1      26.524  -9.128   1.055  0.00  0.00     0.162 A 
ATOM      2  C   UNL d   1      27.034  -9.927   0.004  0.00  0.00     0.066 A 
ATOM      3  C   UNL d   1      27.738 -11.136   0.332  0.00  0.00     0.063 A 
ATOM      4  C   UNL d   1      27.954 -11.668   1.632  0.00  0.00     0.066 A 
ATOM      5  C   UNL d   1      27.378 -10.851   2.649  0.00  0.00     0.146 A 
ATOM      6  N   UNL d   1      27.388 -11.041   3.974  0.00  0.00    -0.101 NA
ATOM      7  O   UNL d   1      26.734  -9.953   4.521  0.00  0.00    -0.106 OA
ATOM      8  N   UNL d   1      26.279  -9.086   3.548  0.00  0.00    -0.100 NA
ATOM      9  C   UNL d   1      26.677  -9.593   2.372  0.00  0.00     0.155 A 
ENDROOT
BRANCH   4  10
ATOM     10  N   UNL d   1      28.679 -12.826   1.853  0.00  0.00    -0.376 N 
ATOM     11  C   UNL d   1      29.866 -13.184   1.079  0.00  0.00     0.150 C 
ATOM     12  C   UNL d   1      29.569 -14.390   0.154  0.00  0.00     0.254 C 
ATOM     13  N   UNL d   1      28.956 -15.586   0.944  0.00  0.00    -0.066 N 
ATOM     14  C   UNL d   1      27.780 -15.112   1.839  0.00  0.00     0.254 C 
ATOM     15  H   UNL d   1      29.701 -15.932   1.564  0.00  0.00     0.280 HD
ATOM     16  C   UNL d   1      28.161 -13.888   2.712  0.00  0.00     0.150 C 
BRANCH  13  17
ATOM     17  C   UNL d   1      28.563 -16.741  -0.000  0.00  0.00     0.261 C 
BRANCH  17  18
ATOM     18  C   UNL d   1      27.151 -17.311   0.268  0.00  0.00     0.203 C 
BRANCH  18  19
ATOM     19  O   UNL d   1      26.163 -16.457  -0.336  0.00  0.00    -0.349 OA
BRANCH  19  20
ATOM     20  C   UNL d   1      24.915 -17.023  -0.466  0.00  0.00     0.068 C 
ATOM     21  C   UNL d   1      23.782 -16.328  -0.894  0.00  0.00     0.038 C 
ATOM     22  C   UNL d   1      22.528 -16.953  -0.895  0.00  0.00     0.026 C 
ATOM     23  C   UNL d   1      22.426 -18.305  -0.580  0.00  0.00     0.034 C 
ATOM     24 CL   UNL d   1      20.880 -19.057  -0.521  0.00  0.00    -0.084 Cl
ATOM     25  C   UNL d   1      23.572 -19.042  -0.299  0.00  0.00     0.026 C 
ATOM     26  C   UNL d   1      24.811 -18.394  -0.207  0.00  0.00     0.038 C 
ENDBRANCH  19  20
ENDBRANCH  18  19
ENDBRANCH  17  18
ENDBRANCH  13  17
ENDBRANCH   4  10
BRANCH   2  27
ATOM     27  N   UNL d   1      26.979  -9.478  -1.319  0.00  0.00    -0.386 N 
ATOM     28  H   UNL d   1      26.839  -8.466  -1.442  0.00  0.00     0.159 HD
BRANCH  27  29
ATOM     29  C   UNL d   1      26.531 -10.308  -2.421  0.00  0.00     0.146 C 
BRANCH  29  30
ATOM     30  C   UNL d   1      25.567  -9.562  -3.339  0.00  0.00     0.183 C 
BRANCH  30  31
ATOM     31  O   UNL d   1      25.519  -8.192  -2.952  0.00  0.00    -0.399 OA
ATOM     32  H   UNL d   1      24.766  -8.084  -2.346  0.00  0.00     0.209 HD
ENDBRANCH  30  31
ENDBRANCH  29  30
ENDBRANCH  27  29
ENDBRANCH   2  27
BRANCH   1  33
ATOM     33  N   UNL d   1      25.881  -7.860   0.807  0.00  0.00    -0.111 N 
ATOM     34  O   UNL d   1      25.858  -7.048   1.739  0.00  0.00    -0.532 OA
ATOM     35  O   UNL d   1      25.329  -7.696  -0.294  0.00  0.00    -0.532 OA
ENDBRANCH   1  33
TORSDOF 10
ENDMDL
MODEL 3
REMARK VINA RESULT:    -8.914      6.882      9.716
REMARK INTER + INTRA:         -14.521
REMARK INTER:                 -11.897
REMARK INTRA:                  -2.624
REMARK CONF_INDEPENDENT:        2.983
REMARK UNBOUND:                -2.624
REMARK  10 active torsions:
REMARK  status: ('A' for Active; 'I' for Inactive)
REMARK    1  A    between atoms: N_2  and  C_4 
REMARK    2  A    between atoms: C_5  and  N_6 
REMARK    3  A    between atoms: N_6  and  C_7 
REMARK    4  A    between atoms: C_7  and  C_8 
REMARK    5  A    between atoms: C_8  and  O_9 
REMARK    6  A    between atoms: C_11  and  N_12 
REMARK    7  A    between atoms: N_15  and  C_16 
REMARK    8  A    between atoms: C_16  and  C_17 
REMARK    9  A    between atoms: C_17  and  O_18 
REMARK   10  A    between atoms: O_18  and  C_19 
ROOT
ATOM      1  C   UNL d   1      31.940 -21.310   5.391  0.00  0.00     0.162 A 
ATOM      2  C   UNL d   1      33.133 -20.714   4.915  0.00  0.00     0.066 A 
ATOM      3  C   UNL d   1      33.260 -20.446   3.509  0.00  0.00     0.063 A 
ATOM      4  C   UNL d   1      32.278 -20.676   2.508  0.00  0.00     0.066 A 
ATOM      5  C   UNL d   1      31.080 -21.230   3.048  0.00  0.00     0.146 A 
ATOM      6  N   UNL d   1      29.957 -21.574   2.404  0.00  0.00    -0.101 NA
ATOM      7  O   UNL d   1      29.112 -22.099   3.363  0.00  0.00    -0.106 OA
ATOM      8  N   UNL d   1      29.679 -22.063   4.621  0.00  0.00    -0.100 NA
ATOM      9  C   UNL d   1      30.910 -21.552   4.469  0.00  0.00     0.155 A 
ENDROOT
BRANCH   4  10
ATOM     10  N   UNL d   1      32.505 -20.417   1.168  0.00  0.00    -0.376 N 
ATOM     11  C   UNL d   1      33.294 -19.280   0.697  0.00  0.00     0.150 C 
ATOM     12  C   UNL d   1      32.381 -18.230   0.015  0.00  0.00     0.254 C 
ATOM     13  N   UNL d   1      31.491 -18.872  -1.091  0.00  0.00    -0.066 N 
ATOM     14  C   UNL d   1      30.780 -20.145  -0.559  0.00  0.00     0.254 C 
ATOM     15  H   UNL d   1      32.131 -19.163  -1.843  0.00  0.00     0.280 HD
ATOM     16  C   UNL d   1      31.766 -21.126   0.126  0.00  0.00     0.150 C 
BRANCH  13  17
ATOM     17  C   UNL d   1      30.509 -17.843  -1.690  0.00  0.00     0.261 C 
BRANCH  17  18
ATOM     18  C   UNL d   1      29.565 -17.203  -0.645  0.00  0.00     0.203 C 
BRANCH  18  19
ATOM     19  O   UNL d   1      28.507 -16.498  -1.318  0.00  0.00    -0.349 OA
BRANCH  19  20
ATOM     20  C   UNL d   1      27.237 -16.894  -0.967  0.00  0.00     0.068 C 
ATOM     21  C   UNL d   1      26.954 -17.770   0.084  0.00  0.00     0.038 C 
ATOM     22  C   UNL d   1      25.641 -18.207   0.305  0.00  0.00     0.026 C 
ATOM     23  C   UNL d   1      24.597 -17.678  -0.448  0.00  0.00     0.034 C 
ATOM     24 CL   UNL d   1      22.995 -18.259  -0.218  0.00  0.00    -0.084 Cl
ATOM     25  C   UNL d   1      24.853 -16.691  -1.396  0.00  0.00     0.026 C 
ATOM     26  C   UNL d   1      26.176 -16.327  -1.680  0.00  0.00     0.038 C 
ENDBRANCH  19  20
ENDBRANCH  18  19
ENDBRANCH  17  18
ENDBRANCH  13  17
ENDBRANCH   4  10
BRANCH   2  27
ATOM     27  N   UNL d   1      34.221 -20.521   5.772  0.00  0.00    -0.386 N 
ATOM     28  H   UNL d   1      34.017 -20.602   6.778  0.00  0.00     0.159 HD
BRANCH  27  29
ATOM     29  C   UNL d   1      35.362 -19.694   5.432  0.00  0.00     0.146 C 
BRANCH  29  30
ATOM     30  C   UNL d   1      36.347 -19.578   6.592  0.00  0.00     0.183 C 
BRANCH  30  31
ATOM     31  O   UNL d   1      35.872 -20.355   7.687  0.00  0.00    -0.399 OA
ATOM     32  H   UNL d   1      35.252 -21.015   7.333  0.00  0.00     0.209 HD
ENDBRANCH  30  31
ENDBRANCH  29  30
ENDBRANCH  27  29
ENDBRANCH   2  27
BRANCH   1  33
ATOM     33  N   UNL d   1      31.775 -21.686   6.775  0.00  0.00    -0.111 N 
ATOM     34  O   UNL d   1      32.759 -22.167   7.349  0.00  0.00    -0.532 OA
ATOM     35  O   UNL d   1      30.643 -21.576   7.274  0.00  0.00    -0.532 OA
ENDBRANCH   1  33
TORSDOF 10
ENDMDL
MODEL 4
REMARK VINA RESULT:    -8.069      1.813      3.608
REMARK INTER + INTRA:         -15.180
REMARK INTER:                 -11.052
REMARK INTRA:                  -4.128
REMARK CONF_INDEPENDENT:        2.983
REMARK UNBOUND:                -4.128
REMARK  10 active torsions:
REMARK  status: ('A' for Active; 'I' for Inactive)
REMARK    1  A    between atoms: N_2  and  C_4 
REMARK    2  A    between atoms: C_5  and  N_6 
REMARK    3  A    between atoms: N_6  and  C_7 
REMARK    4  A    between atoms: C_7  and  C_8 
REMARK    5  A    between atoms: C_8  and  O_9 
REMARK    6  A    between atoms: C_11  and  N_12 
REMARK    7  A    between atoms: N_15  and  C_16 
REMARK    8  A    between atoms: C_16  and  C_17 
REMARK    9  A    between atoms: C_17  and  O_18 
REMARK   10  A    between atoms: O_18  and  C_19 
ROOT
ATOM      1  C   UNL d   1      27.968  -9.435   4.625  0.00  0.00     0.162 A 
ATOM      2  C   UNL d   1      27.755  -9.866   3.294  0.00  0.00     0.066 A 
ATOM      3  C   UNL d   1      27.954 -11.252   2.974  0.00  0.00     0.063 A 
ATOM      4  C   UNL d   1      28.310 -12.290   3.878  0.00  0.00     0.066 A 
ATOM      5  C   UNL d   1      28.464 -11.811   5.212  0.00  0.00     0.146 A 
ATOM      6  N   UNL d   1      28.795 -12.501   6.311  0.00  0.00    -0.101 NA
ATOM      7  O   UNL d   1      28.853 -11.578   7.338  0.00  0.00    -0.106 OA
ATOM      8  N   UNL d   1      28.530 -10.309   6.905  0.00  0.00    -0.100 NA
ATOM      9  C   UNL d   1      28.304 -10.402   5.586  0.00  0.00     0.155 A 
ENDROOT
BRANCH   4  10
ATOM     10  N   UNL d   1      28.515 -13.596   3.469  0.00  0.00    -0.376 N 
ATOM     11  C   UNL d   1      29.829 -14.237   3.476  0.00  0.00     0.150 C 
ATOM     12  C   UNL d   1      30.336 -14.454   2.028  0.00  0.00     0.254 C 
ATOM     13  N   UNL d   1      29.282 -15.199   1.154  0.00  0.00    -0.066 N 
ATOM     14  C   UNL d   1      27.885 -14.540   1.291  0.00  0.00     0.254 C 
ATOM     15  H   UNL d   1      29.217 -16.154   1.534  0.00  0.00     0.280 HD
ATOM     16  C   UNL d   1      27.470 -14.342   2.772  0.00  0.00     0.150 C 
BRANCH  13  17
ATOM     17  C   UNL d   1      29.750 -15.314  -0.312  0.00  0.00     0.261 C 
BRANCH  17  18
ATOM     18  C   UNL d   1      29.127 -16.509  -1.072  0.00  0.00     0.203 C 
BRANCH  18  19
ATOM     19  O   UNL d   1      28.409 -17.346  -0.148  0.00  0.00    -0.349 OA
BRANCH  19  20
ATOM     20  C   UNL d   1      27.045 -17.364  -0.329  0.00  0.00     0.068 C 
ATOM     21  C   UNL d   1      26.386 -16.709  -1.372  0.00  0.00     0.038 C 
ATOM     22  C   UNL d   1      24.986 -16.689  -1.421  0.00  0.00     0.026 C 
ATOM     23  C   UNL d   1      24.248 -17.422  -0.496  0.00  0.00     0.034 C 
ATOM     24 CL   UNL d   1      22.530 -17.348  -0.519  0.00  0.00    -0.084 Cl
ATOM     25  C   UNL d   1      24.901 -18.201   0.454  0.00  0.00     0.026 C 
ATOM     26  C   UNL d   1      26.297 -18.143   0.560  0.00  0.00     0.038 C 
ENDBRANCH  19  20
ENDBRANCH  18  19
ENDBRANCH  17  18
ENDBRANCH  13  17
ENDBRANCH   4  10
BRANCH   2  27
ATOM     27  N   UNL d   1      27.495  -8.937   2.281  0.00  0.00    -0.386 N 
ATOM     28  H   UNL d   1      27.500  -7.949   2.568  0.00  0.00     0.159 HD
BRANCH  27  29
ATOM     29  C   UNL d   1      26.693  -9.242   1.112  0.00  0.00     0.146 C 
BRANCH  29  30
ATOM     30  C   UNL d   1      25.790  -8.076   0.722  0.00  0.00     0.183 C 
BRANCH  30  31
ATOM     31  O   UNL d   1      25.530  -7.280   1.874  0.00  0.00    -0.399 OA
ATOM     32  H   UNL d   1      26.357  -7.222   2.383  0.00  0.00     0.209 HD
ENDBRANCH  30  31
ENDBRANCH  29  30
ENDBRANCH  27  29
ENDBRANCH   2  27
BRANCH   1  33
ATOM     33  N   UNL d   1      27.871  -8.045   5.002  0.00  0.00    -0.111 N 
ATOM     34  O   UNL d   1      27.030  -7.358   4.411  0.00  0.00    -0.532 OA
ATOM     35  O   UNL d   1      28.686  -7.613   5.835  0.00  0.00    -0.532 OA
ENDBRANCH   1  33
TORSDOF 10
ENDMDL
MODEL 5
REMARK VINA RESULT:    -7.876      2.597      4.454
REMARK INTER + INTRA:         -14.713
REMARK INTER:                 -10.859
REMARK INTRA:                  -3.854
REMARK CONF_INDEPENDENT:        2.983
REMARK UNBOUND:                -3.854
REMARK  10 active torsions:
REMARK  status: ('A' for Active; 'I' for Inactive)
REMARK    1  A    between atoms: N_2  and  C_4 
REMARK    2  A    between atoms: C_5  and  N_6 
REMARK    3  A    between atoms: N_6  and  C_7 
REMARK    4  A    between atoms: C_7  and  C_8 
REMARK    5  A    between atoms: C_8  and  O_9 
REMARK    6  A    between atoms: C_11  and  N_12 
REMARK    7  A    between atoms: N_15  and  C_16 
REMARK    8  A    between atoms: C_16  and  C_17 
REMARK    9  A    between atoms: C_17  and  O_18 
REMARK   10  A    between atoms: O_18  and  C_19 
ROOT
ATOM      1  C   UNL d   1      29.087 -10.300   7.113  0.00  0.00     0.162 A 
ATOM      2  C   UNL d   1      29.072 -10.256   5.698  0.00  0.00     0.066 A 
ATOM      3  C   UNL d   1      29.035 -11.492   4.967  0.00  0.00     0.063 A 
ATOM      4  C   UNL d   1      28.966 -12.802   5.515  0.00  0.00     0.066 A 
ATOM      5  C   UNL d   1      28.935 -12.786   6.941  0.00  0.00     0.146 A 
ATOM      6  N   UNL d   1      28.873 -13.825   7.784  0.00  0.00    -0.101 NA
ATOM      7  O   UNL d   1      28.909 -13.287   9.056  0.00  0.00    -0.106 OA
ATOM      8  N   UNL d   1      28.960 -11.909   9.029  0.00  0.00    -0.100 NA
ATOM      9  C   UNL d   1      29.001 -11.555   7.735  0.00  0.00     0.155 A 
ENDROOT
BRANCH   4  10
ATOM     10  N   UNL d   1      28.971 -13.941   4.729  0.00  0.00    -0.376 N 
ATOM     11  C   UNL d   1      30.198 -14.570   4.243  0.00  0.00     0.150 C 
ATOM     12  C   UNL d   1      30.342 -14.371   2.714  0.00  0.00     0.254 C 
ATOM     13  N   UNL d   1      29.062 -14.828   1.950  0.00  0.00    -0.066 N 
ATOM     14  C   UNL d   1      27.788 -14.223   2.595  0.00  0.00     0.254 C 
ATOM     15  H   UNL d   1      29.012 -15.851   2.059  0.00  0.00     0.280 HD
ATOM     16  C   UNL d   1      27.740 -14.449   4.129  0.00  0.00     0.150 C 
BRANCH  13  17
ATOM     17  C   UNL d   1      29.171 -14.528   0.441  0.00  0.00     0.261 C 
BRANCH  17  18
ATOM     18  C   UNL d   1      28.342 -15.485  -0.446  0.00  0.00     0.203 C 
BRANCH  18  19
ATOM     19  O   UNL d   1      27.901 -16.609   0.338  0.00  0.00    -0.349 OA
BRANCH  19  20
ATOM     20  C   UNL d   1      26.588 -16.968   0.141  0.00  0.00     0.068 C 
ATOM     21  C   UNL d   1      26.028 -18.166   0.595  0.00  0.00     0.038 C 
ATOM     22  C   UNL d   1      24.710 -18.502   0.258  0.00  0.00     0.026 C 
ATOM     23  C   UNL d   1      23.916 -17.589  -0.432  0.00  0.00     0.034 C 
ATOM     24 CL   UNL d   1      22.319 -18.026  -0.898  0.00  0.00    -0.084 Cl
ATOM     25  C   UNL d   1      24.419 -16.333  -0.754  0.00  0.00     0.026 C 
ATOM     26  C   UNL d   1      25.765 -16.037  -0.500  0.00  0.00     0.038 C 
ENDBRANCH  19  20
ENDBRANCH  18  19
ENDBRANCH  17  18
ENDBRANCH  13  17
ENDBRANCH   4  10
BRANCH   2  27
ATOM     27  N   UNL d   1      29.233  -9.041   5.024  0.00  0.00    -0.386 N 
ATOM     28  H   UNL d   1      29.371  -8.214   5.620  0.00  0.00     0.159 HD
BRANCH  27  29
ATOM     29  C   UNL d   1      28.665  -8.779   3.715  0.00  0.00     0.146 C 
BRANCH  29  30
ATOM     30  C   UNL d   1      27.284  -8.137   3.813  0.00  0.00     0.183 C 
BRANCH  30  31
ATOM     31  O   UNL d   1      27.150  -7.507   5.083  0.00  0.00    -0.399 OA
ATOM     32  H   UNL d   1      27.474  -8.130   5.756  0.00  0.00     0.209 HD
ENDBRANCH  30  31
ENDBRANCH  29  30
ENDBRANCH  27  29
ENDBRANCH   2  27
BRANCH   1  33
ATOM     33  N   UNL d   1      29.210  -9.104   7.911  0.00  0.00    -0.111 N 
ATOM     34  O   UNL d   1      29.554  -9.247   9.090  0.00  0.00    -0.532 OA
ATOM     35  O   UNL d   1      28.889  -8.023   7.390  0.00  0.00    -0.532 OA
ENDBRANCH   1  33
TORSDOF 10
ENDMDL
MODEL 6
REMARK VINA RESULT:    -7.815      2.242      2.636
REMARK INTER + INTRA:         -14.610
REMARK INTER:                 -10.798
REMARK INTRA:                  -3.812
REMARK CONF_INDEPENDENT:        2.983
REMARK UNBOUND:                -3.812
REMARK  10 active torsions:
REMARK  status: ('A' for Active; 'I' for Inactive)
REMARK    1  A    between atoms: N_2  and  C_4 
REMARK    2  A    between atoms: C_5  and  N_6 
REMARK    3  A    between atoms: N_6  and  C_7 
REMARK    4  A    between atoms: C_7  and  C_8 
REMARK    5  A    between atoms: C_8  and  O_9 
REMARK    6  A    between atoms: C_11  and  N_12 
REMARK    7  A    between atoms: N_15  and  C_16 
REMARK    8  A    between atoms: C_16  and  C_17 
REMARK    9  A    between atoms: C_17  and  O_18 
REMARK   10  A    between atoms: O_18  and  C_19 
ROOT
ATOM      1  C   UNL d   1      27.117  -9.593   2.590  0.00  0.00     0.162 A 
ATOM      2  C   UNL d   1      27.655 -10.273   3.709  0.00  0.00     0.066 A 
ATOM      3  C   UNL d   1      28.253 -11.565   3.512  0.00  0.00     0.063 A 
ATOM      4  C   UNL d   1      28.413 -12.249   2.276  0.00  0.00     0.066 A 
ATOM      5  C   UNL d   1      27.898 -11.498   1.178  0.00  0.00     0.146 A 
ATOM      6  N   UNL d   1      27.878 -11.831  -0.120  0.00  0.00    -0.101 NA
ATOM      7  O   UNL d   1      27.240 -10.791  -0.770  0.00  0.00    -0.106 OA
ATOM      8  N   UNL d   1      26.882  -9.783   0.103  0.00  0.00    -0.100 NA
ATOM      9  C   UNL d   1      27.252 -10.191   1.326  0.00  0.00     0.155 A 
ENDROOT
BRANCH   4  10
ATOM     10  N   UNL d   1      28.971 -13.511   2.189  0.00  0.00    -0.376 N 
ATOM     11  C   UNL d   1      30.124 -13.818   1.344  0.00  0.00     0.150 C 
ATOM     12  C   UNL d   1      29.698 -14.698   0.142  0.00  0.00     0.254 C 
ATOM     13  N   UNL d   1      28.909 -15.961   0.604  0.00  0.00    -0.066 N 
ATOM     14  C   UNL d   1      27.780 -15.576   1.596  0.00  0.00     0.254 C 
ATOM     15  H   UNL d   1      29.583 -16.551   1.111  0.00  0.00     0.280 HD
ATOM     16  C   UNL d   1      28.293 -14.677   2.751  0.00  0.00     0.150 C 
BRANCH  13  17
ATOM     17  C   UNL d   1      28.396 -16.774  -0.603  0.00  0.00     0.261 C 
BRANCH  17  18
ATOM     18  C   UNL d   1      27.068 -17.518  -0.332  0.00  0.00     0.203 C 
BRANCH  18  19
ATOM     19  O   UNL d   1      25.990 -16.568  -0.249  0.00  0.00    -0.349 OA
BRANCH  19  20
ATOM     20  C   UNL d   1      25.971 -15.631  -1.257  0.00  0.00     0.068 C 
ATOM     21  C   UNL d   1      26.357 -14.299  -1.093  0.00  0.00     0.038 C 
ATOM     22  C   UNL d   1      26.203 -13.385  -2.145  0.00  0.00     0.026 C 
ATOM     23  C   UNL d   1      25.776 -13.829  -3.393  0.00  0.00     0.034 C 
ATOM     24 CL   UNL d   1      25.529 -12.698  -4.665  0.00  0.00    -0.084 Cl
ATOM     25  C   UNL d   1      25.535 -15.182  -3.606  0.00  0.00     0.026 C 
ATOM     26  C   UNL d   1      25.597 -16.077  -2.529  0.00  0.00     0.038 C 
ENDBRANCH  19  20
ENDBRANCH  18  19
ENDBRANCH  17  18
ENDBRANCH  13  17
ENDBRANCH   4  10
BRANCH   2  27
ATOM     27  N   UNL d   1      27.482  -9.764   4.999  0.00  0.00    -0.386 N 
ATOM     28  H   UNL d   1      26.765  -9.032   5.099  0.00  0.00     0.159 HD
BRANCH  27  29
ATOM     29  C   UNL d   1      28.540  -9.737   5.990  0.00  0.00     0.146 C 
BRANCH  29  30
ATOM     30  C   UNL d   1      28.909  -8.311   6.391  0.00  0.00     0.183 C 
BRANCH  30  31
ATOM     31  O   UNL d   1      27.918  -7.416   5.896  0.00  0.00    -0.399 OA
ATOM     32  H   UNL d   1      27.083  -7.910   5.828  0.00  0.00     0.209 HD
ENDBRANCH  30  31
ENDBRANCH  29  30
ENDBRANCH  27  29
ENDBRANCH   2  27
BRANCH   1  33
ATOM     33  N   UNL d   1      26.426  -8.333   2.723  0.00  0.00    -0.111 N 
ATOM     34  O   UNL d   1      26.727  -7.625   3.691  0.00  0.00    -0.532 OA
ATOM     35  O   UNL d   1      25.525  -8.077   1.907  0.00  0.00    -0.532 OA
ENDBRANCH   1  33
TORSDOF 10
ENDMDL
MODEL 7
REMARK VINA RESULT:    -7.658      1.697      2.474
REMARK INTER + INTRA:         -14.836
REMARK INTER:                 -10.641
REMARK INTRA:                  -4.196
REMARK CONF_INDEPENDENT:        2.983
REMARK UNBOUND:                -4.196
REMARK  10 active torsions:
REMARK  status: ('A' for Active; 'I' for Inactive)
REMARK    1  A    between atoms: N_2  and  C_4 
REMARK    2  A    between atoms: C_5  and  N_6 
REMARK    3  A    between atoms: N_6  and  C_7 
REMARK    4  A    between atoms: C_7  and  C_8 
REMARK    5  A    between atoms: C_8  and  O_9 
REMARK    6  A    between atoms: C_11  and  N_12 
REMARK    7  A    between atoms: N_15  and  C_16 
REMARK    8  A    between atoms: C_16  and  C_17 
REMARK    9  A    between atoms: C_17  and  O_18 
REMARK   10  A    between atoms: O_18  and  C_19 
ROOT
ATOM      1  C   UNL d   1      27.597  -8.850   4.696  0.00  0.00     0.162 A 
ATOM      2  C   UNL d   1      28.374  -9.748   5.465  0.00  0.00     0.066 A 
ATOM      3  C   UNL d   1      28.482 -11.115   5.036  0.00  0.00     0.063 A 
ATOM      4  C   UNL d   1      27.916 -11.684   3.862  0.00  0.00     0.066 A 
ATOM      5  C   UNL d   1      27.186 -10.725   3.099  0.00  0.00     0.146 A 
ATOM      6  N   UNL d   1      26.526 -10.907   1.949  0.00  0.00    -0.101 NA
ATOM      7  O   UNL d   1      25.954  -9.687   1.640  0.00  0.00    -0.106 OA
ATOM      8  N   UNL d   1      26.274  -8.721   2.572  0.00  0.00    -0.100 NA
ATOM      9  C   UNL d   1      27.019  -9.327   3.508  0.00  0.00     0.155 A 
ENDROOT
BRANCH   4  10
ATOM     10  N   UNL d   1      28.045 -13.025   3.548  0.00  0.00    -0.376 N 
ATOM     11  C   UNL d   1      29.257 -13.796   3.821  0.00  0.00     0.150 C 
ATOM     12  C   UNL d   1      29.989 -14.145   2.501  0.00  0.00     0.254 C 
ATOM     13  N   UNL d   1      29.033 -14.827   1.476  0.00  0.00    -0.066 N 
ATOM     14  C   UNL d   1      27.716 -14.022   1.328  0.00  0.00     0.254 C 
ATOM     15  H   UNL d   1      28.796 -15.747   1.872  0.00  0.00     0.280 HD
ATOM     16  C   UNL d   1      27.066 -13.699   2.698  0.00  0.00     0.150 C 
BRANCH  13  17
ATOM     17  C   UNL d   1      29.741 -15.073   0.127  0.00  0.00     0.261 C 
BRANCH  17  18
ATOM     18  C   UNL d   1      29.099 -16.199  -0.717  0.00  0.00     0.203 C 
BRANCH  18  19
ATOM     19  O   UNL d   1      28.360 -17.085   0.144  0.00  0.00    -0.349 OA
BRANCH  19  20
ATOM     20  C   UNL d   1      27.013 -17.161  -0.128  0.00  0.00     0.068 C 
ATOM     21  C   UNL d   1      26.377 -16.433  -1.137  0.00  0.00     0.038 C 
ATOM     22  C   UNL d   1      24.984 -16.487  -1.275  0.00  0.00     0.026 C 
ATOM     23  C   UNL d   1      24.241 -17.359  -0.484  0.00  0.00     0.034 C 
ATOM     24 CL   UNL d   1      22.526 -17.381  -0.613  0.00  0.00    -0.084 Cl
ATOM     25  C   UNL d   1      24.885 -18.200   0.418  0.00  0.00     0.026 C 
ATOM     26  C   UNL d   1      26.265 -18.074   0.622  0.00  0.00     0.038 C 
ENDBRANCH  19  20
ENDBRANCH  18  19
ENDBRANCH  17  18
ENDBRANCH  13  17
ENDBRANCH   4  10
BRANCH   2  27
ATOM     27  N   UNL d   1      28.908  -9.350   6.695  0.00  0.00    -0.386 N 
ATOM     28  H   UNL d   1      28.327  -8.705   7.248  0.00  0.00     0.159 HD
BRANCH  27  29
ATOM     29  C   UNL d   1      30.333  -9.282   6.956  0.00  0.00     0.146 C 
BRANCH  29  30
ATOM     30  C   UNL d   1      30.713  -8.012   7.712  0.00  0.00     0.183 C 
BRANCH  30  31
ATOM     31  O   UNL d   1      29.527  -7.351   8.140  0.00  0.00    -0.399 OA
ATOM     32  H   UNL d   1      28.991  -7.166   7.350  0.00  0.00     0.209 HD
ENDBRANCH  30  31
ENDBRANCH  29  30
ENDBRANCH  27  29
ENDBRANCH   2  27
BRANCH   1  33
ATOM     33  N   UNL d   1      27.373  -7.486   5.110  0.00  0.00    -0.111 N 
ATOM     34  O   UNL d   1      26.918  -6.707   4.265  0.00  0.00    -0.532 OA
ATOM     35  O   UNL d   1      27.722  -7.165   6.259  0.00  0.00    -0.532 OA
ENDBRANCH   1  33
TORSDOF 10
ENDMDL
MODEL 8
REMARK VINA RESULT:    -7.633      4.961      8.990
REMARK INTER + INTRA:         -14.528
REMARK INTER:                 -10.616
REMARK INTRA:                  -3.912
REMARK CONF_INDEPENDENT:        2.983
REMARK UNBOUND:                -3.912
REMARK  10 active torsions:
REMARK  status: ('A' for Active; 'I' for Inactive)
REMARK    1  A    between atoms: N_2  and  C_4 
REMARK    2  A    between atoms: C_5  and  N_6 
REMARK    3  A    between atoms: N_6  and  C_7 
REMARK    4  A    between atoms: C_7  and  C_8 
REMARK    5  A    between atoms: C_8  and  O_9 
REMARK    6  A    between atoms: C_11  and  N_12 
REMARK    7  A    between atoms: N_15  and  C_16 
REMARK    8  A    between atoms: C_16  and  C_17 
REMARK    9  A    between atoms: C_17  and  O_18 
REMARK   10  A    between atoms: O_18  and  C_19 
ROOT
ATOM      1  C   UNL d   1      26.384 -15.345  -3.464  0.00  0.00     0.162 A 
ATOM      2  C   UNL d   1      27.761 -15.063  -3.295  0.00  0.00     0.066 A 
ATOM      3  C   UNL d   1      28.359 -15.276  -2.006  0.00  0.00     0.063 A 
ATOM      4  C   UNL d   1      27.719 -15.799  -0.849  0.00  0.00     0.066 A 
ATOM      5  C   UNL d   1      26.349 -16.112  -1.088  0.00  0.00     0.146 A 
ATOM      6  N   UNL d   1      25.449 -16.615  -0.233  0.00  0.00    -0.101 NA
ATOM      7  O   UNL d   1      24.260 -16.696  -0.934  0.00  0.00    -0.106 OA
ATOM      8  N   UNL d   1      24.407 -16.277  -2.241  0.00  0.00    -0.100 NA
ATOM      9  C   UNL d   1      25.682 -15.884  -2.374  0.00  0.00     0.155 A 
ENDROOT
BRANCH   4  10
ATOM     10  N   UNL d   1      28.371 -15.937   0.364  0.00  0.00    -0.376 N 
ATOM     11  C   UNL d   1      27.781 -15.525   1.637  0.00  0.00     0.150 C 
ATOM     12  C   UNL d   1      28.508 -14.276   2.195  0.00  0.00     0.254 C 
ATOM     13  N   UNL d   1      30.051 -14.489   2.262  0.00  0.00    -0.066 N 
ATOM     14  C   UNL d   1      30.591 -15.044   0.917  0.00  0.00     0.254 C 
ATOM     15  H   UNL d   1      30.211 -15.206   2.983  0.00  0.00     0.280 HD
ATOM     16  C   UNL d   1      29.790 -16.277   0.425  0.00  0.00     0.150 C 
BRANCH  13  17
ATOM     17  C   UNL d   1      30.776 -13.205   2.715  0.00  0.00     0.261 C 
BRANCH  17  18
ATOM     18  C   UNL d   1      30.862 -13.049   4.251  0.00  0.00     0.203 C 
BRANCH  18  19
ATOM     19  O   UNL d   1      30.043 -14.049   4.885  0.00  0.00    -0.349 OA
BRANCH  19  20
ATOM     20  C   UNL d   1      29.692 -13.765   6.184  0.00  0.00     0.068 C 
ATOM     21  C   UNL d   1      30.398 -14.219   7.302  0.00  0.00     0.038 C 
ATOM     22  C   UNL d   1      29.910 -13.974   8.592  0.00  0.00     0.026 C 
ATOM     23  C   UNL d   1      28.782 -13.177   8.769  0.00  0.00     0.034 C 
ATOM     24 CL   UNL d   1      28.148 -12.928  10.348  0.00  0.00    -0.084 Cl
ATOM     25  C   UNL d   1      28.161 -12.596   7.668  0.00  0.00     0.026 C 
ATOM     26  C   UNL d   1      28.594 -12.919   6.375  0.00  0.00     0.038 C 
ENDBRANCH  19  20
ENDBRANCH  18  19
ENDBRANCH  17  18
ENDBRANCH  13  17
ENDBRANCH   4  10
BRANCH   2  27
ATOM     27  N   UNL d   1      28.491 -14.453  -4.320  0.00  0.00    -0.386 N 
ATOM     28  H   UNL d   1      27.946 -14.157  -5.142  0.00  0.00     0.159 HD
BRANCH  27  29
ATOM     29  C   UNL d   1      29.893 -14.730  -4.569  0.00  0.00     0.146 C 
BRANCH  29  30
ATOM     30  C   UNL d   1      30.126 -15.263  -5.980  0.00  0.00     0.183 C 
BRANCH  30  31
ATOM     31  O   UNL d   1      28.870 -15.575  -6.575  0.00  0.00    -0.399 OA
ATOM     32  H   UNL d   1      28.254 -14.855  -6.355  0.00  0.00     0.209 HD
ENDBRANCH  30  31
ENDBRANCH  29  30
ENDBRANCH  27  29
ENDBRANCH   2  27
BRANCH   1  33
ATOM     33  N   UNL d   1      25.696 -15.074  -4.704  0.00  0.00    -0.111 N 
ATOM     34  O   UNL d   1      26.262 -15.416  -5.749  0.00  0.00    -0.532 OA
ATOM     35  O   UNL d   1      24.624 -14.450  -4.647  0.00  0.00    -0.532 OA
ENDBRANCH   1  33
TORSDOF 10
ENDMDL
MODEL 9
REMARK VINA RESULT:    -7.477      2.694      4.339
REMARK INTER + INTRA:         -14.385
REMARK INTER:                 -10.460
REMARK INTRA:                  -3.924
REMARK CONF_INDEPENDENT:        2.983
REMARK UNBOUND:                -3.924
REMARK  10 active torsions:
REMARK  status: ('A' for Active; 'I' for Inactive)
REMARK    1  A    between atoms: N_2  and  C_4 
REMARK    2  A    between atoms: C_5  and  N_6 
REMARK    3  A    between atoms: N_6  and  C_7 
REMARK    4  A    between atoms: C_7  and  C_8 
REMARK    5  A    between atoms: C_8  and  O_9 
REMARK    6  A    between atoms: C_11  and  N_12 
REMARK    7  A    between atoms: N_15  and  C_16 
REMARK    8  A    between atoms: C_16  and  C_17 
REMARK    9  A    between atoms: C_17  and  O_18 
REMARK   10  A    between atoms: O_18  and  C_19 
ROOT
ATOM      1  C   UNL d   1      26.521  -9.105   1.085  0.00  0.00     0.162 A 
ATOM      2  C   UNL d   1      27.029  -9.864   0.004  0.00  0.00     0.066 A 
ATOM      3  C   UNL d   1      27.740 -11.081   0.285  0.00  0.00     0.063 A 
ATOM      4  C   UNL d   1      27.965 -11.657   1.565  0.00  0.00     0.066 A 
ATOM      5  C   UNL d   1      27.390 -10.879   2.612  0.00  0.00     0.146 A 
ATOM      6  N   UNL d   1      27.408 -11.117   3.930  0.00  0.00    -0.101 NA
ATOM      7  O   UNL d   1      26.751 -10.052   4.518  0.00  0.00    -0.106 OA
ATOM      8  N   UNL d   1      26.288  -9.153   3.579  0.00  0.00    -0.100 NA
ATOM      9  C   UNL d   1      26.682  -9.616   2.383  0.00  0.00     0.155 A 
ENDROOT
BRANCH   4  10
ATOM     10  N   UNL d   1      28.695 -12.819   1.741  0.00  0.00    -0.376 N 
ATOM     11  C   UNL d   1      29.811 -13.199   0.875  0.00  0.00     0.150 C 
ATOM     12  C   UNL d   1      29.428 -14.415  -0.004  0.00  0.00     0.254 C 
ATOM     13  N   UNL d   1      28.872 -15.594   0.851  0.00  0.00    -0.066 N 
ATOM     14  C   UNL d   1      27.780 -15.096   1.834  0.00  0.00     0.254 C 
ATOM     15  H   UNL d   1      29.664 -15.939   1.412  0.00  0.00     0.280 HD
ATOM     16  C   UNL d   1      28.243 -13.865   2.655  0.00  0.00     0.150 C 
BRANCH  13  17
ATOM     17  C   UNL d   1      28.393 -16.758  -0.041  0.00  0.00     0.261 C 
BRANCH  17  18
ATOM     18  C   UNL d   1      27.144 -17.488   0.507  0.00  0.00     0.203 C 
BRANCH  18  19
ATOM     19  O   UNL d   1      25.983 -16.656   0.333  0.00  0.00    -0.349 OA
BRANCH  19  20
ATOM     20  C   UNL d   1      25.999 -15.877  -0.801  0.00  0.00     0.068 C 
ATOM     21  C   UNL d   1      26.281 -14.509  -0.806  0.00  0.00     0.038 C 
ATOM     22  C   UNL d   1      26.169 -13.769  -1.991  0.00  0.00     0.026 C 
ATOM     23  C   UNL d   1      25.891 -14.417  -3.191  0.00  0.00     0.034 C 
ATOM     24 CL   UNL d   1      25.694 -13.502  -4.634  0.00  0.00    -0.084 Cl
ATOM     25  C   UNL d   1      25.759 -15.802  -3.219  0.00  0.00     0.026 C 
ATOM     26  C   UNL d   1      25.776 -16.527  -2.020  0.00  0.00     0.038 C 
ENDBRANCH  19  20
ENDBRANCH  18  19
ENDBRANCH  17  18
ENDBRANCH  13  17
ENDBRANCH   4  10
BRANCH   2  27
ATOM     27  N   UNL d   1      26.966  -9.368  -1.302  0.00  0.00    -0.386 N 
ATOM     28  H   UNL d   1      26.641  -8.396  -1.396  0.00  0.00     0.159 HD
BRANCH  27  29
ATOM     29  C   UNL d   1      26.750 -10.212  -2.462  0.00  0.00     0.146 C 
BRANCH  29  30
ATOM     30  C   UNL d   1      25.653  -9.662  -3.369  0.00  0.00     0.183 C 
BRANCH  30  31
ATOM     31  O   UNL d   1      25.298  -8.354  -2.932  0.00  0.00    -0.399 OA
ATOM     32  H   UNL d   1      24.780  -8.448  -2.114  0.00  0.00     0.209 HD
ENDBRANCH  30  31
ENDBRANCH  29  30
ENDBRANCH  27  29
ENDBRANCH   2  27
BRANCH   1  33
ATOM     33  N   UNL d   1      25.872  -7.832   0.885  0.00  0.00    -0.111 N 
ATOM     34  O   UNL d   1      25.765  -7.093   1.871  0.00  0.00    -0.532 OA
ATOM     35  O   UNL d   1      25.396  -7.594  -0.238  0.00  0.00    -0.532 OA
ENDBRANCH   1  33
TORSDOF 10
ENDMDL
