MODEL 1
REMARK VINA RESULT:    -8.660      0.000      0.000
REMARK INTER + INTRA:         -11.726
REMARK INTER:                 -11.046
REMARK INTRA:                  -0.679
REMARK CONF_INDEPENDENT:        2.386
REMARK UNBOUND:                -0.679
REMARK  8 active torsions:
REMARK  status: ('A' for Active; 'I' for Inactive)
REMARK    1  A    between atoms: C_6  and  C_7 
REMARK    2  A    between atoms: C_7  and  C_8 
REMARK    3  A    between atoms: C_8  and  N_9 
REMARK       I    between atoms: N_9  and  C_10 
REMARK       I    between atoms: C_10  and  N_12 
REMARK    4  A    between atoms: N_12  and  C_13 
REMARK    5  A    between atoms: C_13  and  C_14 
REMARK    6  A    between atoms: C_17  and  O_18 
REMARK    7  A    between atoms: O_18  and  C_19 
REMARK    8  A    between atoms: C_22  and  N_23 
ROOT
ATOM      1  C   UNL d   1      26.294 -16.903  -0.376  0.00  0.00    -0.040 A 
ATOM      2  C   UNL d   1      27.176 -16.597   0.672  0.00  0.00     0.011 A 
ATOM      3  C   UNL d   1      27.804 -15.340   0.734  0.00  0.00     0.038 A 
ATOM      4  C   UNL d   1      27.642 -14.416  -0.305  0.00  0.00     0.076 A 
ATOM      5  C   UNL d   1      26.811 -14.750  -1.373  0.00  0.00     0.038 A 
ATOM      6  C   UNL d   1      26.151 -15.975  -1.411  0.00  0.00     0.011 A 
ENDROOT
BRANCH   1   7
ATOM      7  C   UNL d   1      25.526 -18.204  -0.416  0.00  0.00     0.162 C 
BRANCH   7   8
ATOM      8  N   UNL d   1      24.135 -18.036  -0.005  0.00  0.00    -0.339 N 
ATOM      9  C   UNL d   1      23.105 -18.431  -0.794  0.00  0.00     0.316 C 
ATOM     10  N   UNL d   1      21.861 -18.197  -0.243  0.00  0.00    -0.343 N 
ATOM     11  O   UNL d   1      23.247 -18.943  -1.906  0.00  0.00    -0.247 OA
ATOM     12  H   UNL d   1      21.779 -17.771   0.668  0.00  0.00     0.164 HD
ATOM     13  H   UNL d   1      23.945 -17.699   0.925  0.00  0.00     0.164 HD
BRANCH  10  14
ATOM     14  C   UNL d   1      20.713 -18.576  -1.023  0.00  0.00     0.132 C 
BRANCH  14  15
ATOM     15  C   UNL d   1      19.943 -19.831  -0.666  0.00  0.00     0.096 C 
BRANCH  15  16
ATOM     16  C   UNL d   1      19.805 -20.114   0.824  0.00  0.00     0.084 A 
ATOM     17  N   UNL d   1      20.655 -19.669   1.773  0.00  0.00    -0.354 N 
ATOM     18  C   UNL d   1      20.273 -20.077   3.030  0.00  0.00     0.106 A 
ATOM     19  H   UNL d   1      21.479 -19.102   1.585  0.00  0.00     0.166 HD
ATOM     20  C   UNL d   1      19.140 -20.808   2.860  0.00  0.00     0.108 A 
ATOM     21  N   UNL d   1      18.871 -20.834   1.496  0.00  0.00    -0.350 N 
ATOM     22  C   UNL d   1      17.735 -21.570   0.934  0.00  0.00     0.156 C 
ENDBRANCH  15  16
ENDBRANCH  14  15
ENDBRANCH  10  14
ENDBRANCH   7   8
ENDBRANCH   1   7
BRANCH   4  23
ATOM     23  O   UNL d   1      28.373 -13.246  -0.218  0.00  0.00    -0.311 OA
BRANCH  23  24
ATOM     24  C   UNL d   1      27.790 -12.142   0.365  0.00  0.00     0.076 A 
ATOM     25  C   UNL d   1      27.836 -10.921  -0.313  0.00  0.00     0.040 A 
ATOM     26  C   UNL d   1      27.311  -9.767   0.285  0.00  0.00     0.039 A 
ATOM     27  C   UNL d   1      26.670  -9.864   1.528  0.00  0.00     0.103 A 
ATOM     28  C   UNL d   1      26.635 -11.084   2.217  0.00  0.00     0.039 A 
ATOM     29  C   UNL d   1      27.230 -12.211   1.647  0.00  0.00     0.040 A 
BRANCH  27  30
ATOM     30  N   UNL d   1      25.975  -8.695   2.086  0.00  0.00    -0.116 N 
ATOM     31  O   UNL d   1      26.281  -8.332   3.230  0.00  0.00    -0.532 OA
ATOM     32  O   UNL d   1      25.147  -8.120   1.363  0.00  0.00    -0.532 OA
ENDBRANCH  27  30
ENDBRANCH  23  24
ENDBRANCH   4  23
TORSDOF 8
ENDMDL
MODEL 2
REMARK VINA RESULT:    -8.415      5.427     10.112
REMARK INTER + INTRA:         -11.419
REMARK INTER:                 -10.801
REMARK INTRA:                  -0.617
REMARK CONF_INDEPENDENT:        2.386
REMARK UNBOUND:                -0.617
REMARK  8 active torsions:
REMARK  status: ('A' for Active; 'I' for Inactive)
REMARK    1  A    between atoms: C_6  and  C_7 
REMARK    2  A    between atoms: C_7  and  C_8 
REMARK    3  A    between atoms: C_8  and  N_9 
REMARK       I    between atoms: N_9  and  C_10 
REMARK       I    between atoms: C_10  and  N_12 
REMARK    4  A    between atoms: N_12  and  C_13 
REMARK    5  A    between atoms: C_13  and  C_14 
REMARK    6  A    between atoms: C_17  and  O_18 
REMARK    7  A    between atoms: O_18  and  C_19 
REMARK    8  A    between atoms: C_22  and  N_23 
ROOT
ATOM      1  C   UNL d   1      26.355 -13.897  -3.576  0.00  0.00    -0.040 A 
ATOM      2  C   UNL d   1      25.578 -15.046  -3.795  0.00  0.00     0.011 A 
ATOM      3  C   UNL d   1      25.200 -15.869  -2.719  0.00  0.00     0.038 A 
ATOM      4  C   UNL d   1      25.683 -15.615  -1.431  0.00  0.00     0.076 A 
ATOM      5  C   UNL d   1      26.504 -14.506  -1.231  0.00  0.00     0.038 A 
ATOM      6  C   UNL d   1      26.838 -13.663  -2.286  0.00  0.00     0.011 A 
ENDROOT
BRANCH   1   7
ATOM      7  C   UNL d   1      26.690 -12.938  -4.695  0.00  0.00     0.162 C 
BRANCH   7   8
ATOM      8  N   UNL d   1      27.982 -13.237  -5.308  0.00  0.00    -0.339 N 
ATOM      9  C   UNL d   1      28.251 -14.451  -5.851  0.00  0.00     0.316 C 
ATOM     10  N   UNL d   1      29.520 -14.550  -6.387  0.00  0.00    -0.343 N 
ATOM     11  O   UNL d   1      27.455 -15.390  -5.863  0.00  0.00    -0.247 OA
ATOM     12  H   UNL d   1      30.150 -13.763  -6.355  0.00  0.00     0.164 HD
ATOM     13  H   UNL d   1      28.652 -12.492  -5.405  0.00  0.00     0.164 HD
BRANCH  10  14
ATOM     14  C   UNL d   1      29.890 -15.811  -6.971  0.00  0.00     0.132 C 
BRANCH  14  15
ATOM     15  C   UNL d   1      30.401 -16.929  -6.085  0.00  0.00     0.096 C 
BRANCH  15  16
ATOM     16  C   UNL d   1      30.803 -18.207  -6.809  0.00  0.00     0.084 A 
ATOM     17  N   UNL d   1      31.219 -18.266  -8.091  0.00  0.00    -0.354 N 
ATOM     18  C   UNL d   1      31.521 -19.553  -8.470  0.00  0.00     0.106 A 
ATOM     19  H   UNL d   1      31.300 -17.459  -8.706  0.00  0.00     0.166 HD
ATOM     20  C   UNL d   1      31.283 -20.331  -7.381  0.00  0.00     0.108 A 
ATOM     21  N   UNL d   1      30.828 -19.492  -6.370  0.00  0.00    -0.350 N 
ATOM     22  C   UNL d   1      30.433 -19.993  -5.051  0.00  0.00     0.156 C 
ENDBRANCH  15  16
ENDBRANCH  14  15
ENDBRANCH  10  14
ENDBRANCH   7   8
ENDBRANCH   1   7
BRANCH   4  23
ATOM     23  O   UNL d   1      25.349 -16.529  -0.449  0.00  0.00    -0.311 OA
BRANCH  23  24
ATOM     24  C   UNL d   1      24.177 -17.242  -0.579  0.00  0.00     0.076 A 
ATOM     25  C   UNL d   1      22.990 -16.546  -0.823  0.00  0.00     0.040 A 
ATOM     26  C   UNL d   1      21.773 -17.239  -0.894  0.00  0.00     0.039 A 
ATOM     27  C   UNL d   1      21.768 -18.638  -0.799  0.00  0.00     0.103 A 
ATOM     28  C   UNL d   1      22.954 -19.337  -0.541  0.00  0.00     0.039 A 
ATOM     29  C   UNL d   1      24.150 -18.630  -0.394  0.00  0.00     0.040 A 
BRANCH  27  30
ATOM     30  N   UNL d   1      20.523 -19.382  -1.034  0.00  0.00    -0.116 N 
ATOM     31  O   UNL d   1      20.274 -19.742  -2.192  0.00  0.00    -0.532 OA
ATOM     32  O   UNL d   1      19.811 -19.634  -0.050  0.00  0.00    -0.532 OA
ENDBRANCH  27  30
ENDBRANCH  23  24
ENDBRANCH   4  23
TORSDOF 8
ENDMDL
MODEL 3
REMARK VINA RESULT:    -8.414      5.218     10.873
REMARK INTER + INTRA:         -11.374
REMARK INTER:                 -10.800
REMARK INTRA:                  -0.574
REMARK CONF_INDEPENDENT:        2.386
REMARK UNBOUND:                -0.574
REMARK  8 active torsions:
REMARK  status: ('A' for Active; 'I' for Inactive)
REMARK    1  A    between atoms: C_6  and  C_7 
REMARK    2  A    between atoms: C_7  and  C_8 
REMARK    3  A    between atoms: C_8  and  N_9 
REMARK       I    between atoms: N_9  and  C_10 
REMARK       I    between atoms: C_10  and  N_12 
REMARK    4  A    between atoms: N_12  and  C_13 
REMARK    5  A    between atoms: C_13  and  C_14 
REMARK    6  A    between atoms: C_17  and  O_18 
REMARK    7  A    between atoms: O_18  and  C_19 
REMARK    8  A    between atoms: C_22  and  N_23 
ROOT
ATOM      1  C   UNL d   1      26.472 -13.823  -3.474  0.00  0.00    -0.040 A 
ATOM      2  C   UNL d   1      25.808 -15.008  -3.830  0.00  0.00     0.011 A 
ATOM      3  C   UNL d   1      25.450 -15.949  -2.848  0.00  0.00     0.038 A 
ATOM      4  C   UNL d   1      25.847 -15.769  -1.518  0.00  0.00     0.076 A 
ATOM      5  C   UNL d   1      26.559 -14.620  -1.182  0.00  0.00     0.038 A 
ATOM      6  C   UNL d   1      26.870 -13.663  -2.144  0.00  0.00     0.011 A 
ENDROOT
BRANCH   1   7
ATOM      7  C   UNL d   1      26.778 -12.747  -4.490  0.00  0.00     0.162 C 
BRANCH   7   8
ATOM      8  N   UNL d   1      25.754 -11.707  -4.516  0.00  0.00    -0.339 N 
ATOM      9  C   UNL d   1      26.075 -10.391  -4.602  0.00  0.00     0.316 C 
ATOM     10  N   UNL d   1      24.978  -9.552  -4.617  0.00  0.00    -0.343 N 
ATOM     11  O   UNL d   1      27.230  -9.967  -4.653  0.00  0.00    -0.247 OA
ATOM     12  H   UNL d   1      24.045  -9.932  -4.569  0.00  0.00     0.164 HD
ATOM     13  H   UNL d   1      24.787 -11.984  -4.558  0.00  0.00     0.164 HD
BRANCH  10  14
ATOM     14  C   UNL d   1      25.232  -8.138  -4.695  0.00  0.00     0.132 C 
BRANCH  14  15
ATOM     15  C   UNL d   1      24.678  -7.337  -5.855  0.00  0.00     0.096 C 
BRANCH  15  16
ATOM     16  C   UNL d   1      23.381  -6.590  -5.575  0.00  0.00     0.084 A 
ATOM     17  N   UNL d   1      23.013  -6.114  -4.368  0.00  0.00    -0.354 N 
ATOM     18  C   UNL d   1      21.794  -5.478  -4.421  0.00  0.00     0.106 A 
ATOM     19  H   UNL d   1      23.567  -6.212  -3.519  0.00  0.00     0.166 HD
ATOM     20  C   UNL d   1      21.382  -5.562  -5.713  0.00  0.00     0.108 A 
ATOM     21  N   UNL d   1      22.361  -6.261  -6.410  0.00  0.00    -0.350 N 
ATOM     22  C   UNL d   1      22.237  -6.577  -7.836  0.00  0.00     0.156 C 
ENDBRANCH  15  16
ENDBRANCH  14  15
ENDBRANCH  10  14
ENDBRANCH   7   8
ENDBRANCH   1   7
BRANCH   4  23
ATOM     23  O   UNL d   1      25.545 -16.790  -0.635  0.00  0.00    -0.311 OA
BRANCH  23  24
ATOM     24  C   UNL d   1      24.298 -17.374  -0.699  0.00  0.00     0.076 A 
ATOM     25  C   UNL d   1      23.182 -16.556  -0.892  0.00  0.00     0.040 A 
ATOM     26  C   UNL d   1      21.896 -17.113  -0.894  0.00  0.00     0.039 A 
ATOM     27  C   UNL d   1      21.746 -18.503  -0.783  0.00  0.00     0.103 A 
ATOM     28  C   UNL d   1      22.862 -19.324  -0.576  0.00  0.00     0.039 A 
ATOM     29  C   UNL d   1      24.132 -18.749  -0.497  0.00  0.00     0.040 A 
BRANCH  27  30
ATOM     30  N   UNL d   1      20.417 -19.111  -0.948  0.00  0.00    -0.116 N 
ATOM     31  O   UNL d   1      20.279 -19.971  -1.827  0.00  0.00    -0.532 OA
ATOM     32  O   UNL d   1      19.521 -18.748  -0.171  0.00  0.00    -0.532 OA
ENDBRANCH  27  30
ENDBRANCH  23  24
ENDBRANCH   4  23
TORSDOF 8
ENDMDL
MODEL 4
REMARK VINA RESULT:    -8.204      4.401     10.011
REMARK INTER + INTRA:         -11.370
REMARK INTER:                 -10.590
REMARK INTRA:                  -0.780
REMARK CONF_INDEPENDENT:        2.386
REMARK UNBOUND:                -0.780
REMARK  8 active torsions:
REMARK  status: ('A' for Active; 'I' for Inactive)
REMARK    1  A    between atoms: C_6  and  C_7 
REMARK    2  A    between atoms: C_7  and  C_8 
REMARK    3  A    between atoms: C_8  and  N_9 
REMARK       I    between atoms: N_9  and  C_10 
REMARK       I    between atoms: C_10  and  N_12 
REMARK    4  A    between atoms: N_12  and  C_13 
REMARK    5  A    between atoms: C_13  and  C_14 
REMARK    6  A    between atoms: C_17  and  O_18 
REMARK    7  A    between atoms: O_18  and  C_19 
REMARK    8  A    between atoms: C_22  and  N_23 
ROOT
ATOM      1  C   UNL d   1      25.548 -16.681  -0.105  0.00  0.00    -0.040 A 
ATOM      2  C   UNL d   1      24.540 -16.095  -0.887  0.00  0.00     0.011 A 
ATOM      3  C   UNL d   1      23.433 -16.851  -1.310  0.00  0.00     0.038 A 
ATOM      4  C   UNL d   1      23.374 -18.225  -1.050  0.00  0.00     0.076 A 
ATOM      5  C   UNL d   1      24.408 -18.813  -0.325  0.00  0.00     0.038 A 
ATOM      6  C   UNL d   1      25.480 -18.056   0.138  0.00  0.00     0.011 A 
ENDROOT
BRANCH   1   7
ATOM      7  C   UNL d   1      26.696 -15.871   0.451  0.00  0.00     0.162 C 
BRANCH   7   8
ATOM      8  N   UNL d   1      27.950 -16.618   0.447  0.00  0.00    -0.339 N 
ATOM      9  C   UNL d   1      28.573 -16.963  -0.708  0.00  0.00     0.316 C 
ATOM     10  N   UNL d   1      29.748 -17.663  -0.519  0.00  0.00    -0.343 N 
ATOM     11  O   UNL d   1      28.140 -16.693  -1.829  0.00  0.00    -0.247 OA
ATOM     12  H   UNL d   1      30.072 -17.872   0.414  0.00  0.00     0.164 HD
ATOM     13  H   UNL d   1      28.404 -16.802   1.327  0.00  0.00     0.164 HD
BRANCH  10  14
ATOM     14  C   UNL d   1      30.463 -18.077  -1.696  0.00  0.00     0.132 C 
BRANCH  14  15
ATOM     15  C   UNL d   1      31.680 -18.971  -1.560  0.00  0.00     0.096 C 
BRANCH  15  16
ATOM     16  C   UNL d   1      31.385 -20.448  -1.331  0.00  0.00     0.084 A 
ATOM     17  N   UNL d   1      30.901 -20.967  -0.184  0.00  0.00    -0.354 N 
ATOM     18  C   UNL d   1      30.729 -22.329  -0.274  0.00  0.00     0.106 A 
ATOM     19  H   UNL d   1      30.688 -20.421   0.648  0.00  0.00     0.166 HD
ATOM     20  C   UNL d   1      31.124 -22.676  -1.528  0.00  0.00     0.108 A 
ATOM     21  N   UNL d   1      31.539 -21.510  -2.163  0.00  0.00    -0.350 N 
ATOM     22  C   UNL d   1      32.070 -21.507  -3.529  0.00  0.00     0.156 C 
ENDBRANCH  15  16
ENDBRANCH  14  15
ENDBRANCH  10  14
ENDBRANCH   7   8
ENDBRANCH   1   7
BRANCH   4  23
ATOM     23  O   UNL d   1      22.304 -18.915  -1.589  0.00  0.00    -0.311 OA
BRANCH  23  24
ATOM     24  C   UNL d   1      21.263 -19.276  -0.760  0.00  0.00     0.076 A 
ATOM     25  C   UNL d   1      20.062 -19.700  -1.335  0.00  0.00     0.040 A 
ATOM     26  C   UNL d   1      18.965 -20.009  -0.520  0.00  0.00     0.039 A 
ATOM     27  C   UNL d   1      19.108 -19.968   0.875  0.00  0.00     0.103 A 
ATOM     28  C   UNL d   1      20.306 -19.531   1.454  0.00  0.00     0.039 A 
ATOM     29  C   UNL d   1      21.368 -19.150   0.630  0.00  0.00     0.040 A 
BRANCH  27  30
ATOM     30  N   UNL d   1      18.016 -20.446   1.736  0.00  0.00    -0.116 N 
ATOM     31  O   UNL d   1      17.509 -21.544   1.471  0.00  0.00    -0.532 OA
ATOM     32  O   UNL d   1      17.691 -19.734   2.698  0.00  0.00    -0.532 OA
ENDBRANCH  27  30
ENDBRANCH  23  24
ENDBRANCH   4  23
TORSDOF 8
ENDMDL
MODEL 5
REMARK VINA RESULT:    -8.162      4.273     10.210
REMARK INTER + INTRA:         -11.457
REMARK INTER:                 -10.549
REMARK INTRA:                  -0.908
REMARK CONF_INDEPENDENT:        2.386
REMARK UNBOUND:                -0.908
REMARK  8 active torsions:
REMARK  status: ('A' for Active; 'I' for Inactive)
REMARK    1  A    between atoms: C_6  and  C_7 
REMARK    2  A    between atoms: C_7  and  C_8 
REMARK    3  A    between atoms: C_8  and  N_9 
REMARK       I    between atoms: N_9  and  C_10 
REMARK       I    between atoms: C_10  and  N_12 
REMARK    4  A    between atoms: N_12  and  C_13 
REMARK    5  A    between atoms: C_13  and  C_14 
REMARK    6  A    between atoms: C_17  and  O_18 
REMARK    7  A    between atoms: O_18  and  C_19 
REMARK    8  A    between atoms: C_22  and  N_23 
ROOT
ATOM      1  C   UNL d   1      25.934 -17.156   0.075  0.00  0.00    -0.040 A 
ATOM      2  C   UNL d   1      25.119 -16.285  -0.665  0.00  0.00     0.011 A 
ATOM      3  C   UNL d   1      23.857 -16.702  -1.123  0.00  0.00     0.038 A 
ATOM      4  C   UNL d   1      23.441 -18.026  -0.940  0.00  0.00     0.076 A 
ATOM      5  C   UNL d   1      24.280 -18.903  -0.255  0.00  0.00     0.038 A 
ATOM      6  C   UNL d   1      25.509 -18.477   0.241  0.00  0.00     0.011 A 
ENDROOT
BRANCH   1   7
ATOM      7  C   UNL d   1      27.249 -16.705   0.668  0.00  0.00     0.162 C 
BRANCH   7   8
ATOM      8  N   UNL d   1      28.391 -17.129  -0.137  0.00  0.00    -0.339 N 
ATOM      9  C   UNL d   1      28.736 -16.486  -1.281  0.00  0.00     0.316 C 
ATOM     10  N   UNL d   1      29.843 -17.023  -1.908  0.00  0.00    -0.343 N 
ATOM     11  O   UNL d   1      28.125 -15.519  -1.737  0.00  0.00    -0.247 OA
ATOM     12  H   UNL d   1      30.318 -17.819  -1.510  0.00  0.00     0.164 HD
ATOM     13  H   UNL d   1      28.984 -17.861   0.217  0.00  0.00     0.164 HD
BRANCH  10  14
ATOM     14  C   UNL d   1      30.267 -16.406  -3.136  0.00  0.00     0.132 C 
BRANCH  14  15
ATOM     15  C   UNL d   1      29.671 -16.863  -4.452  0.00  0.00     0.096 C 
BRANCH  15  16
ATOM     16  C   UNL d   1      29.255 -15.750  -5.404  0.00  0.00     0.084 A 
ATOM     17  N   UNL d   1      30.038 -15.235  -6.374  0.00  0.00    -0.354 N 
ATOM     18  C   UNL d   1      29.392 -14.247  -7.080  0.00  0.00     0.106 A 
ATOM     19  H   UNL d   1      30.992 -15.537  -6.562  0.00  0.00     0.166 HD
ATOM     20  C   UNL d   1      28.154 -14.139  -6.528  0.00  0.00     0.108 A 
ATOM     21  N   UNL d   1      28.088 -15.060  -5.488  0.00  0.00    -0.350 N 
ATOM     22  C   UNL d   1      26.904 -15.199  -4.636  0.00  0.00     0.156 C 
ENDBRANCH  15  16
ENDBRANCH  14  15
ENDBRANCH  10  14
ENDBRANCH   7   8
ENDBRANCH   1   7
BRANCH   4  23
ATOM     23  O   UNL d   1      22.232 -18.383  -1.509  0.00  0.00    -0.311 OA
BRANCH  23  24
ATOM     24  C   UNL d   1      21.262 -18.944  -0.707  0.00  0.00     0.076 A 
ATOM     25  C   UNL d   1      20.104 -19.447  -1.306  0.00  0.00     0.040 A 
ATOM     26  C   UNL d   1      19.071 -19.962  -0.511  0.00  0.00     0.039 A 
ATOM     27  C   UNL d   1      19.242 -20.042   0.879  0.00  0.00     0.103 A 
ATOM     28  C   UNL d   1      20.396 -19.525   1.483  0.00  0.00     0.039 A 
ATOM     29  C   UNL d   1      21.386 -18.943   0.687  0.00  0.00     0.040 A 
BRANCH  27  30
ATOM     30  N   UNL d   1      18.236 -20.727   1.702  0.00  0.00    -0.116 N 
ATOM     31  O   UNL d   1      17.663 -20.069   2.581  0.00  0.00    -0.532 OA
ATOM     32  O   UNL d   1      17.996 -21.916   1.444  0.00  0.00    -0.532 OA
ENDBRANCH  27  30
ENDBRANCH  23  24
ENDBRANCH   4  23
TORSDOF 8
ENDMDL
MODEL 6
REMARK VINA RESULT:    -7.967      4.268     10.267
REMARK INTER + INTRA:         -11.759
REMARK INTER:                 -10.353
REMARK INTRA:                  -1.406
REMARK CONF_INDEPENDENT:        2.386
REMARK UNBOUND:                -1.406
REMARK  8 active torsions:
REMARK  status: ('A' for Active; 'I' for Inactive)
REMARK    1  A    between atoms: C_6  and  C_7 
REMARK    2  A    between atoms: C_7  and  C_8 
REMARK    3  A    between atoms: C_8  and  N_9 
REMARK       I    between atoms: N_9  and  C_10 
REMARK       I    between atoms: C_10  and  N_12 
REMARK    4  A    between atoms: N_12  and  C_13 
REMARK    5  A    between atoms: C_13  and  C_14 
REMARK    6  A    between atoms: C_17  and  O_18 
REMARK    7  A    between atoms: O_18  and  C_19 
REMARK    8  A    between atoms: C_22  and  N_23 
ROOT
ATOM      1  C   UNL d   1      25.704 -16.976  -0.079  0.00  0.00    -0.040 A 
ATOM      2  C   UNL d   1      25.399 -18.333   0.113  0.00  0.00     0.011 A 
ATOM      3  C   UNL d   1      24.279 -18.909  -0.512  0.00  0.00     0.038 A 
ATOM      4  C   UNL d   1      23.391 -18.114  -1.245  0.00  0.00     0.076 A 
ATOM      5  C   UNL d   1      23.667 -16.755  -1.382  0.00  0.00     0.038 A 
ATOM      6  C   UNL d   1      24.802 -16.193  -0.805  0.00  0.00     0.011 A 
ENDROOT
BRANCH   1   7
ATOM      7  C   UNL d   1      26.956 -16.353   0.494  0.00  0.00     0.162 C 
BRANCH   7   8
ATOM      8  N   UNL d   1      28.137 -17.180   0.266  0.00  0.00    -0.339 N 
ATOM      9  C   UNL d   1      28.977 -16.955  -0.775  0.00  0.00     0.316 C 
ATOM     10  N   UNL d   1      30.041 -17.833  -0.831  0.00  0.00    -0.343 N 
ATOM     11  O   UNL d   1      28.815 -16.062  -1.608  0.00  0.00    -0.247 OA
ATOM     12  H   UNL d   1      30.141 -18.557  -0.135  0.00  0.00     0.164 HD
ATOM     13  H   UNL d   1      28.376 -17.878   0.952  0.00  0.00     0.164 HD
BRANCH  10  14
ATOM     14  C   UNL d   1      30.973 -17.669  -1.914  0.00  0.00     0.132 C 
BRANCH  14  15
ATOM     15  C   UNL d   1      30.752 -18.416  -3.214  0.00  0.00     0.096 C 
BRANCH  15  16
ATOM     16  C   UNL d   1      30.403 -17.549  -4.417  0.00  0.00     0.084 A 
ATOM     17  N   UNL d   1      29.900 -16.299  -4.343  0.00  0.00    -0.354 N 
ATOM     18  C   UNL d   1      29.691 -15.761  -5.592  0.00  0.00     0.106 A 
ATOM     19  H   UNL d   1      29.698 -15.812  -3.473  0.00  0.00     0.166 HD
ATOM     20  C   UNL d   1      30.077 -16.713  -6.482  0.00  0.00     0.108 A 
ATOM     21  N   UNL d   1      30.500 -17.813  -5.745  0.00  0.00    -0.350 N 
ATOM     22  C   UNL d   1      30.955 -19.054  -6.378  0.00  0.00     0.156 C 
ENDBRANCH  15  16
ENDBRANCH  14  15
ENDBRANCH  10  14
ENDBRANCH   7   8
ENDBRANCH   1   7
BRANCH   4  23
ATOM     23  O   UNL d   1      22.260 -18.737  -1.740  0.00  0.00    -0.311 OA
BRANCH  23  24
ATOM     24  C   UNL d   1      21.289 -19.150  -0.854  0.00  0.00     0.076 A 
ATOM     25  C   UNL d   1      20.108 -19.699  -1.359  0.00  0.00     0.040 A 
ATOM     26  C   UNL d   1      19.075 -20.066  -0.486  0.00  0.00     0.039 A 
ATOM     27  C   UNL d   1      19.268 -19.952   0.899  0.00  0.00     0.103 A 
ATOM     28  C   UNL d   1      20.445 -19.388   1.408  0.00  0.00     0.039 A 
ATOM     29  C   UNL d   1      21.437 -18.954   0.524  0.00  0.00     0.040 A 
BRANCH  27  30
ATOM     30  N   UNL d   1      18.258 -20.484   1.824  0.00  0.00    -0.116 N 
ATOM     31  O   UNL d   1      17.957 -21.681   1.727  0.00  0.00    -0.532 OA
ATOM     32  O   UNL d   1      17.791 -19.707   2.672  0.00  0.00    -0.532 OA
ENDBRANCH  27  30
ENDBRANCH  23  24
ENDBRANCH   4  23
TORSDOF 8
ENDMDL
MODEL 7
REMARK VINA RESULT:    -7.484      3.601      9.145
REMARK INTER + INTRA:         -11.281
REMARK INTER:                  -9.871
REMARK INTRA:                  -1.411
REMARK CONF_INDEPENDENT:        2.386
REMARK UNBOUND:                -1.411
REMARK  8 active torsions:
REMARK  status: ('A' for Active; 'I' for Inactive)
REMARK    1  A    between atoms: C_6  and  C_7 
REMARK    2  A    between atoms: C_7  and  C_8 
REMARK    3  A    between atoms: C_8  and  N_9 
REMARK       I    between atoms: N_9  and  C_10 
REMARK       I    between atoms: C_10  and  N_12 
REMARK    4  A    between atoms: N_12  and  C_13 
REMARK    5  A    between atoms: C_13  and  C_14 
REMARK    6  A    between atoms: C_17  and  O_18 
REMARK    7  A    between atoms: O_18  and  C_19 
REMARK    8  A    between atoms: C_22  and  N_23 
ROOT
ATOM      1  C   UNL d   1      27.088 -13.275  -0.333  0.00  0.00    -0.040 A 
ATOM      2  C   UNL d   1      27.378 -14.053   0.799  0.00  0.00     0.011 A 
ATOM      3  C   UNL d   1      27.010 -15.409   0.848  0.00  0.00     0.038 A 
ATOM      4  C   UNL d   1      26.253 -15.974  -0.185  0.00  0.00     0.076 A 
ATOM      5  C   UNL d   1      25.917 -15.180  -1.279  0.00  0.00     0.038 A 
ATOM      6  C   UNL d   1      26.324 -13.851  -1.352  0.00  0.00     0.011 A 
ENDROOT
BRANCH   1   7
ATOM      7  C   UNL d   1      27.561 -11.845  -0.459  0.00  0.00     0.162 C 
BRANCH   7   8
ATOM      8  N   UNL d   1      28.268 -11.606  -1.714  0.00  0.00    -0.339 N 
ATOM      9  C   UNL d   1      27.614 -11.225  -2.840  0.00  0.00     0.316 C 
ATOM     10  N   UNL d   1      28.443 -11.043  -3.929  0.00  0.00    -0.343 N 
ATOM     11  O   UNL d   1      26.395 -11.063  -2.906  0.00  0.00    -0.247 OA
ATOM     12  H   UNL d   1      29.438 -11.190  -3.843  0.00  0.00     0.164 HD
ATOM     13  H   UNL d   1      29.274 -11.642  -1.714  0.00  0.00     0.164 HD
BRANCH  10  14
ATOM     14  C   UNL d   1      27.826 -10.650  -5.167  0.00  0.00     0.132 C 
BRANCH  14  15
ATOM     15  C   UNL d   1      27.177 -11.698  -6.049  0.00  0.00     0.096 C 
BRANCH  15  16
ATOM     16  C   UNL d   1      26.487 -12.838  -5.312  0.00  0.00     0.084 A 
ATOM     17  N   UNL d   1      25.375 -12.707  -4.560  0.00  0.00    -0.354 N 
ATOM     18  C   UNL d   1      24.978 -13.910  -4.024  0.00  0.00     0.106 A 
ATOM     19  H   UNL d   1      24.888 -11.827  -4.405  0.00  0.00     0.166 HD
ATOM     20  C   UNL d   1      25.880 -14.830  -4.457  0.00  0.00     0.108 A 
ATOM     21  N   UNL d   1      26.811 -14.155  -5.237  0.00  0.00    -0.350 N 
ATOM     22  C   UNL d   1      27.962 -14.828  -5.846  0.00  0.00     0.156 C 
ENDBRANCH  15  16
ENDBRANCH  14  15
ENDBRANCH  10  14
ENDBRANCH   7   8
ENDBRANCH   1   7
BRANCH   4  23
ATOM     23  O   UNL d   1      25.844 -17.284  -0.013  0.00  0.00    -0.311 OA
BRANCH  23  24
ATOM     24  C   UNL d   1      24.531 -17.608  -0.276  0.00  0.00     0.076 A 
ATOM     25  C   UNL d   1      24.201 -18.948  -0.494  0.00  0.00     0.040 A 
ATOM     26  C   UNL d   1      22.886 -19.300  -0.830  0.00  0.00     0.039 A 
ATOM     27  C   UNL d   1      21.893 -18.311  -0.865  0.00  0.00     0.103 A 
ATOM     28  C   UNL d   1      22.224 -16.965  -0.661  0.00  0.00     0.039 A 
ATOM     29  C   UNL d   1      23.552 -16.615  -0.404  0.00  0.00     0.040 A 
BRANCH  27  30
ATOM     30  N   UNL d   1      20.487 -18.692  -1.056  0.00  0.00    -0.116 N 
ATOM     31  O   UNL d   1      19.624 -17.818  -0.898  0.00  0.00    -0.532 OA
ATOM     32  O   UNL d   1      20.250 -19.861  -1.397  0.00  0.00    -0.532 OA
ENDBRANCH  27  30
ENDBRANCH  23  24
ENDBRANCH   4  23
TORSDOF 8
ENDMDL
MODEL 8
REMARK VINA RESULT:    -7.430      4.566      9.617
REMARK INTER + INTRA:         -11.781
REMARK INTER:                  -9.816
REMARK INTRA:                  -1.965
REMARK CONF_INDEPENDENT:        2.386
REMARK UNBOUND:                -1.965
REMARK  8 active torsions:
REMARK  status: ('A' for Active; 'I' for Inactive)
REMARK    1  A    between atoms: C_6  and  C_7 
REMARK    2  A    between atoms: C_7  and  C_8 
REMARK    3  A    between atoms: C_8  and  N_9 
REMARK       I    between atoms: N_9  and  C_10 
REMARK       I    between atoms: C_10  and  N_12 
REMARK    4  A    between atoms: N_12  and  C_13 
REMARK    5  A    between atoms: C_13  and  C_14 
REMARK    6  A    between atoms: C_17  and  O_18 
REMARK    7  A    between atoms: O_18  and  C_19 
REMARK    8  A    between atoms: C_22  and  N_23 
ROOT
ATOM      1  C   UNL d   1      26.520 -13.912  -3.555  0.00  0.00    -0.040 A 
ATOM      2  C   UNL d   1      26.737 -13.608  -2.201  0.00  0.00     0.011 A 
ATOM      3  C   UNL d   1      26.422 -14.543  -1.199  0.00  0.00     0.038 A 
ATOM      4  C   UNL d   1      25.789 -15.747  -1.529  0.00  0.00     0.076 A 
ATOM      5  C   UNL d   1      25.523 -16.017  -2.870  0.00  0.00     0.038 A 
ATOM      6  C   UNL d   1      25.878 -15.114  -3.867  0.00  0.00     0.011 A 
ENDROOT
BRANCH   1   7
ATOM      7  C   UNL d   1      26.942 -12.971  -4.659  0.00  0.00     0.162 C 
BRANCH   7   8
ATOM      8  N   UNL d   1      28.296 -13.246  -5.132  0.00  0.00    -0.339 N 
ATOM      9  C   UNL d   1      28.590 -14.363  -5.843  0.00  0.00     0.316 C 
ATOM     10  N   UNL d   1      29.919 -14.456  -6.208  0.00  0.00    -0.343 N 
ATOM     11  O   UNL d   1      27.765 -15.229  -6.136  0.00  0.00    -0.247 OA
ATOM     12  H   UNL d   1      30.571 -13.731  -5.946  0.00  0.00     0.164 HD
ATOM     13  H   UNL d   1      29.005 -12.544  -4.998  0.00  0.00     0.164 HD
BRANCH  10  14
ATOM     14  C   UNL d   1      30.317 -15.619  -6.955  0.00  0.00     0.132 C 
BRANCH  14  15
ATOM     15  C   UNL d   1      30.426 -16.959  -6.257  0.00  0.00     0.096 C 
BRANCH  15  16
ATOM     16  C   UNL d   1      30.305 -16.920  -4.739  0.00  0.00     0.084 A 
ATOM     17  N   UNL d   1      29.192 -16.563  -4.066  0.00  0.00    -0.354 N 
ATOM     18  C   UNL d   1      29.377 -16.629  -2.704  0.00  0.00     0.106 A 
ATOM     19  H   UNL d   1      28.320 -16.278  -4.507  0.00  0.00     0.166 HD
ATOM     20  C   UNL d   1      30.659 -17.042  -2.519  0.00  0.00     0.108 A 
ATOM     21  N   UNL d   1      31.222 -17.204  -3.780  0.00  0.00    -0.350 N 
ATOM     22  C   UNL d   1      32.618 -17.609  -3.970  0.00  0.00     0.156 C 
ENDBRANCH  15  16
ENDBRANCH  14  15
ENDBRANCH  10  14
ENDBRANCH   7   8
ENDBRANCH   1   7
BRANCH   4  23
ATOM     23  O   UNL d   1      25.422 -16.565  -0.477  0.00  0.00    -0.311 OA
BRANCH  23  24
ATOM     24  C   UNL d   1      24.236 -17.262  -0.563  0.00  0.00     0.076 A 
ATOM     25  C   UNL d   1      23.065 -16.561  -0.867  0.00  0.00     0.040 A 
ATOM     26  C   UNL d   1      21.835 -17.231  -0.895  0.00  0.00     0.039 A 
ATOM     27  C   UNL d   1      21.798 -18.619  -0.696  0.00  0.00     0.103 A 
ATOM     28  C   UNL d   1      22.968 -19.321  -0.377  0.00  0.00     0.039 A 
ATOM     29  C   UNL d   1      24.178 -18.630  -0.274  0.00  0.00     0.040 A 
BRANCH  27  30
ATOM     30  N   UNL d   1      20.539 -19.352  -0.883  0.00  0.00    -0.116 N 
ATOM     31  O   UNL d   1      20.279 -19.775  -2.018  0.00  0.00    -0.532 OA
ATOM     32  O   UNL d   1      19.825 -19.532   0.115  0.00  0.00    -0.532 OA
ENDBRANCH  27  30
ENDBRANCH  23  24
ENDBRANCH   4  23
TORSDOF 8
ENDMDL
MODEL 9
REMARK VINA RESULT:    -7.301      3.068      9.878
REMARK INTER + INTRA:         -11.357
REMARK INTER:                  -9.687
REMARK INTRA:                  -1.669
REMARK CONF_INDEPENDENT:        2.386
REMARK UNBOUND:                -1.669
REMARK  8 active torsions:
REMARK  status: ('A' for Active; 'I' for Inactive)
REMARK    1  A    between atoms: C_6  and  C_7 
REMARK    2  A    between atoms: C_7  and  C_8 
REMARK    3  A    between atoms: C_8  and  N_9 
REMARK       I    between atoms: N_9  and  C_10 
REMARK       I    between atoms: C_10  and  N_12 
REMARK    4  A    between atoms: N_12  and  C_13 
REMARK    5  A    between atoms: C_13  and  C_14 
REMARK    6  A    between atoms: C_17  and  O_18 
REMARK    7  A    between atoms: O_18  and  C_19 
REMARK    8  A    between atoms: C_22  and  N_23 
ROOT
ATOM      1  C   UNL d   1      26.126 -13.206  -3.447  0.00  0.00    -0.040 A 
ATOM      2  C   UNL d   1      26.303 -13.181  -2.054  0.00  0.00     0.011 A 
ATOM      3  C   UNL d   1      26.193 -14.361  -1.298  0.00  0.00     0.038 A 
ATOM      4  C   UNL d   1      25.799 -15.558  -1.909  0.00  0.00     0.076 A 
ATOM      5  C   UNL d   1      25.566 -15.563  -3.282  0.00  0.00     0.038 A 
ATOM      6  C   UNL d   1      25.723 -14.406  -4.040  0.00  0.00     0.011 A 
ENDROOT
BRANCH   1   7
ATOM      7  C   UNL d   1      26.339 -11.976  -4.299  0.00  0.00     0.162 C 
BRANCH   7   8
ATOM      8  N   UNL d   1      25.593 -10.824  -3.800  0.00  0.00    -0.339 N 
ATOM      9  C   UNL d   1      26.205  -9.805  -3.146  0.00  0.00     0.316 C 
ATOM     10  N   UNL d   1      25.344  -8.802  -2.750  0.00  0.00    -0.343 N 
ATOM     11  O   UNL d   1      27.413  -9.768  -2.909  0.00  0.00    -0.247 OA
ATOM     12  H   UNL d   1      24.358  -8.866  -2.954  0.00  0.00     0.164 HD
ATOM     13  H   UNL d   1      24.615 -10.749  -4.027  0.00  0.00     0.164 HD
BRANCH  10  14
ATOM     14  C   UNL d   1      25.913  -7.689  -2.038  0.00  0.00     0.132 C 
BRANCH  14  15
ATOM     15  C   UNL d   1      25.950  -7.706  -0.523  0.00  0.00     0.096 C 
BRANCH  15  16
ATOM     16  C   UNL d   1      26.830  -8.782   0.099  0.00  0.00     0.084 A 
ATOM     17  N   UNL d   1      28.010  -9.196  -0.406  0.00  0.00    -0.354 N 
ATOM     18  C   UNL d   1      28.583 -10.174   0.374  0.00  0.00     0.106 A 
ATOM     19  H   UNL d   1      28.429  -8.833  -1.260  0.00  0.00     0.166 HD
ATOM     20  C   UNL d   1      27.724 -10.381   1.408  0.00  0.00     0.108 A 
ATOM     21  N   UNL d   1      26.643  -9.528   1.219  0.00  0.00    -0.350 N 
ATOM     22  C   UNL d   1      25.494  -9.503   2.127  0.00  0.00     0.156 C 
ENDBRANCH  15  16
ENDBRANCH  14  15
ENDBRANCH  10  14
ENDBRANCH   7   8
ENDBRANCH   1   7
BRANCH   4  23
ATOM     23  O   UNL d   1      25.614 -16.648  -1.079  0.00  0.00    -0.311 OA
BRANCH  23  24
ATOM     24  C   UNL d   1      24.360 -17.214  -0.996  0.00  0.00     0.076 A 
ATOM     25  C   UNL d   1      23.242 -16.377  -1.045  0.00  0.00     0.040 A 
ATOM     26  C   UNL d   1      21.957 -16.916  -0.896  0.00  0.00     0.039 A 
ATOM     27  C   UNL d   1      21.799 -18.304  -0.778  0.00  0.00     0.103 A 
ATOM     28  C   UNL d   1      22.919 -19.144  -0.715  0.00  0.00     0.039 A 
ATOM     29  C   UNL d   1      24.198 -18.588  -0.786  0.00  0.00     0.040 A 
BRANCH  27  30
ATOM     30  N   UNL d   1      20.451 -18.890  -0.785  0.00  0.00    -0.116 N 
ATOM     31  O   UNL d   1      20.353 -20.117  -0.649  0.00  0.00    -0.532 OA
ATOM     32  O   UNL d   1      19.489 -18.115  -0.893  0.00  0.00    -0.532 OA
ENDBRANCH  27  30
ENDBRANCH  23  24
ENDBRANCH   4  23
TORSDOF 8
ENDMDL
