MODEL 1
REMARK VINA RESULT:   -30.619      0.000      0.000
REMARK INTER + INTRA:         -34.479
REMARK INTER:                 -33.303
REMARK INTRA:                  -1.175
REMARK CONF_INDEPENDENT:        2.685
REMARK UNBOUND:                -1.175
REMARK  9 active torsions:
REMARK  status: ('A' for Active; 'I' for Inactive)
REMARK    1  A    between atoms: C_2  and  O_3 
REMARK    2  A    between atoms: O_3  and  C_4 
REMARK    3  A    between atoms: C_4  and  C_6 
REMARK    4  A    between atoms: C_7  and  N_8 
REMARK    5  A    between atoms: N_8  and  C_9 
REMARK    6  A    between atoms: C_9  and  N_11 
REMARK       I    between atoms: N_11  and  C_12 
REMARK    7  A    between atoms: C_12  and  C_14 
REMARK    8  A    between atoms: C_21  and  C_22 
REMARK       I    between atoms: C_22  and  N_24 
REMARK    9  A    between atoms: N_24  and  C_25 
ROOT
ATOM      1  C   UNL d   1      26.925 -14.759  -3.565  0.00  0.00     0.080 C 
ATOM      2  C   UNL d   1      27.225 -15.275  -2.306  0.00  0.00     0.094 C 
ATOM      3  S   UNL d   1      28.883 -15.874  -2.344  0.00  0.00    -0.065 SA
ATOM      4  C   UNL d   1      29.037 -15.786  -4.075  0.00  0.00     0.082 C 
ATOM      5  C   UNL d   1      27.906 -15.157  -4.598  0.00  0.00    -0.020 C 
ATOM      6  C   UNL d   1      27.654 -14.872  -6.073  0.00  0.00     0.051 C 
ENDROOT
BRANCH   2   7
ATOM      7  N   UNL d   1      26.508 -15.286  -1.031  0.00  0.00    -0.326 N 
ATOM      8  H   UNL d   1      26.422 -14.374  -0.596  0.00  0.00     0.169 HD
BRANCH   7   9
ATOM      9  C   UNL d   1      26.055 -16.476  -0.334  0.00  0.00     0.179 C 
ATOM     10  S   UNL d   1      27.090 -17.442   0.584  0.00  0.00    -0.040 SA
BRANCH   9  11
ATOM     11  N   UNL d   1      24.641 -16.839  -0.529  0.00  0.00    -0.299 N 
ATOM     12  C   UNL d   1      24.055 -18.163  -0.340  0.00  0.00     0.257 C 
ATOM     13  O   UNL d   1      24.712 -19.194  -0.152  0.00  0.00    -0.267 OA
ATOM     14  H   UNL d   1      24.012 -16.146  -0.905  0.00  0.00     0.171 HD
BRANCH  12  15
ATOM     15  C   UNL d   1      22.613 -18.498  -0.480  0.00  0.00     0.035 C 
ATOM     16  C   UNL d   1      21.968 -19.679  -0.144  0.00  0.00     0.036 C 
ATOM     17  C   UNL d   1      20.622 -19.774  -0.491  0.00  0.00     0.117 C 
ATOM     18  N   UNL d   1      19.903 -18.787  -1.083  0.00  0.00    -0.273 NA
ATOM     19  C   UNL d   1      20.520 -17.609  -1.270  0.00  0.00     0.117 C 
ATOM     20  C   UNL d   1      21.838 -17.414  -0.943  0.00  0.00     0.036 C 
ENDBRANCH  12  15
ENDBRANCH   9  11
ENDBRANCH   7   9
ENDBRANCH   2   7
BRANCH   1  21
ATOM     21  C   UNL d   1      25.770 -13.939  -3.974  0.00  0.00     0.296 C 
ATOM     22  O   UNL d   1      24.853 -14.405  -4.617  0.00  0.00    -0.259 OA
BRANCH  21  23
ATOM     23  O   UNL d   1      25.778 -12.595  -3.766  0.00  0.00    -0.318 OA
BRANCH  23  24
ATOM     24  C   UNL d   1      25.960 -11.489  -4.662  0.00  0.00     0.174 C 
ATOM     25  C   UNL d   1      25.556 -10.297  -3.861  0.00  0.00     0.034 C 
ENDBRANCH  23  24
ENDBRANCH  21  23
ENDBRANCH   1  21
BRANCH   4  26
ATOM     26  C   UNL d   1      30.153 -16.300  -4.931  0.00  0.00     0.263 C 
ATOM     27  O   UNL d   1      31.265 -16.496  -4.435  0.00  0.00    -0.267 OA
ATOM     28  N   UNL d   1      30.004 -16.528  -6.302  0.00  0.00    -0.322 N 
ATOM     29  H   UNL d   1      29.331 -15.951  -6.783  0.00  0.00     0.169 HD
BRANCH  28  30
ATOM     30  C   UNL d   1      31.087 -17.092  -7.069  0.00  0.00     0.041 A 
ATOM     31  C   UNL d   1      31.969 -16.234  -7.748  0.00  0.00     0.030 A 
ATOM     32  C   UNL d   1      33.037 -16.745  -8.509  0.00  0.00     0.002 A 
ATOM     33  C   UNL d   1      33.226 -18.118  -8.625  0.00  0.00     0.001 A 
ATOM     34  C   UNL d   1      32.352 -18.983  -7.974  0.00  0.00     0.009 A 
ATOM     35  C   UNL d   1      31.282 -18.492  -7.196  0.00  0.00    -0.035 A 
ATOM     36  C   UNL d   1      30.336 -19.508  -6.610  0.00  0.00     0.050 C 
ENDBRANCH  28  30
ENDBRANCH   4  26
TORSDOF 9
ENDMDL
MODEL 2
REMARK VINA RESULT:   -30.312      0.533      1.329
REMARK INTER + INTRA:         -34.337
REMARK INTER:                 -32.997
REMARK INTRA:                  -1.340
REMARK CONF_INDEPENDENT:        2.685
REMARK UNBOUND:                -1.340
REMARK  9 active torsions:
REMARK  status: ('A' for Active; 'I' for Inactive)
REMARK    1  A    between atoms: C_2  and  O_3 
REMARK    2  A    between atoms: O_3  and  C_4 
REMARK    3  A    between atoms: C_4  and  C_6 
REMARK    4  A    between atoms: C_7  and  N_8 
REMARK    5  A    between atoms: N_8  and  C_9 
REMARK    6  A    between atoms: C_9  and  N_11 
REMARK       I    between atoms: N_11  and  C_12 
REMARK    7  A    between atoms: C_12  and  C_14 
REMARK    8  A    between atoms: C_21  and  C_22 
REMARK       I    between atoms: C_22  and  N_24 
REMARK    9  A    between atoms: N_24  and  C_25 
ROOT
ATOM      1  C   UNL d   1      26.789 -14.479  -3.334  0.00  0.00     0.080 C 
ATOM      2  C   UNL d   1      27.170 -15.036  -2.115  0.00  0.00     0.094 C 
ATOM      3  S   UNL d   1      28.829 -15.610  -2.273  0.00  0.00    -0.065 SA
ATOM      4  C   UNL d   1      28.879 -15.457  -4.006  0.00  0.00     0.082 C 
ATOM      5  C   UNL d   1      27.712 -14.826  -4.437  0.00  0.00    -0.020 C 
ATOM      6  C   UNL d   1      27.368 -14.491  -5.883  0.00  0.00     0.051 C 
ENDROOT
BRANCH   2   7
ATOM      7  N   UNL d   1      26.530 -15.103  -0.801  0.00  0.00    -0.326 N 
ATOM      8  H   UNL d   1      26.508 -14.219  -0.305  0.00  0.00     0.169 HD
BRANCH   7   9
ATOM      9  C   UNL d   1      26.070 -16.318  -0.153  0.00  0.00     0.179 C 
ATOM     10  S   UNL d   1      27.099 -17.322   0.731  0.00  0.00    -0.040 SA
BRANCH   9  11
ATOM     11  N   UNL d   1      24.657 -16.668  -0.368  0.00  0.00    -0.299 N 
ATOM     12  C   UNL d   1      24.033 -17.957  -0.083  0.00  0.00     0.257 C 
ATOM     13  O   UNL d   1      24.659 -18.980   0.223  0.00  0.00    -0.267 OA
ATOM     14  H   UNL d   1      24.058 -16.000  -0.830  0.00  0.00     0.171 HD
BRANCH  12  15
ATOM     15  C   UNL d   1      22.590 -18.274  -0.247  0.00  0.00     0.035 C 
ATOM     16  C   UNL d   1      21.891 -19.375   0.227  0.00  0.00     0.036 C 
ATOM     17  C   UNL d   1      20.562 -19.489  -0.172  0.00  0.00     0.117 C 
ATOM     18  N   UNL d   1      19.905 -18.586  -0.942  0.00  0.00    -0.273 NA
ATOM     19  C   UNL d   1      20.567 -17.465  -1.270  0.00  0.00     0.117 C 
ATOM     20  C   UNL d   1      21.873 -17.255  -0.907  0.00  0.00     0.036 C 
ENDBRANCH  12  15
ENDBRANCH   9  11
ENDBRANCH   7   9
ENDBRANCH   2   7
BRANCH   1  21
ATOM     21  C   UNL d   1      25.602 -13.661  -3.644  0.00  0.00     0.296 C 
ATOM     22  O   UNL d   1      24.675 -14.102  -4.288  0.00  0.00    -0.259 OA
BRANCH  21  23
ATOM     23  O   UNL d   1      25.587 -12.335  -3.338  0.00  0.00    -0.318 OA
BRANCH  23  24
ATOM     24  C   UNL d   1      26.394 -11.240  -3.793  0.00  0.00     0.174 C 
ATOM     25  C   UNL d   1      25.914 -10.982  -5.183  0.00  0.00     0.034 C 
ENDBRANCH  23  24
ENDBRANCH  21  23
ENDBRANCH   1  21
BRANCH   4  26
ATOM     26  C   UNL d   1      29.948 -15.924  -4.945  0.00  0.00     0.263 C 
ATOM     27  O   UNL d   1      31.130 -15.882  -4.597  0.00  0.00    -0.267 OA
ATOM     28  N   UNL d   1      29.668 -16.371  -6.239  0.00  0.00    -0.322 N 
ATOM     29  H   UNL d   1      28.854 -15.975  -6.685  0.00  0.00     0.169 HD
BRANCH  28  30
ATOM     30  C   UNL d   1      30.723 -16.879  -7.080  0.00  0.00     0.041 A 
ATOM     31  C   UNL d   1      30.780 -18.256  -7.358  0.00  0.00     0.030 A 
ATOM     32  C   UNL d   1      31.795 -18.791  -8.172  0.00  0.00     0.002 A 
ATOM     33  C   UNL d   1      32.783 -17.967  -8.700  0.00  0.00     0.001 A 
ATOM     34  C   UNL d   1      32.754 -16.604  -8.421  0.00  0.00     0.009 A 
ATOM     35  C   UNL d   1      31.738 -16.044  -7.617  0.00  0.00    -0.035 A 
ATOM     36  C   UNL d   1      31.847 -14.576  -7.294  0.00  0.00     0.050 C 
ENDBRANCH  28  30
ENDBRANCH   4  26
TORSDOF 9
ENDMDL
MODEL 3
REMARK VINA RESULT:   -29.461      3.525      7.238
REMARK INTER + INTRA:         -33.563
REMARK INTER:                 -32.146
REMARK INTRA:                  -1.417
REMARK CONF_INDEPENDENT:        2.685
REMARK UNBOUND:                -1.417
REMARK  9 active torsions:
REMARK  status: ('A' for Active; 'I' for Inactive)
REMARK    1  A    between atoms: C_2  and  O_3 
REMARK    2  A    between atoms: O_3  and  C_4 
REMARK    3  A    between atoms: C_4  and  C_6 
REMARK    4  A    between atoms: C_7  and  N_8 
REMARK    5  A    between atoms: N_8  and  C_9 
REMARK    6  A    between atoms: C_9  and  N_11 
REMARK       I    between atoms: N_11  and  C_12 
REMARK    7  A    between atoms: C_12  and  C_14 
REMARK    8  A    between atoms: C_21  and  C_22 
REMARK       I    between atoms: C_22  and  N_24 
REMARK    9  A    between atoms: N_24  and  C_25 
ROOT
ATOM      1  C   UNL d   1      26.645 -14.170  -2.933  0.00  0.00     0.080 C 
ATOM      2  C   UNL d   1      26.908 -15.118  -1.946  0.00  0.00     0.094 C 
ATOM      3  S   UNL d   1      27.040 -14.276  -0.403  0.00  0.00    -0.065 SA
ATOM      4  C   UNL d   1      27.121 -12.685  -1.104  0.00  0.00     0.082 C 
ATOM      5  C   UNL d   1      26.887 -12.784  -2.476  0.00  0.00    -0.020 C 
ATOM      6  C   UNL d   1      26.858 -11.617  -3.456  0.00  0.00     0.051 C 
ENDROOT
BRANCH   2   7
ATOM      7  N   UNL d   1      26.958 -16.580  -1.950  0.00  0.00    -0.326 N 
ATOM      8  H   UNL d   1      27.366 -16.979  -2.787  0.00  0.00     0.169 HD
BRANCH   7   9
ATOM      9  C   UNL d   1      26.372 -17.441  -0.938  0.00  0.00     0.179 C 
ATOM     10  S   UNL d   1      27.276 -18.114   0.318  0.00  0.00    -0.040 SA
BRANCH   9  11
ATOM     11  N   UNL d   1      24.943 -17.755  -1.107  0.00  0.00    -0.299 N 
ATOM     12  C   UNL d   1      24.029 -18.209  -0.062  0.00  0.00     0.257 C 
ATOM     13  O   UNL d   1      24.385 -18.549   1.073  0.00  0.00    -0.267 OA
ATOM     14  H   UNL d   1      24.553 -17.743  -2.037  0.00  0.00     0.171 HD
BRANCH  12  15
ATOM     15  C   UNL d   1      22.574 -18.462  -0.237  0.00  0.00     0.035 C 
ATOM     16  C   UNL d   1      21.826 -19.533   0.229  0.00  0.00     0.036 C 
ATOM     17  C   UNL d   1      20.495 -19.587  -0.179  0.00  0.00     0.117 C 
ATOM     18  N   UNL d   1      19.883 -18.653  -0.949  0.00  0.00    -0.273 NA
ATOM     19  C   UNL d   1      20.596 -17.561  -1.269  0.00  0.00     0.117 C 
ATOM     20  C   UNL d   1      21.908 -17.409  -0.897  0.00  0.00     0.036 C 
ENDBRANCH  12  15
ENDBRANCH   9  11
ENDBRANCH   7   9
ENDBRANCH   2   7
BRANCH   1  21
ATOM     21  C   UNL d   1      26.220 -14.385  -4.328  0.00  0.00     0.296 C 
ATOM     22  O   UNL d   1      25.056 -14.551  -4.621  0.00  0.00    -0.259 OA
BRANCH  21  23
ATOM     23  O   UNL d   1      27.150 -14.553  -5.307  0.00  0.00    -0.318 OA
BRANCH  23  24
ATOM     24  C   UNL d   1      28.568 -14.764  -5.254  0.00  0.00     0.174 C 
ATOM     25  C   UNL d   1      29.037 -14.466  -6.639  0.00  0.00     0.034 C 
ENDBRANCH  23  24
ENDBRANCH  21  23
ENDBRANCH   1  21
BRANCH   4  26
ATOM     26  C   UNL d   1      27.415 -11.386  -0.419  0.00  0.00     0.263 C 
ATOM     27  O   UNL d   1      27.991 -10.486  -1.034  0.00  0.00    -0.267 OA
ATOM     28  N   UNL d   1      27.103 -11.159   0.924  0.00  0.00    -0.322 N 
ATOM     29  H   UNL d   1      27.101 -11.967   1.528  0.00  0.00     0.169 HD
BRANCH  28  30
ATOM     30  C   UNL d   1      27.340  -9.867   1.519  0.00  0.00     0.041 A 
ATOM     31  C   UNL d   1      26.245  -9.056   1.864  0.00  0.00     0.030 A 
ATOM     32  C   UNL d   1      26.434  -7.789   2.444  0.00  0.00     0.002 A 
ATOM     33  C   UNL d   1      27.717  -7.300   2.667  0.00  0.00     0.001 A 
ATOM     34  C   UNL d   1      28.814  -8.080   2.315  0.00  0.00     0.009 A 
ATOM     35  C   UNL d   1      28.647  -9.359   1.743  0.00  0.00    -0.035 A 
ATOM     36  C   UNL d   1      29.893 -10.086   1.310  0.00  0.00     0.050 C 
ENDBRANCH  28  30
ENDBRANCH   4  26
TORSDOF 9
ENDMDL
MODEL 4
REMARK VINA RESULT:   -29.269      2.918      4.655
REMARK INTER + INTRA:         -33.438
REMARK INTER:                 -31.954
REMARK INTRA:                  -1.485
REMARK CONF_INDEPENDENT:        2.685
REMARK UNBOUND:                -1.485
REMARK  9 active torsions:
REMARK  status: ('A' for Active; 'I' for Inactive)
REMARK    1  A    between atoms: C_2  and  O_3 
REMARK    2  A    between atoms: O_3  and  C_4 
REMARK    3  A    between atoms: C_4  and  C_6 
REMARK    4  A    between atoms: C_7  and  N_8 
REMARK    5  A    between atoms: N_8  and  C_9 
REMARK    6  A    between atoms: C_9  and  N_11 
REMARK       I    between atoms: N_11  and  C_12 
REMARK    7  A    between atoms: C_12  and  C_14 
REMARK    8  A    between atoms: C_21  and  C_22 
REMARK       I    between atoms: C_22  and  N_24 
REMARK    9  A    between atoms: N_24  and  C_25 
ROOT
ATOM      1  C   UNL d   1      28.414 -15.765  -2.103  0.00  0.00     0.080 C 
ATOM      2  C   UNL d   1      27.095 -15.506  -1.734  0.00  0.00     0.094 C 
ATOM      3  S   UNL d   1      26.204 -15.042  -3.183  0.00  0.00    -0.065 SA
ATOM      4  C   UNL d   1      27.620 -14.834  -4.172  0.00  0.00     0.082 C 
ATOM      5  C   UNL d   1      28.738 -15.267  -3.458  0.00  0.00    -0.020 C 
ATOM      6  C   UNL d   1      30.173 -15.265  -3.971  0.00  0.00     0.051 C 
ENDROOT
BRANCH   2   7
ATOM      7  N   UNL d   1      26.356 -15.666  -0.481  0.00  0.00    -0.326 N 
ATOM      8  H   UNL d   1      26.299 -14.821   0.077  0.00  0.00     0.169 HD
BRANCH   7   9
ATOM      9  C   UNL d   1      25.844 -16.922   0.035  0.00  0.00     0.179 C 
ATOM     10  S   UNL d   1      26.839 -18.091   0.735  0.00  0.00    -0.040 SA
BRANCH   9  11
ATOM     11  N   UNL d   1      24.401 -17.154  -0.147  0.00  0.00    -0.299 N 
ATOM     12  C   UNL d   1      23.730 -18.451  -0.159  0.00  0.00     0.257 C 
ATOM     13  O   UNL d   1      24.319 -19.539  -0.183  0.00  0.00    -0.267 OA
ATOM     14  H   UNL d   1      23.810 -16.368  -0.368  0.00  0.00     0.171 HD
BRANCH  12  15
ATOM     15  C   UNL d   1      22.263 -18.664  -0.282  0.00  0.00     0.035 C 
ATOM     16  C   UNL d   1      21.499 -19.702   0.230  0.00  0.00     0.036 C 
ATOM     17  C   UNL d   1      20.155 -19.725  -0.135  0.00  0.00     0.117 C 
ATOM     18  N   UNL d   1      19.546 -18.788  -0.905  0.00  0.00    -0.273 NA
ATOM     19  C   UNL d   1      20.280 -17.724  -1.270  0.00  0.00     0.117 C 
ATOM     20  C   UNL d   1      21.607 -17.605  -0.942  0.00  0.00     0.036 C 
ENDBRANCH  12  15
ENDBRANCH   9  11
ENDBRANCH   7   9
ENDBRANCH   2   7
BRANCH   1  21
ATOM     21  C   UNL d   1      29.483 -16.405  -1.316  0.00  0.00     0.296 C 
ATOM     22  O   UNL d   1      29.524 -17.606  -1.155  0.00  0.00    -0.259 OA
BRANCH  21  23
ATOM     23  O   UNL d   1      30.371 -15.642  -0.622  0.00  0.00    -0.318 OA
BRANCH  23  24
ATOM     24  C   UNL d   1      30.185 -14.575   0.318  0.00  0.00     0.174 C 
ATOM     25  C   UNL d   1      30.209 -13.339  -0.518  0.00  0.00     0.034 C 
ENDBRANCH  23  24
ENDBRANCH  21  23
ENDBRANCH   1  21
BRANCH   4  26
ATOM     26  C   UNL d   1      27.707 -14.265  -5.555  0.00  0.00     0.263 C 
ATOM     27  O   UNL d   1      27.736 -15.023  -6.528  0.00  0.00    -0.267 OA
ATOM     28  N   UNL d   1      27.803 -12.893  -5.798  0.00  0.00    -0.322 N 
ATOM     29  H   UNL d   1      28.253 -12.341  -5.083  0.00  0.00     0.169 HD
BRANCH  28  30
ATOM     30  C   UNL d   1      27.811 -12.390  -7.150  0.00  0.00     0.041 A 
ATOM     31  C   UNL d   1      28.745 -12.899  -8.068  0.00  0.00     0.030 A 
ATOM     32  C   UNL d   1      28.787 -12.433  -9.395  0.00  0.00     0.002 A 
ATOM     33  C   UNL d   1      27.914 -11.437  -9.820  0.00  0.00     0.001 A 
ATOM     34  C   UNL d   1      26.993 -10.909  -8.920  0.00  0.00     0.009 A 
ATOM     35  C   UNL d   1      26.927 -11.370  -7.588  0.00  0.00    -0.035 A 
ATOM     36  C   UNL d   1      25.962 -10.670  -6.666  0.00  0.00     0.050 C 
ENDBRANCH  28  30
ENDBRANCH   4  26
TORSDOF 9
ENDMDL
MODEL 5
REMARK VINA RESULT:   -28.807      4.628      7.981
REMARK INTER + INTRA:         -33.235
REMARK INTER:                 -31.492
REMARK INTRA:                  -1.743
REMARK CONF_INDEPENDENT:        2.685
REMARK UNBOUND:                -1.743
REMARK  9 active torsions:
REMARK  status: ('A' for Active; 'I' for Inactive)
REMARK    1  A    between atoms: C_2  and  O_3 
REMARK    2  A    between atoms: O_3  and  C_4 
REMARK    3  A    between atoms: C_4  and  C_6 
REMARK    4  A    between atoms: C_7  and  N_8 
REMARK    5  A    between atoms: N_8  and  C_9 
REMARK    6  A    between atoms: C_9  and  N_11 
REMARK       I    between atoms: N_11  and  C_12 
REMARK    7  A    between atoms: C_12  and  C_14 
REMARK    8  A    between atoms: C_21  and  C_22 
REMARK       I    between atoms: C_22  and  N_24 
REMARK    9  A    between atoms: N_24  and  C_25 
ROOT
ATOM      1  C   UNL d   1      27.273 -13.722  -0.935  0.00  0.00     0.080 C 
ATOM      2  C   UNL d   1      27.189 -15.065  -0.569  0.00  0.00     0.094 C 
ATOM      3  S   UNL d   1      27.397 -15.166   1.179  0.00  0.00    -0.065 SA
ATOM      4  C   UNL d   1      27.954 -13.528   1.361  0.00  0.00     0.082 C 
ATOM      5  C   UNL d   1      27.826 -12.869   0.138  0.00  0.00    -0.020 C 
ATOM      6  C   UNL d   1      28.192 -11.413  -0.126  0.00  0.00     0.051 C 
ENDROOT
BRANCH   2   7
ATOM      7  N   UNL d   1      26.855 -16.284  -1.304  0.00  0.00    -0.326 N 
ATOM      8  H   UNL d   1      26.903 -16.187  -2.312  0.00  0.00     0.169 HD
BRANCH   7   9
ATOM      9  C   UNL d   1      26.362 -17.513  -0.709  0.00  0.00     0.179 C 
ATOM     10  S   UNL d   1      27.360 -18.575   0.142  0.00  0.00    -0.040 SA
BRANCH   9  11
ATOM     11  N   UNL d   1      24.943 -17.822  -0.948  0.00  0.00    -0.299 N 
ATOM     12  C   UNL d   1      23.972 -18.254   0.054  0.00  0.00     0.257 C 
ATOM     13  O   UNL d   1      24.265 -18.577   1.212  0.00  0.00    -0.267 OA
ATOM     14  H   UNL d   1      24.602 -17.823  -1.897  0.00  0.00     0.171 HD
BRANCH  12  15
ATOM     15  C   UNL d   1      22.527 -18.502  -0.193  0.00  0.00     0.035 C 
ATOM     16  C   UNL d   1      21.762 -19.593   0.195  0.00  0.00     0.036 C 
ATOM     17  C   UNL d   1      20.451 -19.632  -0.272  0.00  0.00     0.117 C 
ATOM     18  N   UNL d   1      19.869 -18.667  -1.028  0.00  0.00    -0.273 NA
ATOM     19  C   UNL d   1      20.591 -17.561  -1.271  0.00  0.00     0.117 C 
ATOM     20  C   UNL d   1      21.885 -17.423  -0.836  0.00  0.00     0.036 C 
ENDBRANCH  12  15
ENDBRANCH   9  11
ENDBRANCH   7   9
ENDBRANCH   2   7
BRANCH   1  21
ATOM     21  C   UNL d   1      26.934 -13.096  -2.226  0.00  0.00     0.296 C 
ATOM     22  O   UNL d   1      26.661 -11.918  -2.310  0.00  0.00    -0.259 OA
BRANCH  21  23
ATOM     23  O   UNL d   1      26.773 -13.865  -3.337  0.00  0.00    -0.318 OA
BRANCH  23  24
ATOM     24  C   UNL d   1      25.604 -14.429  -3.949  0.00  0.00     0.174 C 
ATOM     25  C   UNL d   1      24.607 -14.498  -2.841  0.00  0.00     0.034 C 
ENDBRANCH  23  24
ENDBRANCH  21  23
ENDBRANCH   1  21
BRANCH   4  26
ATOM     26  C   UNL d   1      28.515 -12.873   2.586  0.00  0.00     0.263 C 
ATOM     27  O   UNL d   1      29.549 -12.205   2.504  0.00  0.00    -0.267 OA
ATOM     28  N   UNL d   1      27.937 -13.023   3.849  0.00  0.00    -0.322 N 
ATOM     29  H   UNL d   1      27.444 -13.887   4.017  0.00  0.00     0.169 HD
BRANCH  28  30
ATOM     30  C   UNL d   1      28.472 -12.314   4.985  0.00  0.00     0.041 A 
ATOM     31  C   UNL d   1      28.154 -10.956   5.160  0.00  0.00     0.030 A 
ATOM     32  C   UNL d   1      28.658 -10.228   6.254  0.00  0.00     0.002 A 
ATOM     33  C   UNL d   1      29.504 -10.835   7.175  0.00  0.00     0.001 A 
ATOM     34  C   UNL d   1      29.844 -12.174   7.008  0.00  0.00     0.009 A 
ATOM     35  C   UNL d   1      29.341 -12.926   5.925  0.00  0.00    -0.035 A 
ATOM     36  C   UNL d   1      29.842 -14.340   5.778  0.00  0.00     0.050 C 
ENDBRANCH  28  30
ENDBRANCH   4  26
TORSDOF 9
ENDMDL
MODEL 6
REMARK VINA RESULT:   -28.768      4.771      8.488
REMARK INTER + INTRA:         -33.301
REMARK INTER:                 -31.452
REMARK INTRA:                  -1.849
REMARK CONF_INDEPENDENT:        2.685
REMARK UNBOUND:                -1.849
REMARK  9 active torsions:
REMARK  status: ('A' for Active; 'I' for Inactive)
REMARK    1  A    between atoms: C_2  and  O_3 
REMARK    2  A    between atoms: O_3  and  C_4 
REMARK    3  A    between atoms: C_4  and  C_6 
REMARK    4  A    between atoms: C_7  and  N_8 
REMARK    5  A    between atoms: N_8  and  C_9 
REMARK    6  A    between atoms: C_9  and  N_11 
REMARK       I    between atoms: N_11  and  C_12 
REMARK    7  A    between atoms: C_12  and  C_14 
REMARK    8  A    between atoms: C_21  and  C_22 
REMARK       I    between atoms: C_22  and  N_24 
REMARK    9  A    between atoms: N_24  and  C_25 
ROOT
ATOM      1  C   UNL d   1      29.226 -16.091  -0.489  0.00  0.00     0.080 C 
ATOM      2  C   UNL d   1      27.850 -16.278  -0.368  0.00  0.00     0.094 C 
ATOM      3  S   UNL d   1      27.267 -15.218   0.914  0.00  0.00    -0.065 SA
ATOM      4  C   UNL d   1      28.851 -14.825   1.519  0.00  0.00     0.082 C 
ATOM      5  C   UNL d   1      29.809 -15.362   0.658  0.00  0.00    -0.020 C 
ATOM      6  C   UNL d   1      31.318 -15.233   0.821  0.00  0.00     0.051 C 
ENDROOT
BRANCH   2   7
ATOM      7  N   UNL d   1      26.871 -17.040  -1.143  0.00  0.00    -0.326 N 
ATOM      8  H   UNL d   1      26.977 -18.045  -1.073  0.00  0.00     0.169 HD
BRANCH   7   9
ATOM      9  C   UNL d   1      25.896 -16.468  -2.055  0.00  0.00     0.179 C 
ATOM     10  S   UNL d   1      26.277 -15.227  -3.133  0.00  0.00    -0.040 SA
BRANCH   9  11
ATOM     11  N   UNL d   1      24.523 -16.988  -1.940  0.00  0.00    -0.299 N 
ATOM     12  C   UNL d   1      24.041 -17.944  -0.947  0.00  0.00     0.257 C 
ATOM     13  O   UNL d   1      24.774 -18.569  -0.171  0.00  0.00    -0.267 OA
ATOM     14  H   UNL d   1      23.852 -16.740  -2.651  0.00  0.00     0.171 HD
BRANCH  12  15
ATOM     15  C   UNL d   1      22.636 -18.410  -0.807  0.00  0.00     0.035 C 
ATOM     16  C   UNL d   1      22.177 -19.612  -0.288  0.00  0.00     0.036 C 
ATOM     17  C   UNL d   1      20.808 -19.849  -0.383  0.00  0.00     0.117 C 
ATOM     18  N   UNL d   1      19.905 -18.977  -0.898  0.00  0.00    -0.273 NA
ATOM     19  C   UNL d   1      20.362 -17.768  -1.265  0.00  0.00     0.117 C 
ATOM     20  C   UNL d   1      21.692 -17.436  -1.191  0.00  0.00     0.036 C 
ENDBRANCH  12  15
ENDBRANCH   9  11
ENDBRANCH   7   9
ENDBRANCH   2   7
BRANCH   1  21
ATOM     21  C   UNL d   1      30.129 -16.559  -1.557  0.00  0.00     0.296 C 
ATOM     22  O   UNL d   1      30.749 -15.782  -2.251  0.00  0.00    -0.259 OA
BRANCH  21  23
ATOM     23  O   UNL d   1      30.172 -17.878  -1.887  0.00  0.00    -0.318 OA
BRANCH  23  24
ATOM     24  C   UNL d   1      30.691 -19.021  -1.193  0.00  0.00     0.174 C 
ATOM     25  C   UNL d   1      31.681 -18.450  -0.233  0.00  0.00     0.034 C 
ENDBRANCH  23  24
ENDBRANCH  21  23
ENDBRANCH   1  21
BRANCH   4  26
ATOM     26  C   UNL d   1      29.205 -14.068   2.761  0.00  0.00     0.263 C 
ATOM     27  O   UNL d   1      29.876 -13.036   2.679  0.00  0.00    -0.267 OA
ATOM     28  N   UNL d   1      28.842 -14.507   4.037  0.00  0.00    -0.322 N 
ATOM     29  H   UNL d   1      28.750 -15.504   4.160  0.00  0.00     0.169 HD
BRANCH  28  30
ATOM     30  C   UNL d   1      29.143 -13.705   5.197  0.00  0.00     0.041 A 
ATOM     31  C   UNL d   1      30.010 -14.214   6.179  0.00  0.00     0.030 A 
ATOM     32  C   UNL d   1      30.327 -13.464   7.327  0.00  0.00     0.002 A 
ATOM     33  C   UNL d   1      29.766 -12.207   7.525  0.00  0.00     0.001 A 
ATOM     34  C   UNL d   1      28.892 -11.694   6.572  0.00  0.00     0.009 A 
ATOM     35  C   UNL d   1      28.569 -12.424   5.408  0.00  0.00    -0.035 A 
ATOM     36  C   UNL d   1      27.540 -11.826   4.484  0.00  0.00     0.050 C 
ENDBRANCH  28  30
ENDBRANCH   4  26
TORSDOF 9
ENDMDL
MODEL 7
REMARK VINA RESULT:   -28.710      3.469      6.646
REMARK INTER + INTRA:         -33.696
REMARK INTER:                 -31.395
REMARK INTRA:                  -2.301
REMARK CONF_INDEPENDENT:        2.685
REMARK UNBOUND:                -2.301
REMARK  9 active torsions:
REMARK  status: ('A' for Active; 'I' for Inactive)
REMARK    1  A    between atoms: C_2  and  O_3 
REMARK    2  A    between atoms: O_3  and  C_4 
REMARK    3  A    between atoms: C_4  and  C_6 
REMARK    4  A    between atoms: C_7  and  N_8 
REMARK    5  A    between atoms: N_8  and  C_9 
REMARK    6  A    between atoms: C_9  and  N_11 
REMARK       I    between atoms: N_11  and  C_12 
REMARK    7  A    between atoms: C_12  and  C_14 
REMARK    8  A    between atoms: C_21  and  C_22 
REMARK       I    between atoms: C_22  and  N_24 
REMARK    9  A    between atoms: N_24  and  C_25 
ROOT
ATOM      1  C   UNL d   1      25.862 -13.664  -2.324  0.00  0.00     0.080 C 
ATOM      2  C   UNL d   1      26.386 -13.778  -1.037  0.00  0.00     0.094 C 
ATOM      3  S   UNL d   1      27.082 -12.221  -0.592  0.00  0.00    -0.065 SA
ATOM      4  C   UNL d   1      27.016 -11.560  -2.201  0.00  0.00     0.082 C 
ATOM      5  C   UNL d   1      26.326 -12.448  -3.026  0.00  0.00    -0.020 C 
ATOM      6  C   UNL d   1      26.038 -12.239  -4.508  0.00  0.00     0.051 C 
ENDROOT
BRANCH   2   7
ATOM      7  N   UNL d   1      26.344 -14.838  -0.029  0.00  0.00    -0.326 N 
ATOM      8  H   UNL d   1      26.621 -14.538   0.899  0.00  0.00     0.169 HD
BRANCH   7   9
ATOM      9  C   UNL d   1      26.070 -16.238  -0.296  0.00  0.00     0.179 C 
ATOM     10  S   UNL d   1      27.294 -17.384  -0.489  0.00  0.00    -0.040 SA
BRANCH   9  11
ATOM     11  N   UNL d   1      24.652 -16.598  -0.458  0.00  0.00    -0.299 N 
ATOM     12  C   UNL d   1      24.055 -17.904  -0.187  0.00  0.00     0.257 C 
ATOM     13  O   UNL d   1      24.705 -18.928   0.057  0.00  0.00    -0.267 OA
ATOM     14  H   UNL d   1      24.026 -15.923  -0.871  0.00  0.00     0.171 HD
BRANCH  12  15
ATOM     15  C   UNL d   1      22.609 -18.233  -0.297  0.00  0.00     0.035 C 
ATOM     16  C   UNL d   1      21.934 -19.326   0.225  0.00  0.00     0.036 C 
ATOM     17  C   UNL d   1      20.593 -19.457  -0.128  0.00  0.00     0.117 C 
ATOM     18  N   UNL d   1      19.905 -18.575  -0.896  0.00  0.00    -0.273 NA
ATOM     19  C   UNL d   1      20.549 -17.458  -1.271  0.00  0.00     0.117 C 
ATOM     20  C   UNL d   1      21.865 -17.232  -0.956  0.00  0.00     0.036 C 
ENDBRANCH  12  15
ENDBRANCH   9  11
ENDBRANCH   7   9
ENDBRANCH   2   7
BRANCH   1  21
ATOM     21  C   UNL d   1      24.979 -14.598  -3.046  0.00  0.00     0.296 C 
ATOM     22  O   UNL d   1      23.809 -14.721  -2.755  0.00  0.00    -0.259 OA
BRANCH  21  23
ATOM     23  O   UNL d   1      25.498 -15.459  -3.962  0.00  0.00    -0.318 OA
BRANCH  23  24
ATOM     24  C   UNL d   1      26.176 -15.236  -5.207  0.00  0.00     0.174 C 
ATOM     25  C   UNL d   1      27.612 -15.103  -4.824  0.00  0.00     0.034 C 
ENDBRANCH  23  24
ENDBRANCH  21  23
ENDBRANCH   1  21
BRANCH   4  26
ATOM     26  C   UNL d   1      27.602 -10.274  -2.696  0.00  0.00     0.263 C 
ATOM     27  O   UNL d   1      28.465 -10.293  -3.577  0.00  0.00    -0.267 OA
ATOM     28  N   UNL d   1      27.243  -9.032  -2.166  0.00  0.00    -0.322 N 
ATOM     29  H   UNL d   1      26.956  -9.023  -1.199  0.00  0.00     0.169 HD
BRANCH  28  30
ATOM     30  C   UNL d   1      27.781  -7.817  -2.726  0.00  0.00     0.041 A 
ATOM     31  C   UNL d   1      29.089  -7.424  -2.391  0.00  0.00     0.030 A 
ATOM     32  C   UNL d   1      29.649  -6.245  -2.914  0.00  0.00     0.002 A 
ATOM     33  C   UNL d   1      28.907  -5.426  -3.759  0.00  0.00     0.001 A 
ATOM     34  C   UNL d   1      27.605  -5.789  -4.088  0.00  0.00     0.009 A 
ATOM     35  C   UNL d   1      27.027  -6.974  -3.583  0.00  0.00    -0.035 A 
ATOM     36  C   UNL d   1      25.581  -7.231  -3.920  0.00  0.00     0.050 C 
ENDBRANCH  28  30
ENDBRANCH   4  26
TORSDOF 9
ENDMDL
MODEL 8
REMARK VINA RESULT:   -28.660      1.770      2.072
REMARK INTER + INTRA:         -33.424
REMARK INTER:                 -31.345
REMARK INTRA:                  -2.079
REMARK CONF_INDEPENDENT:        2.685
REMARK UNBOUND:                -2.079
REMARK  9 active torsions:
REMARK  status: ('A' for Active; 'I' for Inactive)
REMARK    1  A    between atoms: C_2  and  O_3 
REMARK    2  A    between atoms: O_3  and  C_4 
REMARK    3  A    between atoms: C_4  and  C_6 
REMARK    4  A    between atoms: C_7  and  N_8 
REMARK    5  A    between atoms: N_8  and  C_9 
REMARK    6  A    between atoms: C_9  and  N_11 
REMARK       I    between atoms: N_11  and  C_12 
REMARK    7  A    between atoms: C_12  and  C_14 
REMARK    8  A    between atoms: C_21  and  C_22 
REMARK       I    between atoms: C_22  and  N_24 
REMARK    9  A    between atoms: N_24  and  C_25 
ROOT
ATOM      1  C   UNL d   1      26.970 -15.023  -3.896  0.00  0.00     0.080 C 
ATOM      2  C   UNL d   1      27.472 -15.943  -2.977  0.00  0.00     0.094 C 
ATOM      3  S   UNL d   1      29.172 -16.218  -3.355  0.00  0.00    -0.065 SA
ATOM      4  C   UNL d   1      29.113 -15.430  -4.905  0.00  0.00     0.082 C 
ATOM      5  C   UNL d   1      27.864 -14.827  -5.058  0.00  0.00    -0.020 C 
ATOM      6  C   UNL d   1      27.410 -14.023  -6.270  0.00  0.00     0.051 C 
ENDROOT
BRANCH   2   7
ATOM      7  N   UNL d   1      26.915 -16.567  -1.777  0.00  0.00    -0.326 N 
ATOM      8  H   UNL d   1      27.184 -17.536  -1.649  0.00  0.00     0.169 HD
BRANCH   7   9
ATOM      9  C   UNL d   1      25.951 -15.950  -0.883  0.00  0.00     0.179 C 
ATOM     10  S   UNL d   1      26.387 -14.796   0.268  0.00  0.00    -0.040 SA
BRANCH   9  11
ATOM     11  N   UNL d   1      24.567 -16.440  -0.989  0.00  0.00    -0.299 N 
ATOM     12  C   UNL d   1      24.008 -17.605  -0.308  0.00  0.00     0.257 C 
ATOM     13  O   UNL d   1      24.680 -18.431   0.322  0.00  0.00    -0.267 OA
ATOM     14  H   UNL d   1      23.947 -15.997  -1.651  0.00  0.00     0.171 HD
BRANCH  12  15
ATOM     15  C   UNL d   1      22.591 -18.049  -0.377  0.00  0.00     0.035 C 
ATOM     16  C   UNL d   1      22.025 -19.204   0.145  0.00  0.00     0.036 C 
ATOM     17  C   UNL d   1      20.688 -19.438  -0.168  0.00  0.00     0.117 C 
ATOM     18  N   UNL d   1      19.905 -18.603  -0.896  0.00  0.00    -0.273 NA
ATOM     19  C   UNL d   1      20.443 -17.430  -1.270  0.00  0.00     0.117 C 
ATOM     20  C   UNL d   1      21.746 -17.103  -0.992  0.00  0.00     0.036 C 
ENDBRANCH  12  15
ENDBRANCH   9  11
ENDBRANCH   7   9
ENDBRANCH   2   7
BRANCH   1  21
ATOM     21  C   UNL d   1      25.688 -14.296  -3.865  0.00  0.00     0.296 C 
ATOM     22  O   UNL d   1      24.702 -14.766  -3.341  0.00  0.00    -0.259 OA
BRANCH  21  23
ATOM     23  O   UNL d   1      25.545 -13.136  -4.561  0.00  0.00    -0.318 OA
BRANCH  23  24
ATOM     24  C   UNL d   1      25.577 -11.762  -4.148  0.00  0.00     0.174 C 
ATOM     25  C   UNL d   1      26.775 -11.673  -3.262  0.00  0.00     0.034 C 
ENDBRANCH  23  24
ENDBRANCH  21  23
ENDBRANCH   1  21
BRANCH   4  26
ATOM     26  C   UNL d   1      30.174 -15.387  -5.962  0.00  0.00     0.263 C 
ATOM     27  O   UNL d   1      30.452 -16.410  -6.592  0.00  0.00    -0.267 OA
ATOM     28  N   UNL d   1      30.909 -14.232  -6.241  0.00  0.00    -0.322 N 
ATOM     29  H   UNL d   1      31.047 -13.591  -5.474  0.00  0.00     0.169 HD
BRANCH  28  30
ATOM     30  C   UNL d   1      31.869 -14.221  -7.316  0.00  0.00     0.041 A 
ATOM     31  C   UNL d   1      31.593 -13.478  -8.477  0.00  0.00     0.030 A 
ATOM     32  C   UNL d   1      32.503 -13.443  -9.550  0.00  0.00     0.002 A 
ATOM     33  C   UNL d   1      33.689 -14.166  -9.492  0.00  0.00     0.001 A 
ATOM     34  C   UNL d   1      33.971 -14.922  -8.358  0.00  0.00     0.009 A 
ATOM     35  C   UNL d   1      33.078 -14.962  -7.266  0.00  0.00    -0.035 A 
ATOM     36  C   UNL d   1      33.428 -15.882  -6.126  0.00  0.00     0.050 C 
ENDBRANCH  28  30
ENDBRANCH   4  26
TORSDOF 9
ENDMDL
MODEL 9
REMARK VINA RESULT:   -28.653      4.887      8.445
REMARK INTER + INTRA:         -33.143
REMARK INTER:                 -31.338
REMARK INTRA:                  -1.805
REMARK CONF_INDEPENDENT:        2.685
REMARK UNBOUND:                -1.805
REMARK  9 active torsions:
REMARK  status: ('A' for Active; 'I' for Inactive)
REMARK    1  A    between atoms: C_2  and  O_3 
REMARK    2  A    between atoms: O_3  and  C_4 
REMARK    3  A    between atoms: C_4  and  C_6 
REMARK    4  A    between atoms: C_7  and  N_8 
REMARK    5  A    between atoms: N_8  and  C_9 
REMARK    6  A    between atoms: C_9  and  N_11 
REMARK       I    between atoms: N_11  and  C_12 
REMARK    7  A    between atoms: C_12  and  C_14 
REMARK    8  A    between atoms: C_21  and  C_22 
REMARK       I    between atoms: C_22  and  N_24 
REMARK    9  A    between atoms: N_24  and  C_25 
ROOT
ATOM      1  C   UNL d   1      29.047 -15.849  -0.067  0.00  0.00     0.080 C 
ATOM      2  C   UNL d   1      27.672 -16.049   0.034  0.00  0.00     0.094 C 
ATOM      3  S   UNL d   1      27.050 -14.947   1.261  0.00  0.00    -0.065 SA
ATOM      4  C   UNL d   1      28.616 -14.510   1.881  0.00  0.00     0.082 C 
ATOM      5  C   UNL d   1      29.598 -15.067   1.061  0.00  0.00    -0.020 C 
ATOM      6  C   UNL d   1      31.102 -14.912   1.249  0.00  0.00     0.051 C 
ENDROOT
BRANCH   2   7
ATOM      7  N   UNL d   1      26.718 -16.854  -0.729  0.00  0.00    -0.326 N 
ATOM      8  H   UNL d   1      26.825 -17.854  -0.604  0.00  0.00     0.169 HD
BRANCH   7   9
ATOM      9  C   UNL d   1      25.770 -16.334  -1.698  0.00  0.00     0.179 C 
ATOM     10  S   UNL d   1      26.153 -15.084  -2.765  0.00  0.00    -0.040 SA
BRANCH   9  11
ATOM     11  N   UNL d   1      24.418 -16.916  -1.655  0.00  0.00    -0.299 N 
ATOM     12  C   UNL d   1      23.954 -17.954  -0.738  0.00  0.00     0.257 C 
ATOM     13  O   UNL d   1      24.694 -18.598   0.015  0.00  0.00    -0.267 OA
ATOM     14  H   UNL d   1      23.755 -16.650  -2.366  0.00  0.00     0.171 HD
BRANCH  12  15
ATOM     15  C   UNL d   1      22.567 -18.486  -0.667  0.00  0.00     0.035 C 
ATOM     16  C   UNL d   1      22.137 -19.698  -0.145  0.00  0.00     0.036 C 
ATOM     17  C   UNL d   1      20.788 -20.004  -0.312  0.00  0.00     0.117 C 
ATOM     18  N   UNL d   1      19.876 -19.188  -0.899  0.00  0.00    -0.273 NA
ATOM     19  C   UNL d   1      20.295 -17.967  -1.269  0.00  0.00     0.117 C 
ATOM     20  C   UNL d   1      21.600 -17.569  -1.127  0.00  0.00     0.036 C 
ENDBRANCH  12  15
ENDBRANCH   9  11
ENDBRANCH   7   9
ENDBRANCH   2   7
BRANCH   1  21
ATOM     21  C   UNL d   1      29.978 -16.346  -1.097  0.00  0.00     0.296 C 
ATOM     22  O   UNL d   1      30.704 -17.295  -0.894  0.00  0.00    -0.259 OA
BRANCH  21  23
ATOM     23  O   UNL d   1      30.150 -15.652  -2.254  0.00  0.00    -0.318 OA
BRANCH  23  24
ATOM     24  C   UNL d   1      29.685 -15.889  -3.591  0.00  0.00     0.174 C 
ATOM     25  C   UNL d   1      30.535 -17.014  -4.081  0.00  0.00     0.034 C 
ENDBRANCH  23  24
ENDBRANCH  21  23
ENDBRANCH   1  21
BRANCH   4  26
ATOM     26  C   UNL d   1      28.935 -13.699   3.099  0.00  0.00     0.263 C 
ATOM     27  O   UNL d   1      28.899 -12.467   3.041  0.00  0.00    -0.267 OA
ATOM     28  N   UNL d   1      29.324 -14.281   4.308  0.00  0.00    -0.322 N 
ATOM     29  H   UNL d   1      29.809 -15.163   4.246  0.00  0.00     0.169 HD
BRANCH  28  30
ATOM     30  C   UNL d   1      29.550 -13.461   5.473  0.00  0.00     0.041 A 
ATOM     31  C   UNL d   1      28.764 -13.664   6.620  0.00  0.00     0.030 A 
ATOM     32  C   UNL d   1      28.952 -12.884   7.776  0.00  0.00     0.002 A 
ATOM     33  C   UNL d   1      29.909 -11.875   7.797  0.00  0.00     0.001 A 
ATOM     34  C   UNL d   1      30.684 -11.648   6.665  0.00  0.00     0.009 A 
ATOM     35  C   UNL d   1      30.520 -12.426   5.499  0.00  0.00    -0.035 A 
ATOM     36  C   UNL d   1      31.341 -12.041   4.295  0.00  0.00     0.050 C 
ENDBRANCH  28  30
ENDBRANCH   4  26
TORSDOF 9
ENDMDL
