MODEL 1
REMARK VINA RESULT:   -10.949      0.000      0.000
REMARK INTER + INTRA:         -15.485
REMARK INTER:                 -13.932
REMARK INTRA:                  -1.553
REMARK CONF_INDEPENDENT:        2.983
REMARK UNBOUND:                -1.553
REMARK  10 active torsions:
REMARK  status: ('A' for Active; 'I' for Inactive)
REMARK    1  A    between atoms: C_2  and  O_3 
REMARK    2  A    between atoms: O_3  and  C_4 
REMARK    3  A    between atoms: C_4  and  C_6 
REMARK    4  A    between atoms: C_9  and  N_10 
REMARK    5  A    between atoms: N_10  and  C_11 
REMARK    6  A    between atoms: C_11  and  N_13 
REMARK    7  A    between atoms: N_13  and  N_14 
REMARK       I    between atoms: N_14  and  C_15 
REMARK    8  A    between atoms: C_15  and  C_17 
REMARK    9  A    between atoms: N_20  and  C_21 
REMARK   10  A    between atoms: C_21  and  C_22 
ROOT
ATOM      1  N   UNL d   1      29.260 -15.422   0.844  0.00  0.00    -0.268 N 
ATOM      2  C   UNL d   1      29.762 -14.148   0.510  0.00  0.00     0.240 C 
ATOM      3  O   UNL d   1      29.022 -13.289   0.036  0.00  0.00    -0.271 OA
ATOM      4  H   UNL d   1      29.826 -16.082   1.339  0.00  0.00     0.190 HD
ENDROOT
BRANCH   1   5
ATOM      5  N   UNL d   1      27.851 -15.724   1.207  0.00  0.00    -0.274 N 
ATOM      6  H   UNL d   1      27.457 -15.088   1.901  0.00  0.00     0.189 HD
BRANCH   5   7
ATOM      7  C   UNL d   1      27.064 -16.492   0.300  0.00  0.00     0.191 C 
ATOM      8  S   UNL d   1      27.618 -17.911  -0.378  0.00  0.00    -0.039 SA
BRANCH   7   9
ATOM      9  N   UNL d   1      25.825 -16.009  -0.087  0.00  0.00    -0.332 N 
ATOM     10  H   UNL d   1      25.859 -15.160  -0.643  0.00  0.00     0.168 HD
BRANCH   9  11
ATOM     11  C   UNL d   1      24.592 -16.811  -0.237  0.00  0.00     0.034 A 
ATOM     12  C   UNL d   1      24.618 -18.168   0.092  0.00  0.00     0.030 A 
ATOM     13  C   UNL d   1      23.486 -19.000  -0.144  0.00  0.00     0.020 A 
ATOM     14  C   UNL d   1      22.277 -18.478  -0.636  0.00  0.00     0.039 A 
ATOM     15  C   UNL d   1      22.205 -17.126  -0.895  0.00  0.00     0.020 A 
ATOM     16  C   UNL d   1      23.345 -16.325  -0.720  0.00  0.00     0.030 A 
BRANCH  14  17
ATOM     17  C   UNL d   1      21.028 -19.290  -0.751  0.00  0.00     0.293 C 
ATOM     18  O   UNL d   1      20.572 -19.642  -1.802  0.00  0.00    -0.259 OA
BRANCH  17  19
ATOM     19  O   UNL d   1      20.544 -19.595   0.500  0.00  0.00    -0.318 OA
BRANCH  19  20
ATOM     20  C   UNL d   1      19.799 -20.825   0.551  0.00  0.00     0.174 C 
ATOM     21  C   UNL d   1      18.595 -20.676   1.472  0.00  0.00     0.034 C 
ENDBRANCH  19  20
ENDBRANCH  17  19
ENDBRANCH  14  17
ENDBRANCH   9  11
ENDBRANCH   7   9
ENDBRANCH   5   7
ENDBRANCH   1   5
BRANCH   2  22
ATOM     22  C   UNL d   1      31.316 -13.756   0.868  0.00  0.00     0.082 C 
ATOM     23  C   UNL d   1      32.274 -14.805   1.454  0.00  0.00     0.042 C 
ATOM     24  C   UNL d   1      31.601 -15.505   2.593  0.00  0.00     0.236 C 
ATOM     25  N   UNL d   1      31.184 -14.413   3.637  0.00  0.00    -0.067 N 
ATOM     26  C   UNL d   1      30.695 -13.056   3.113  0.00  0.00     0.236 C 
ATOM     27  H   UNL d   1      32.036 -14.188   4.157  0.00  0.00     0.280 HD
ATOM     28  C   UNL d   1      31.365 -12.594   1.859  0.00  0.00     0.042 C 
BRANCH  25  29
ATOM     29  C   UNL d   1      30.313 -15.046   4.698  0.00  0.00     0.275 C 
BRANCH  29  30
ATOM     30  C   UNL d   1      29.522 -14.185   5.676  0.00  0.00    -0.011 C 
ATOM     31  C   UNL d   1      30.090 -14.104   6.973  0.00  0.00     0.013 C 
ATOM     32  C   UNL d   1      29.483 -13.363   7.996  0.00  0.00     0.043 C 
ATOM     33  C   UNL d   1      28.363 -12.601   7.729  0.00  0.00     0.118 C 
ATOM     34  F   UNL d   1      27.813 -11.831   8.669  0.00  0.00    -0.206 F 
ATOM     35  C   UNL d   1      27.758 -12.671   6.504  0.00  0.00     0.066 C 
ATOM     36  C   UNL d   1      28.263 -13.525   5.527  0.00  0.00     0.044 C 
ATOM     37 CL   UNL d   1      27.032 -13.700   4.320  0.00  0.00    -0.084 Cl
ENDBRANCH  29  30
ENDBRANCH  25  29
ENDBRANCH   2  22
TORSDOF 10
ENDMDL
MODEL 2
REMARK VINA RESULT:    -9.891      1.865      2.396
REMARK INTER + INTRA:         -14.438
REMARK INTER:                 -12.874
REMARK INTRA:                  -1.564
REMARK CONF_INDEPENDENT:        2.983
REMARK UNBOUND:                -1.564
REMARK  10 active torsions:
REMARK  status: ('A' for Active; 'I' for Inactive)
REMARK    1  A    between atoms: C_2  and  O_3 
REMARK    2  A    between atoms: O_3  and  C_4 
REMARK    3  A    between atoms: C_4  and  C_6 
REMARK    4  A    between atoms: C_9  and  N_10 
REMARK    5  A    between atoms: N_10  and  C_11 
REMARK    6  A    between atoms: C_11  and  N_13 
REMARK    7  A    between atoms: N_13  and  N_14 
REMARK       I    between atoms: N_14  and  C_15 
REMARK    8  A    between atoms: C_15  and  C_17 
REMARK    9  A    between atoms: N_20  and  C_21 
REMARK   10  A    between atoms: C_21  and  C_22 
ROOT
ATOM      1  N   UNL d   1      28.352 -14.775   0.832  0.00  0.00    -0.268 N 
ATOM      2  C   UNL d   1      28.992 -13.941   1.770  0.00  0.00     0.240 C 
ATOM      3  O   UNL d   1      28.338 -13.173   2.474  0.00  0.00    -0.271 OA
ATOM      4  H   UNL d   1      28.863 -15.484   0.345  0.00  0.00     0.190 HD
ENDROOT
BRANCH   1   5
ATOM      5  N   UNL d   1      26.949 -15.258   0.926  0.00  0.00    -0.274 N 
ATOM      6  H   UNL d   1      26.296 -14.564   1.288  0.00  0.00     0.189 HD
BRANCH   5   7
ATOM      7  C   UNL d   1      26.559 -16.373   0.127  0.00  0.00     0.191 C 
ATOM      8  S   UNL d   1      27.326 -17.851   0.225  0.00  0.00    -0.039 SA
BRANCH   7   9
ATOM      9  N   UNL d   1      25.556 -16.205  -0.813  0.00  0.00    -0.332 N 
ATOM     10  H   UNL d   1      25.866 -15.801  -1.692  0.00  0.00     0.168 HD
BRANCH   9  11
ATOM     11  C   UNL d   1      24.299 -16.979  -0.883  0.00  0.00     0.034 A 
ATOM     12  C   UNL d   1      23.081 -16.299  -0.944  0.00  0.00     0.030 A 
ATOM     13  C   UNL d   1      21.844 -17.005  -0.899  0.00  0.00     0.020 A 
ATOM     14  C   UNL d   1      21.798 -18.410  -0.876  0.00  0.00     0.039 A 
ATOM     15  C   UNL d   1      22.989 -19.104  -0.892  0.00  0.00     0.020 A 
ATOM     16  C   UNL d   1      24.203 -18.399  -0.872  0.00  0.00     0.030 A 
BRANCH  14  17
ATOM     17  C   UNL d   1      20.523 -19.182  -0.981  0.00  0.00     0.293 C 
ATOM     18  O   UNL d   1      20.284 -19.925  -1.891  0.00  0.00    -0.259 OA
BRANCH  17  19
ATOM     19  O   UNL d   1      19.734 -18.946   0.119  0.00  0.00    -0.318 OA
BRANCH  19  20
ATOM     20  C   UNL d   1      19.596 -20.083   0.991  0.00  0.00     0.174 C 
ATOM     21  C   UNL d   1      18.397 -20.925   0.576  0.00  0.00     0.034 C 
ENDBRANCH  19  20
ENDBRANCH  17  19
ENDBRANCH  14  17
ENDBRANCH   9  11
ENDBRANCH   7   9
ENDBRANCH   5   7
ENDBRANCH   1   5
BRANCH   2  22
ATOM     22  C   UNL d   1      30.609 -14.075   2.024  0.00  0.00     0.082 C 
ATOM     23  C   UNL d   1      31.155 -15.017   3.109  0.00  0.00     0.042 C 
ATOM     24  C   UNL d   1      30.410 -14.783   4.386  0.00  0.00     0.236 C 
ATOM     25  N   UNL d   1      30.573 -13.269   4.756  0.00  0.00    -0.067 N 
ATOM     26  C   UNL d   1      30.581 -12.239   3.619  0.00  0.00     0.236 C 
ATOM     27  H   UNL d   1      31.503 -13.186   5.176  0.00  0.00     0.280 HD
ATOM     28  C   UNL d   1      31.219 -12.714   2.353  0.00  0.00     0.042 C 
BRANCH  25  29
ATOM     29  C   UNL d   1      29.662 -12.940   5.917  0.00  0.00     0.275 C 
BRANCH  29  30
ATOM     30  C   UNL d   1      29.987 -13.419   7.327  0.00  0.00    -0.011 C 
ATOM     31  C   UNL d   1      28.911 -14.069   7.984  0.00  0.00     0.013 C 
ATOM     32  C   UNL d   1      29.037 -14.560   9.291  0.00  0.00     0.043 C 
ATOM     33  C   UNL d   1      30.259 -14.516   9.932  0.00  0.00     0.118 C 
ATOM     34  F   UNL d   1      30.419 -15.045  11.147  0.00  0.00    -0.206 F 
ATOM     35  C   UNL d   1      31.318 -13.871   9.355  0.00  0.00     0.066 C 
ATOM     36  C   UNL d   1      31.160 -13.241   8.122  0.00  0.00     0.044 C 
ATOM     37 CL   UNL d   1      32.511 -12.175   7.921  0.00  0.00    -0.084 Cl
ENDBRANCH  29  30
ENDBRANCH  25  29
ENDBRANCH   2  22
TORSDOF 10
ENDMDL
MODEL 3
REMARK VINA RESULT:    -9.887      1.936      2.311
REMARK INTER + INTRA:         -14.585
REMARK INTER:                 -12.870
REMARK INTRA:                  -1.715
REMARK CONF_INDEPENDENT:        2.983
REMARK UNBOUND:                -1.715
REMARK  10 active torsions:
REMARK  status: ('A' for Active; 'I' for Inactive)
REMARK    1  A    between atoms: C_2  and  O_3 
REMARK    2  A    between atoms: O_3  and  C_4 
REMARK    3  A    between atoms: C_4  and  C_6 
REMARK    4  A    between atoms: C_9  and  N_10 
REMARK    5  A    between atoms: N_10  and  C_11 
REMARK    6  A    between atoms: C_11  and  N_13 
REMARK    7  A    between atoms: N_13  and  N_14 
REMARK       I    between atoms: N_14  and  C_15 
REMARK    8  A    between atoms: C_15  and  C_17 
REMARK    9  A    between atoms: N_20  and  C_21 
REMARK   10  A    between atoms: C_21  and  C_22 
ROOT
ATOM      1  N   UNL d   1      29.313 -15.607   0.782  0.00  0.00    -0.268 N 
ATOM      2  C   UNL d   1      30.159 -14.481   0.718  0.00  0.00     0.240 C 
ATOM      3  O   UNL d   1      29.733 -13.401   0.313  0.00  0.00    -0.271 OA
ATOM      4  H   UNL d   1      29.618 -16.452   1.220  0.00  0.00     0.190 HD
ENDROOT
BRANCH   1   5
ATOM      5  N   UNL d   1      27.835 -15.565   0.933  0.00  0.00    -0.274 N 
ATOM      6  H   UNL d   1      27.481 -14.680   1.294  0.00  0.00     0.189 HD
BRANCH   5   7
ATOM      7  C   UNL d   1      27.048 -16.485   0.181  0.00  0.00     0.191 C 
ATOM      8  S   UNL d   1      27.557 -18.042  -0.136  0.00  0.00    -0.039 SA
BRANCH   7   9
ATOM      9  N   UNL d   1      25.851 -16.053  -0.366  0.00  0.00    -0.332 N 
ATOM     10  H   UNL d   1      25.949 -15.338  -1.081  0.00  0.00     0.168 HD
BRANCH   9  11
ATOM     11  C   UNL d   1      24.593 -16.828  -0.418  0.00  0.00     0.034 A 
ATOM     12  C   UNL d   1      24.614 -18.184  -0.084  0.00  0.00     0.030 A 
ATOM     13  C   UNL d   1      23.449 -18.991  -0.228  0.00  0.00     0.020 A 
ATOM     14  C   UNL d   1      22.218 -18.444  -0.631  0.00  0.00     0.039 A 
ATOM     15  C   UNL d   1      22.157 -17.092  -0.893  0.00  0.00     0.020 A 
ATOM     16  C   UNL d   1      23.325 -16.317  -0.809  0.00  0.00     0.030 A 
BRANCH  14  17
ATOM     17  C   UNL d   1      20.947 -19.229  -0.647  0.00  0.00     0.293 C 
ATOM     18  O   UNL d   1      20.482 -19.699  -1.647  0.00  0.00    -0.259 OA
BRANCH  17  19
ATOM     19  O   UNL d   1      20.453 -19.357   0.630  0.00  0.00    -0.318 OA
BRANCH  19  20
ATOM     20  C   UNL d   1      19.588 -20.494   0.808  0.00  0.00     0.174 C 
ATOM     21  C   UNL d   1      18.933 -20.449   2.182  0.00  0.00     0.034 C 
ENDBRANCH  19  20
ENDBRANCH  17  19
ENDBRANCH  14  17
ENDBRANCH   9  11
ENDBRANCH   7   9
ENDBRANCH   5   7
ENDBRANCH   1   5
BRANCH   2  22
ATOM     22  C   UNL d   1      31.690 -14.568   1.303  0.00  0.00     0.082 C 
ATOM     23  C   UNL d   1      32.014 -15.449   2.520  0.00  0.00     0.042 C 
ATOM     24  C   UNL d   1      31.019 -15.178   3.605  0.00  0.00     0.236 C 
ATOM     25  N   UNL d   1      31.082 -13.647   3.930  0.00  0.00    -0.067 N 
ATOM     26  C   UNL d   1      31.310 -12.666   2.771  0.00  0.00     0.236 C 
ATOM     27  H   UNL d   1      31.904 -13.524   4.527  0.00  0.00     0.280 HD
ATOM     28  C   UNL d   1      32.201 -13.180   1.687  0.00  0.00     0.042 C 
BRANCH  25  29
ATOM     29  C   UNL d   1      29.947 -13.288   4.862  0.00  0.00     0.275 C 
BRANCH  29  30
ATOM     30  C   UNL d   1      28.977 -12.164   4.519  0.00  0.00    -0.011 C 
ATOM     31  C   UNL d   1      28.166 -12.420   3.385  0.00  0.00     0.013 C 
ATOM     32  C   UNL d   1      27.229 -11.484   2.926  0.00  0.00     0.043 C 
ATOM     33  C   UNL d   1      27.000 -10.325   3.641  0.00  0.00     0.118 C 
ATOM     34  F   UNL d   1      26.060  -9.456   3.262  0.00  0.00    -0.206 F 
ATOM     35  C   UNL d   1      27.779 -10.017   4.722  0.00  0.00     0.066 C 
ATOM     36  C   UNL d   1      28.818 -10.865   5.095  0.00  0.00     0.044 C 
ATOM     37 CL   UNL d   1      29.844  -9.972   6.167  0.00  0.00    -0.084 Cl
ENDBRANCH  29  30
ENDBRANCH  25  29
ENDBRANCH   2  22
TORSDOF 10
ENDMDL
MODEL 4
REMARK VINA RESULT:    -9.862      2.851      3.769
REMARK INTER + INTRA:         -14.857
REMARK INTER:                 -12.845
REMARK INTRA:                  -2.012
REMARK CONF_INDEPENDENT:        2.983
REMARK UNBOUND:                -2.012
REMARK  10 active torsions:
REMARK  status: ('A' for Active; 'I' for Inactive)
REMARK    1  A    between atoms: C_2  and  O_3 
REMARK    2  A    between atoms: O_3  and  C_4 
REMARK    3  A    between atoms: C_4  and  C_6 
REMARK    4  A    between atoms: C_9  and  N_10 
REMARK    5  A    between atoms: N_10  and  C_11 
REMARK    6  A    between atoms: C_11  and  N_13 
REMARK    7  A    between atoms: N_13  and  N_14 
REMARK       I    between atoms: N_14  and  C_15 
REMARK    8  A    between atoms: C_15  and  C_17 
REMARK    9  A    between atoms: N_20  and  C_21 
REMARK   10  A    between atoms: C_21  and  C_22 
ROOT
ATOM      1  N   UNL d   1      28.273 -14.851   2.259  0.00  0.00    -0.268 N 
ATOM      2  C   UNL d   1      27.996 -14.443   3.579  0.00  0.00     0.240 C 
ATOM      3  O   UNL d   1      27.008 -13.754   3.825  0.00  0.00    -0.271 OA
ATOM      4  H   UNL d   1      29.004 -15.507   2.069  0.00  0.00     0.190 HD
ENDROOT
BRANCH   1   5
ATOM      5  N   UNL d   1      27.265 -15.022   1.180  0.00  0.00    -0.274 N 
ATOM      6  H   UNL d   1      26.483 -14.371   1.238  0.00  0.00     0.189 HD
BRANCH   5   7
ATOM      7  C   UNL d   1      27.659 -15.683  -0.020  0.00  0.00     0.191 C 
ATOM      8  S   UNL d   1      28.615 -14.945  -1.170  0.00  0.00    -0.039 SA
BRANCH   7   9
ATOM      9  N   UNL d   1      27.174 -16.955  -0.275  0.00  0.00    -0.332 N 
ATOM     10  H   UNL d   1      27.775 -17.707   0.049  0.00  0.00     0.168 HD
BRANCH   9  11
ATOM     11  C   UNL d   1      25.753 -17.319  -0.458  0.00  0.00     0.034 A 
ATOM     12  C   UNL d   1      24.885 -16.401  -1.053  0.00  0.00     0.030 A 
ATOM     13  C   UNL d   1      23.489 -16.666  -1.146  0.00  0.00     0.020 A 
ATOM     14  C   UNL d   1      22.942 -17.890  -0.722  0.00  0.00     0.039 A 
ATOM     15  C   UNL d   1      23.792 -18.842  -0.201  0.00  0.00     0.020 A 
ATOM     16  C   UNL d   1      25.157 -18.546  -0.054  0.00  0.00     0.030 A 
BRANCH  14  17
ATOM     17  C   UNL d   1      21.511 -18.260  -0.943  0.00  0.00     0.293 C 
ATOM     18  O   UNL d   1      20.655 -17.452  -1.171  0.00  0.00    -0.259 OA
BRANCH  17  19
ATOM     19  O   UNL d   1      21.362 -19.626  -0.895  0.00  0.00    -0.318 OA
BRANCH  19  20
ATOM     20  C   UNL d   1      20.594 -20.088   0.231  0.00  0.00     0.174 C 
ATOM     21  C   UNL d   1      19.154 -19.606   0.122  0.00  0.00     0.034 C 
ENDBRANCH  19  20
ENDBRANCH  17  19
ENDBRANCH  14  17
ENDBRANCH   9  11
ENDBRANCH   7   9
ENDBRANCH   5   7
ENDBRANCH   1   5
BRANCH   2  22
ATOM     22  C   UNL d   1      28.920 -14.988   4.821  0.00  0.00     0.082 C 
ATOM     23  C   UNL d   1      28.767 -14.392   6.230  0.00  0.00     0.042 C 
ATOM     24  C   UNL d   1      28.786 -12.898   6.138  0.00  0.00     0.236 C 
ATOM     25  N   UNL d   1      30.129 -12.485   5.445  0.00  0.00    -0.067 N 
ATOM     26  C   UNL d   1      30.670 -13.376   4.319  0.00  0.00     0.236 C 
ATOM     27  H   UNL d   1      30.845 -12.541   6.174  0.00  0.00     0.280 HD
ATOM     28  C   UNL d   1      30.405 -14.836   4.498  0.00  0.00     0.042 C 
BRANCH  25  29
ATOM     29  C   UNL d   1      30.094 -11.005   5.136  0.00  0.00     0.275 C 
BRANCH  29  30
ATOM     30  C   UNL d   1      28.893 -10.380   4.436  0.00  0.00    -0.011 C 
ATOM     31  C   UNL d   1      28.458 -11.082   3.285  0.00  0.00     0.013 C 
ATOM     32  C   UNL d   1      27.374 -10.636   2.517  0.00  0.00     0.043 C 
ATOM     33  C   UNL d   1      26.632  -9.549   2.934  0.00  0.00     0.118 C 
ATOM     34  F   UNL d   1      25.551  -9.152   2.258  0.00  0.00    -0.206 F 
ATOM     35  C   UNL d   1      27.030  -8.818   4.019  0.00  0.00     0.066 C 
ATOM     36  C   UNL d   1      28.197  -9.159   4.698  0.00  0.00     0.044 C 
ATOM     37 CL   UNL d   1      28.627  -7.802   5.684  0.00  0.00    -0.084 Cl
ENDBRANCH  29  30
ENDBRANCH  25  29
ENDBRANCH   2  22
TORSDOF 10
ENDMDL
MODEL 5
REMARK VINA RESULT:    -9.732      5.719      7.851
REMARK INTER + INTRA:         -14.402
REMARK INTER:                 -12.715
REMARK INTRA:                  -1.687
REMARK CONF_INDEPENDENT:        2.983
REMARK UNBOUND:                -1.687
REMARK  10 active torsions:
REMARK  status: ('A' for Active; 'I' for Inactive)
REMARK    1  A    between atoms: C_2  and  O_3 
REMARK    2  A    between atoms: O_3  and  C_4 
REMARK    3  A    between atoms: C_4  and  C_6 
REMARK    4  A    between atoms: C_9  and  N_10 
REMARK    5  A    between atoms: N_10  and  C_11 
REMARK    6  A    between atoms: C_11  and  N_13 
REMARK    7  A    between atoms: N_13  and  N_14 
REMARK       I    between atoms: N_14  and  C_15 
REMARK    8  A    between atoms: C_15  and  C_17 
REMARK    9  A    between atoms: N_20  and  C_21 
REMARK   10  A    between atoms: C_21  and  C_22 
ROOT
ATOM      1  N   UNL d   1      27.129 -15.721  -2.393  0.00  0.00    -0.268 N 
ATOM      2  C   UNL d   1      27.881 -15.215  -3.473  0.00  0.00     0.240 C 
ATOM      3  O   UNL d   1      29.061 -14.904  -3.322  0.00  0.00    -0.271 OA
ATOM      4  H   UNL d   1      26.209 -16.086  -2.537  0.00  0.00     0.190 HD
ENDROOT
BRANCH   1   5
ATOM      5  N   UNL d   1      27.686 -16.439  -1.217  0.00  0.00    -0.274 N 
ATOM      6  H   UNL d   1      28.613 -16.117  -0.938  0.00  0.00     0.189 HD
BRANCH   5   7
ATOM      7  C   UNL d   1      26.786 -17.115  -0.344  0.00  0.00     0.191 C 
ATOM      8  S   UNL d   1      27.173 -18.564   0.387  0.00  0.00    -0.039 SA
BRANCH   7   9
ATOM      9  N   UNL d   1      25.519 -16.589  -0.149  0.00  0.00    -0.332 N 
ATOM     10  H   UNL d   1      25.478 -15.574  -0.160  0.00  0.00     0.168 HD
BRANCH   9  11
ATOM     11  C   UNL d   1      24.243 -17.275  -0.443  0.00  0.00     0.034 A 
ATOM     12  C   UNL d   1      23.106 -16.513  -0.716  0.00  0.00     0.030 A 
ATOM     13  C   UNL d   1      21.835 -17.131  -0.893  0.00  0.00     0.020 A 
ATOM     14  C   UNL d   1      21.688 -18.529  -0.884  0.00  0.00     0.039 A 
ATOM     15  C   UNL d   1      22.811 -19.305  -0.693  0.00  0.00     0.020 A 
ATOM     16  C   UNL d   1      24.048 -18.685  -0.455  0.00  0.00     0.030 A 
BRANCH  14  17
ATOM     17  C   UNL d   1      20.401 -19.213  -1.217  0.00  0.00     0.293 C 
ATOM     18  O   UNL d   1      20.280 -19.960  -2.146  0.00  0.00    -0.259 OA
BRANCH  17  19
ATOM     19  O   UNL d   1      19.440 -18.893  -0.287  0.00  0.00    -0.318 OA
BRANCH  19  20
ATOM     20  C   UNL d   1      19.141 -19.961   0.631  0.00  0.00     0.174 C 
ATOM     21  C   UNL d   1      20.170 -19.998   1.753  0.00  0.00     0.034 C 
ENDBRANCH  19  20
ENDBRANCH  17  19
ENDBRANCH  14  17
ENDBRANCH   9  11
ENDBRANCH   7   9
ENDBRANCH   5   7
ENDBRANCH   1   5
BRANCH   2  22
ATOM     22  C   UNL d   1      27.225 -15.154  -4.977  0.00  0.00     0.082 C 
ATOM     23  C   UNL d   1      27.511 -13.964  -5.907  0.00  0.00     0.042 C 
ATOM     24  C   UNL d   1      27.298 -12.687  -5.156  0.00  0.00     0.236 C 
ATOM     25  N   UNL d   1      25.827 -12.697  -4.617  0.00  0.00    -0.067 N 
ATOM     26  C   UNL d   1      25.237 -14.031  -4.139  0.00  0.00     0.236 C 
ATOM     27  H   UNL d   1      25.239 -12.435  -5.413  0.00  0.00     0.280 HD
ATOM     28  C   UNL d   1      25.701 -15.228  -4.905  0.00  0.00     0.042 C 
BRANCH  25  29
ATOM     29  C   UNL d   1      25.635 -11.532  -3.673  0.00  0.00     0.275 C 
BRANCH  29  30
ATOM     30  C   UNL d   1      25.540 -10.105  -4.200  0.00  0.00    -0.011 C 
ATOM     31  C   UNL d   1      25.540 -10.005  -5.614  0.00  0.00     0.013 C 
ATOM     32  C   UNL d   1      25.471  -8.764  -6.263  0.00  0.00     0.043 C 
ATOM     33  C   UNL d   1      25.292  -7.609  -5.530  0.00  0.00     0.118 C 
ATOM     34  F   UNL d   1      25.150  -6.426  -6.131  0.00  0.00    -0.206 F 
ATOM     35  C   UNL d   1      25.319  -7.648  -4.163  0.00  0.00     0.066 C 
ATOM     36  C   UNL d   1      25.544  -8.856  -3.507  0.00  0.00     0.044 C 
ATOM     37 CL   UNL d   1      25.962  -8.474  -1.869  0.00  0.00    -0.084 Cl
ENDBRANCH  29  30
ENDBRANCH  25  29
ENDBRANCH   2  22
TORSDOF 10
ENDMDL
MODEL 6
REMARK VINA RESULT:    -9.448      2.627      4.343
REMARK INTER + INTRA:         -14.986
REMARK INTER:                 -12.431
REMARK INTRA:                  -2.554
REMARK CONF_INDEPENDENT:        2.983
REMARK UNBOUND:                -2.554
REMARK  10 active torsions:
REMARK  status: ('A' for Active; 'I' for Inactive)
REMARK    1  A    between atoms: C_2  and  O_3 
REMARK    2  A    between atoms: O_3  and  C_4 
REMARK    3  A    between atoms: C_4  and  C_6 
REMARK    4  A    between atoms: C_9  and  N_10 
REMARK    5  A    between atoms: N_10  and  C_11 
REMARK    6  A    between atoms: C_11  and  N_13 
REMARK    7  A    between atoms: N_13  and  N_14 
REMARK       I    between atoms: N_14  and  C_15 
REMARK    8  A    between atoms: C_15  and  C_17 
REMARK    9  A    between atoms: N_20  and  C_21 
REMARK   10  A    between atoms: C_21  and  C_22 
ROOT
ATOM      1  N   UNL d   1      28.201 -14.757   2.423  0.00  0.00    -0.268 N 
ATOM      2  C   UNL d   1      27.635 -13.966   3.443  0.00  0.00     0.240 C 
ATOM      3  O   UNL d   1      26.721 -13.183   3.193  0.00  0.00    -0.271 OA
ATOM      4  H   UNL d   1      28.859 -15.478   2.640  0.00  0.00     0.190 HD
ENDROOT
BRANCH   1   5
ATOM      5  N   UNL d   1      27.508 -15.182   1.179  0.00  0.00    -0.274 N 
ATOM      6  H   UNL d   1      26.771 -14.545   0.877  0.00  0.00     0.189 HD
BRANCH   5   7
ATOM      7  C   UNL d   1      28.174 -16.092   0.307  0.00  0.00     0.191 C 
ATOM      8  S   UNL d   1      29.670 -15.762  -0.352  0.00  0.00    -0.039 SA
BRANCH   7   9
ATOM      9  N   UNL d   1      27.527 -17.260  -0.063  0.00  0.00    -0.332 N 
ATOM     10  H   UNL d   1      28.020 -18.112   0.188  0.00  0.00     0.168 HD
BRANCH   9  11
ATOM     11  C   UNL d   1      26.072 -17.413  -0.275  0.00  0.00     0.034 A 
ATOM     12  C   UNL d   1      25.346 -18.264   0.561  0.00  0.00     0.030 A 
ATOM     13  C   UNL d   1      23.967 -18.526   0.321  0.00  0.00     0.020 A 
ATOM     14  C   UNL d   1      23.263 -17.880  -0.710  0.00  0.00     0.039 A 
ATOM     15  C   UNL d   1      23.942 -16.977  -1.501  0.00  0.00     0.020 A 
ATOM     16  C   UNL d   1      25.316 -16.774  -1.297  0.00  0.00     0.030 A 
BRANCH  14  17
ATOM     17  C   UNL d   1      21.786 -18.015  -0.895  0.00  0.00     0.293 C 
ATOM     18  O   UNL d   1      21.040 -17.077  -0.898  0.00  0.00    -0.259 OA
BRANCH  17  19
ATOM     19  O   UNL d   1      21.454 -19.333  -1.103  0.00  0.00    -0.318 OA
BRANCH  19  20
ATOM     20  C   UNL d   1      20.045 -19.604  -0.980  0.00  0.00     0.174 C 
ATOM     21  C   UNL d   1      19.645 -19.665   0.488  0.00  0.00     0.034 C 
ENDBRANCH  19  20
ENDBRANCH  17  19
ENDBRANCH  14  17
ENDBRANCH   9  11
ENDBRANCH   7   9
ENDBRANCH   5   7
ENDBRANCH   1   5
BRANCH   2  22
ATOM     22  C   UNL d   1      28.106 -14.172   5.002  0.00  0.00     0.082 C 
ATOM     23  C   UNL d   1      28.602 -12.979   5.835  0.00  0.00     0.042 C 
ATOM     24  C   UNL d   1      29.618 -12.215   5.045  0.00  0.00     0.236 C 
ATOM     25  N   UNL d   1      30.766 -13.211   4.665  0.00  0.00    -0.067 N 
ATOM     26  C   UNL d   1      30.389 -14.659   4.322  0.00  0.00     0.236 C 
ATOM     27  H   UNL d   1      31.347 -13.296   5.504  0.00  0.00     0.280 HD
ATOM     28  C   UNL d   1      29.231 -15.201   5.096  0.00  0.00     0.042 C 
BRANCH  25  29
ATOM     29  C   UNL d   1      31.704 -12.540   3.687  0.00  0.00     0.275 C 
BRANCH  29  30
ATOM     30  C   UNL d   1      31.435 -12.589   2.187  0.00  0.00    -0.011 C 
ATOM     31  C   UNL d   1      32.518 -13.082   1.416  0.00  0.00     0.013 C 
ATOM     32  C   UNL d   1      32.442 -13.180   0.020  0.00  0.00     0.043 C 
ATOM     33  C   UNL d   1      31.258 -12.896  -0.630  0.00  0.00     0.118 C 
ATOM     34  F   UNL d   1      31.142 -13.054  -1.950  0.00  0.00    -0.206 F 
ATOM     35  C   UNL d   1      30.196 -12.386   0.064  0.00  0.00     0.066 C 
ATOM     36  C   UNL d   1      30.312 -12.136   1.429  0.00  0.00     0.044 C 
ATOM     37 CL   UNL d   1      28.994 -11.101   1.870  0.00  0.00    -0.084 Cl
ENDBRANCH  29  30
ENDBRANCH  25  29
ENDBRANCH   2  22
TORSDOF 10
ENDMDL
MODEL 7
REMARK VINA RESULT:    -9.397      4.848      6.474
REMARK INTER + INTRA:         -15.901
REMARK INTER:                 -12.380
REMARK INTRA:                  -3.520
REMARK CONF_INDEPENDENT:        2.983
REMARK UNBOUND:                -3.520
REMARK  10 active torsions:
REMARK  status: ('A' for Active; 'I' for Inactive)
REMARK    1  A    between atoms: C_2  and  O_3 
REMARK    2  A    between atoms: O_3  and  C_4 
REMARK    3  A    between atoms: C_4  and  C_6 
REMARK    4  A    between atoms: C_9  and  N_10 
REMARK    5  A    between atoms: N_10  and  C_11 
REMARK    6  A    between atoms: C_11  and  N_13 
REMARK    7  A    between atoms: N_13  and  N_14 
REMARK       I    between atoms: N_14  and  C_15 
REMARK    8  A    between atoms: C_15  and  C_17 
REMARK    9  A    between atoms: N_20  and  C_21 
REMARK   10  A    between atoms: C_21  and  C_22 
ROOT
ATOM      1  N   UNL d   1      28.575 -17.504  -0.179  0.00  0.00    -0.268 N 
ATOM      2  C   UNL d   1      28.955 -17.025  -1.448  0.00  0.00     0.240 C 
ATOM      3  O   UNL d   1      28.134 -16.480  -2.183  0.00  0.00    -0.271 OA
ATOM      4  H   UNL d   1      29.260 -17.838   0.469  0.00  0.00     0.190 HD
ENDROOT
BRANCH   1   5
ATOM      5  N   UNL d   1      27.447 -16.983   0.636  0.00  0.00    -0.274 N 
ATOM      6  H   UNL d   1      27.463 -17.289   1.609  0.00  0.00     0.189 HD
BRANCH   5   7
ATOM      7  C   UNL d   1      26.763 -15.817   0.184  0.00  0.00     0.191 C 
ATOM      8  S   UNL d   1      27.010 -14.317   0.871  0.00  0.00    -0.039 SA
BRANCH   7   9
ATOM      9  N   UNL d   1      25.808 -15.943  -0.811  0.00  0.00    -0.332 N 
ATOM     10  H   UNL d   1      26.150 -15.753  -1.749  0.00  0.00     0.168 HD
BRANCH   9  11
ATOM     11  C   UNL d   1      24.591 -16.779  -0.741  0.00  0.00     0.034 A 
ATOM     12  C   UNL d   1      24.717 -18.149  -0.502  0.00  0.00     0.030 A 
ATOM     13  C   UNL d   1      23.581 -19.007  -0.539  0.00  0.00     0.020 A 
ATOM     14  C   UNL d   1      22.283 -18.503  -0.733  0.00  0.00     0.039 A 
ATOM     15  C   UNL d   1      22.126 -17.143  -0.895  0.00  0.00     0.020 A 
ATOM     16  C   UNL d   1      23.258 -16.313  -0.921  0.00  0.00     0.030 A 
BRANCH  14  17
ATOM     17  C   UNL d   1      21.057 -19.352  -0.626  0.00  0.00     0.293 C 
ATOM     18  O   UNL d   1      20.318 -19.550  -1.549  0.00  0.00    -0.259 OA
BRANCH  17  19
ATOM     19  O   UNL d   1      20.957 -19.883   0.638  0.00  0.00    -0.318 OA
BRANCH  19  20
ATOM     20  C   UNL d   1      19.637 -19.790   1.205  0.00  0.00     0.174 C 
ATOM     21  C   UNL d   1      18.769 -20.941   0.714  0.00  0.00     0.034 C 
ENDBRANCH  19  20
ENDBRANCH  17  19
ENDBRANCH  14  17
ENDBRANCH   9  11
ENDBRANCH   7   9
ENDBRANCH   5   7
ENDBRANCH   1   5
BRANCH   2  22
ATOM     22  C   UNL d   1      30.530 -17.074  -1.910  0.00  0.00     0.082 C 
ATOM     23  C   UNL d   1      31.348 -15.779  -2.041  0.00  0.00     0.042 C 
ATOM     24  C   UNL d   1      30.567 -14.781  -2.838  0.00  0.00     0.236 C 
ATOM     25  N   UNL d   1      30.239 -15.437  -4.223  0.00  0.00    -0.067 N 
ATOM     26  C   UNL d   1      29.918 -16.937  -4.260  0.00  0.00     0.236 C 
ATOM     27  H   UNL d   1      31.093 -15.350  -4.780  0.00  0.00     0.280 HD
ATOM     28  C   UNL d   1      30.675 -17.760  -3.267  0.00  0.00     0.042 C 
BRANCH  25  29
ATOM     29  C   UNL d   1      29.269 -14.553  -4.975  0.00  0.00     0.275 C 
BRANCH  29  30
ATOM     30  C   UNL d   1      27.858 -14.316  -4.450  0.00  0.00    -0.011 C 
ATOM     31  C   UNL d   1      26.880 -15.187  -4.992  0.00  0.00     0.013 C 
ATOM     32  C   UNL d   1      25.530 -15.096  -4.626  0.00  0.00     0.043 C 
ATOM     33  C   UNL d   1      25.139 -14.216  -3.637  0.00  0.00     0.118 C 
ATOM     34  F   UNL d   1      23.873 -14.165  -3.221  0.00  0.00    -0.206 F 
ATOM     35  C   UNL d   1      26.037 -13.331  -3.107  0.00  0.00     0.066 C 
ATOM     36  C   UNL d   1      27.349 -13.306  -3.577  0.00  0.00     0.044 C 
ATOM     37 CL   UNL d   1      28.052 -11.816  -3.040  0.00  0.00    -0.084 Cl
ENDBRANCH  29  30
ENDBRANCH  25  29
ENDBRANCH   2  22
TORSDOF 10
ENDMDL
MODEL 8
REMARK VINA RESULT:    -9.321      2.749      4.346
REMARK INTER + INTRA:         -14.822
REMARK INTER:                 -12.304
REMARK INTRA:                  -2.518
REMARK CONF_INDEPENDENT:        2.983
REMARK UNBOUND:                -2.518
REMARK  10 active torsions:
REMARK  status: ('A' for Active; 'I' for Inactive)
REMARK    1  A    between atoms: C_2  and  O_3 
REMARK    2  A    between atoms: O_3  and  C_4 
REMARK    3  A    between atoms: C_4  and  C_6 
REMARK    4  A    between atoms: C_9  and  N_10 
REMARK    5  A    between atoms: N_10  and  C_11 
REMARK    6  A    between atoms: C_11  and  N_13 
REMARK    7  A    between atoms: N_13  and  N_14 
REMARK       I    between atoms: N_14  and  C_15 
REMARK    8  A    between atoms: C_15  and  C_17 
REMARK    9  A    between atoms: N_20  and  C_21 
REMARK   10  A    between atoms: C_21  and  C_22 
ROOT
ATOM      1  N   UNL d   1      27.531 -14.143   1.907  0.00  0.00    -0.268 N 
ATOM      2  C   UNL d   1      27.666 -12.924   2.601  0.00  0.00     0.240 C 
ATOM      3  O   UNL d   1      27.455 -11.854   2.032  0.00  0.00    -0.271 OA
ATOM      4  H   UNL d   1      27.584 -15.017   2.392  0.00  0.00     0.190 HD
ENDROOT
BRANCH   1   5
ATOM      5  N   UNL d   1      26.656 -14.371   0.727  0.00  0.00    -0.274 N 
ATOM      6  H   UNL d   1      26.504 -13.538   0.158  0.00  0.00     0.189 HD
BRANCH   5   7
ATOM      7  C   UNL d   1      26.502 -15.702   0.241  0.00  0.00     0.191 C 
ATOM      8  S   UNL d   1      27.407 -16.974   0.828  0.00  0.00    -0.039 SA
BRANCH   7   9
ATOM      9  N   UNL d   1      25.622 -15.936  -0.803  0.00  0.00    -0.332 N 
ATOM     10  H   UNL d   1      26.029 -15.831  -1.728  0.00  0.00     0.168 HD
BRANCH   9  11
ATOM     11  C   UNL d   1      24.410 -16.780  -0.739  0.00  0.00     0.034 A 
ATOM     12  C   UNL d   1      24.544 -18.151  -0.512  0.00  0.00     0.030 A 
ATOM     13  C   UNL d   1      23.413 -19.015  -0.556  0.00  0.00     0.020 A 
ATOM     14  C   UNL d   1      22.112 -18.517  -0.745  0.00  0.00     0.039 A 
ATOM     15  C   UNL d   1      21.947 -17.157  -0.895  0.00  0.00     0.020 A 
ATOM     16  C   UNL d   1      23.075 -16.320  -0.914  0.00  0.00     0.030 A 
BRANCH  14  17
ATOM     17  C   UNL d   1      20.891 -19.373  -0.644  0.00  0.00     0.293 C 
ATOM     18  O   UNL d   1      20.239 -19.695  -1.597  0.00  0.00    -0.259 OA
BRANCH  17  19
ATOM     19  O   UNL d   1      20.685 -19.754   0.661  0.00  0.00    -0.318 OA
BRANCH  19  20
ATOM     20  C   UNL d   1      19.306 -19.709   1.069  0.00  0.00     0.174 C 
ATOM     21  C   UNL d   1      18.586 -20.982   0.641  0.00  0.00     0.034 C 
ENDBRANCH  19  20
ENDBRANCH  17  19
ENDBRANCH  14  17
ENDBRANCH   9  11
ENDBRANCH   7   9
ENDBRANCH   5   7
ENDBRANCH   1   5
BRANCH   2  22
ATOM     22  C   UNL d   1      27.984 -12.923   4.211  0.00  0.00     0.082 C 
ATOM     23  C   UNL d   1      29.133 -12.077   4.782  0.00  0.00     0.042 C 
ATOM     24  C   UNL d   1      30.370 -12.314   3.971  0.00  0.00     0.236 C 
ATOM     25  N   UNL d   1      30.670 -13.852   4.009  0.00  0.00    -0.067 N 
ATOM     26  C   UNL d   1      29.483 -14.825   3.986  0.00  0.00     0.236 C 
ATOM     27  H   UNL d   1      31.118 -14.024   4.913  0.00  0.00     0.280 HD
ATOM     28  C   UNL d   1      28.267 -14.340   4.707  0.00  0.00     0.042 C 
BRANCH  25  29
ATOM     29  C   UNL d   1      31.779 -14.166   3.031  0.00  0.00     0.275 C 
BRANCH  29  30
ATOM     30  C   UNL d   1      31.516 -15.025   1.799  0.00  0.00    -0.011 C 
ATOM     31  C   UNL d   1      32.198 -16.268   1.799  0.00  0.00     0.013 C 
ATOM     32  C   UNL d   1      32.077 -17.173   0.735  0.00  0.00     0.043 C 
ATOM     33  C   UNL d   1      31.195 -16.915  -0.295  0.00  0.00     0.118 C 
ATOM     34  F   UNL d   1      31.008 -17.797  -1.280  0.00  0.00    -0.206 F 
ATOM     35  C   UNL d   1      30.539 -15.717  -0.358  0.00  0.00     0.066 C 
ATOM     36  C   UNL d   1      30.772 -14.745   0.612  0.00  0.00     0.044 C 
ATOM     37 CL   UNL d   1      30.158 -13.249  -0.010  0.00  0.00    -0.084 Cl
ENDBRANCH  29  30
ENDBRANCH  25  29
ENDBRANCH   2  22
TORSDOF 10
ENDMDL
MODEL 9
REMARK VINA RESULT:    -8.464      3.468      5.112
REMARK INTER + INTRA:         -14.341
REMARK INTER:                 -11.447
REMARK INTRA:                  -2.894
REMARK CONF_INDEPENDENT:        2.983
REMARK UNBOUND:                -2.894
REMARK  10 active torsions:
REMARK  status: ('A' for Active; 'I' for Inactive)
REMARK    1  A    between atoms: C_2  and  O_3 
REMARK    2  A    between atoms: O_3  and  C_4 
REMARK    3  A    between atoms: C_4  and  C_6 
REMARK    4  A    between atoms: C_9  and  N_10 
REMARK    5  A    between atoms: N_10  and  C_11 
REMARK    6  A    between atoms: C_11  and  N_13 
REMARK    7  A    between atoms: N_13  and  N_14 
REMARK       I    between atoms: N_14  and  C_15 
REMARK    8  A    between atoms: C_15  and  C_17 
REMARK    9  A    between atoms: N_20  and  C_21 
REMARK   10  A    between atoms: C_21  and  C_22 
ROOT
ATOM      1  N   UNL d   1      28.688 -15.865   0.885  0.00  0.00    -0.268 N 
ATOM      2  C   UNL d   1      28.004 -14.805   1.512  0.00  0.00     0.240 C 
ATOM      3  O   UNL d   1      26.925 -14.410   1.073  0.00  0.00    -0.271 OA
ATOM      4  H   UNL d   1      29.502 -16.269   1.305  0.00  0.00     0.190 HD
ENDROOT
BRANCH   1   5
ATOM      5  N   UNL d   1      28.055 -16.942   0.079  0.00  0.00    -0.274 N 
ATOM      6  H   UNL d   1      28.329 -17.884   0.359  0.00  0.00     0.189 HD
BRANCH   5   7
ATOM      7  C   UNL d   1      26.856 -16.644  -0.631  0.00  0.00     0.191 C 
ATOM      8  S   UNL d   1      26.846 -16.323  -2.268  0.00  0.00    -0.039 SA
BRANCH   7   9
ATOM      9  N   UNL d   1      25.666 -16.548   0.072  0.00  0.00    -0.332 N 
ATOM     10  H   UNL d   1      25.576 -15.706   0.633  0.00  0.00     0.168 HD
BRANCH   9  11
ATOM     11  C   UNL d   1      24.392 -17.204  -0.290  0.00  0.00     0.034 A 
ATOM     12  C   UNL d   1      23.296 -16.416  -0.649  0.00  0.00     0.030 A 
ATOM     13  C   UNL d   1      22.022 -17.002  -0.895  0.00  0.00     0.020 A 
ATOM     14  C   UNL d   1      21.834 -18.395  -0.869  0.00  0.00     0.039 A 
ATOM     15  C   UNL d   1      22.920 -19.197  -0.592  0.00  0.00     0.020 A 
ATOM     16  C   UNL d   1      24.157 -18.608  -0.288  0.00  0.00     0.030 A 
BRANCH  14  17
ATOM     17  C   UNL d   1      20.551 -19.049  -1.270  0.00  0.00     0.293 C 
ATOM     18  O   UNL d   1      20.469 -19.820  -2.184  0.00  0.00    -0.259 OA
BRANCH  17  19
ATOM     19  O   UNL d   1      19.540 -18.673  -0.416  0.00  0.00    -0.318 OA
BRANCH  19  20
ATOM     20  C   UNL d   1      19.150 -19.701   0.512  0.00  0.00     0.174 C 
ATOM     21  C   UNL d   1      20.088 -19.713   1.712  0.00  0.00     0.034 C 
ENDBRANCH  19  20
ENDBRANCH  17  19
ENDBRANCH  14  17
ENDBRANCH   9  11
ENDBRANCH   7   9
ENDBRANCH   5   7
ENDBRANCH   1   5
BRANCH   2  22
ATOM     22  C   UNL d   1      28.578 -14.167   2.912  0.00  0.00     0.082 C 
ATOM     23  C   UNL d   1      28.010 -12.849   3.462  0.00  0.00     0.042 C 
ATOM     24  C   UNL d   1      27.969 -11.832   2.364  0.00  0.00     0.236 C 
ATOM     25  N   UNL d   1      29.426 -11.681   1.808  0.00  0.00    -0.067 N 
ATOM     26  C   UNL d   1      30.306 -12.936   1.723  0.00  0.00     0.236 C 
ATOM     27  H   UNL d   1      29.915 -11.077   2.474  0.00  0.00     0.280 HD
ATOM     28  C   UNL d   1      30.084 -13.928   2.819  0.00  0.00     0.042 C 
BRANCH  25  29
ATOM     29  C   UNL d   1      29.397 -10.830   0.558  0.00  0.00     0.275 C 
BRANCH  29  30
ATOM     30  C   UNL d   1      28.436 -11.148  -0.582  0.00  0.00    -0.011 C 
ATOM     31  C   UNL d   1      28.488 -12.492  -1.031  0.00  0.00     0.013 C 
ATOM     32  C   UNL d   1      27.679 -12.948  -2.081  0.00  0.00     0.043 C 
ATOM     33  C   UNL d   1      26.727 -12.114  -2.634  0.00  0.00     0.118 C 
ATOM     34  F   UNL d   1      25.897 -12.550  -3.583  0.00  0.00    -0.206 F 
ATOM     35  C   UNL d   1      26.660 -10.801  -2.259  0.00  0.00     0.066 C 
ATOM     36  C   UNL d   1      27.564 -10.296  -1.328  0.00  0.00     0.044 C 
ATOM     37 CL   UNL d   1      27.492  -8.568  -1.435  0.00  0.00    -0.084 Cl
ENDBRANCH  29  30
ENDBRANCH  25  29
ENDBRANCH   2  22
TORSDOF 10
ENDMDL
