MODEL 1
REMARK VINA RESULT:   -31.591      0.000      0.000
REMARK INTER + INTRA:         -33.833
REMARK INTER:                 -33.083
REMARK INTRA:                  -0.750
REMARK CONF_INDEPENDENT:        1.492
REMARK UNBOUND:                -0.750
REMARK  5 active torsions:
REMARK  status: ('A' for Active; 'I' for Inactive)
REMARK    1  A    between atoms: O_2  and  C_3 
REMARK    2  A    between atoms: C_6  and  N_7 
REMARK    3  A    between atoms: N_7  and  C_8 
REMARK    4  A    between atoms: C_11  and  N_12 
REMARK       I    between atoms: N_12  and  C_13 
REMARK    5  A    between atoms: C_13  and  C_15 
ROOT
ATOM      1  C   UNL d   1      26.695 -16.698  -1.165  0.00  0.00     0.032 A 
ATOM      2  C   UNL d   1      25.584 -16.638  -2.011  0.00  0.00     0.031 A 
ATOM      3  C   UNL d   1      24.383 -17.300  -1.678  0.00  0.00     0.032 A 
ATOM      4  C   UNL d   1      24.300 -18.080  -0.516  0.00  0.00     0.035 A 
ATOM      5  C   UNL d   1      25.415 -18.112   0.321  0.00  0.00     0.032 A 
ATOM      6  C   UNL d   1      26.580 -17.420   0.017  0.00  0.00     0.031 A 
ENDROOT
BRANCH   1   7
ATOM      7  N   UNL d   1      27.883 -16.009  -1.480  0.00  0.00    -0.356 N 
ATOM      8  H   UNL d   1      28.604 -16.137  -0.777  0.00  0.00     0.166 HD
BRANCH   7   9
ATOM      9  C   UNL d   1      28.368 -15.728  -2.778  0.00  0.00     0.032 A 
ATOM     10  C   UNL d   1      27.669 -14.873  -3.634  0.00  0.00     0.032 A 
ATOM     11  C   UNL d   1      28.002 -14.807  -4.997  0.00  0.00     0.039 A 
ATOM     12  C   UNL d   1      29.076 -15.541  -5.506  0.00  0.00     0.068 A 
ATOM     13  C   UNL d   1      29.816 -16.343  -4.649  0.00  0.00     0.039 A 
ATOM     14  C   UNL d   1      29.449 -16.445  -3.310  0.00  0.00     0.032 A 
BRANCH  12  15
ATOM     15  O   UNL d   1      29.372 -15.352  -6.827  0.00  0.00    -0.356 OA
ATOM     16  C   UNL d   1      29.414 -13.995  -7.262  0.00  0.00     0.210 C 
ENDBRANCH  12  15
ENDBRANCH   7   9
ENDBRANCH   1   7
BRANCH   4  17
ATOM     17  N   UNL d   1      23.127 -18.830  -0.224  0.00  0.00    -0.322 N 
ATOM     18  C   UNL d   1      21.824 -18.403  -0.502  0.00  0.00     0.274 C 
ATOM     19  O   UNL d   1      21.508 -17.345  -1.058  0.00  0.00    -0.266 OA
ATOM     20  H   UNL d   1      23.260 -19.731   0.218  0.00  0.00     0.169 HD
BRANCH  18  21
ATOM     21  C   UNL d   1      20.686 -19.262  -0.070  0.00  0.00     0.124 A 
ATOM     22  C   UNL d   1      20.649 -19.807   1.205  0.00  0.00     0.037 A 
ATOM     23  C   UNL d   1      19.478 -20.451   1.605  0.00  0.00     0.004 A 
ATOM     24  C   UNL d   1      18.393 -20.519   0.733  0.00  0.00     0.019 A 
ATOM     25  C   UNL d   1      18.517 -19.941  -0.517  0.00  0.00     0.117 A 
ATOM     26  N   UNL d   1      19.638 -19.325  -0.938  0.00  0.00    -0.256 NA
ENDBRANCH  18  21
ENDBRANCH   4  17
TORSDOF 5
ENDMDL
MODEL 2
REMARK VINA RESULT:   -30.967      3.541      4.871
REMARK INTER + INTRA:         -33.231
REMARK INTER:                 -32.458
REMARK INTRA:                  -0.772
REMARK CONF_INDEPENDENT:        1.492
REMARK UNBOUND:                -0.772
REMARK  5 active torsions:
REMARK  status: ('A' for Active; 'I' for Inactive)
REMARK    1  A    between atoms: O_2  and  C_3 
REMARK    2  A    between atoms: C_6  and  N_7 
REMARK    3  A    between atoms: N_7  and  C_8 
REMARK    4  A    between atoms: C_11  and  N_12 
REMARK       I    between atoms: N_12  and  C_13 
REMARK    5  A    between atoms: C_13  and  C_15 
ROOT
ATOM      1  C   UNL d   1      26.679 -16.253  -0.371  0.00  0.00     0.032 A 
ATOM      2  C   UNL d   1      26.642 -17.338   0.511  0.00  0.00     0.031 A 
ATOM      3  C   UNL d   1      25.514 -18.184   0.572  0.00  0.00     0.032 A 
ATOM      4  C   UNL d   1      24.383 -17.918  -0.213  0.00  0.00     0.035 A 
ATOM      5  C   UNL d   1      24.449 -16.842  -1.097  0.00  0.00     0.032 A 
ATOM      6  C   UNL d   1      25.578 -16.039  -1.191  0.00  0.00     0.031 A 
ENDROOT
BRANCH   1   7
ATOM      7  N   UNL d   1      27.818 -15.429  -0.457  0.00  0.00    -0.356 N 
ATOM      8  H   UNL d   1      27.893 -14.964  -1.356  0.00  0.00     0.166 HD
BRANCH   7   9
ATOM      9  C   UNL d   1      28.440 -14.748   0.614  0.00  0.00     0.032 A 
ATOM     10  C   UNL d   1      29.823 -14.548   0.629  0.00  0.00     0.032 A 
ATOM     11  C   UNL d   1      30.463 -14.117   1.802  0.00  0.00     0.039 A 
ATOM     12  C   UNL d   1      29.726 -13.816   2.950  0.00  0.00     0.068 A 
ATOM     13  C   UNL d   1      28.346 -13.949   2.923  0.00  0.00     0.039 A 
ATOM     14  C   UNL d   1      27.721 -14.428   1.774  0.00  0.00     0.032 A 
BRANCH  12  15
ATOM     15  O   UNL d   1      30.430 -13.330   4.016  0.00  0.00    -0.356 OA
ATOM     16  C   UNL d   1      29.985 -13.765   5.299  0.00  0.00     0.210 C 
ENDBRANCH  12  15
ENDBRANCH   7   9
ENDBRANCH   1   7
BRANCH   4  17
ATOM     17  N   UNL d   1      23.207 -18.708  -0.085  0.00  0.00    -0.322 N 
ATOM     18  C   UNL d   1      21.910 -18.247  -0.338  0.00  0.00     0.274 C 
ATOM     19  O   UNL d   1      21.605 -17.115  -0.732  0.00  0.00    -0.266 OA
ATOM     20  H   UNL d   1      23.332 -19.667   0.215  0.00  0.00     0.169 HD
BRANCH  18  21
ATOM     21  C   UNL d   1      20.765 -19.166  -0.086  0.00  0.00     0.124 A 
ATOM     22  C   UNL d   1      20.524 -19.673   1.182  0.00  0.00     0.037 A 
ATOM     23  C   UNL d   1      19.340 -20.381   1.387  0.00  0.00     0.004 A 
ATOM     24  C   UNL d   1      18.443 -20.548   0.334  0.00  0.00     0.019 A 
ATOM     25  C   UNL d   1      18.763 -20.001  -0.895  0.00  0.00     0.117 A 
ATOM     26  N   UNL d   1      19.903 -19.325  -1.129  0.00  0.00    -0.256 NA
ENDBRANCH  18  21
ENDBRANCH   4  17
TORSDOF 5
ENDMDL
MODEL 3
REMARK VINA RESULT:   -30.926      1.637      2.204
REMARK INTER + INTRA:         -33.232
REMARK INTER:                 -32.418
REMARK INTRA:                  -0.815
REMARK CONF_INDEPENDENT:        1.492
REMARK UNBOUND:                -0.815
REMARK  5 active torsions:
REMARK  status: ('A' for Active; 'I' for Inactive)
REMARK    1  A    between atoms: O_2  and  C_3 
REMARK    2  A    between atoms: C_6  and  N_7 
REMARK    3  A    between atoms: N_7  and  C_8 
REMARK    4  A    between atoms: C_11  and  N_12 
REMARK       I    between atoms: N_12  and  C_13 
REMARK    5  A    between atoms: C_13  and  C_15 
ROOT
ATOM      1  C   UNL d   1      26.394 -16.132  -1.100  0.00  0.00     0.032 A 
ATOM      2  C   UNL d   1      26.379 -16.933   0.046  0.00  0.00     0.031 A 
ATOM      3  C   UNL d   1      25.302 -17.808   0.305  0.00  0.00     0.032 A 
ATOM      4  C   UNL d   1      24.197 -17.848  -0.557  0.00  0.00     0.035 A 
ATOM      5  C   UNL d   1      24.241 -17.053  -1.701  0.00  0.00     0.032 A 
ATOM      6  C   UNL d   1      25.323 -16.229  -1.980  0.00  0.00     0.031 A 
ENDROOT
BRANCH   1   7
ATOM      7  N   UNL d   1      27.484 -15.284  -1.376  0.00  0.00    -0.356 N 
ATOM      8  H   UNL d   1      28.375 -15.707  -1.136  0.00  0.00     0.166 HD
BRANCH   7   9
ATOM      9  C   UNL d   1      27.550 -14.313  -2.401  0.00  0.00     0.032 A 
ATOM     10  C   UNL d   1      26.899 -13.083  -2.265  0.00  0.00     0.032 A 
ATOM     11  C   UNL d   1      26.742 -12.239  -3.376  0.00  0.00     0.039 A 
ATOM     12  C   UNL d   1      27.288 -12.580  -4.616  0.00  0.00     0.068 A 
ATOM     13  C   UNL d   1      27.991 -13.769  -4.743  0.00  0.00     0.039 A 
ATOM     14  C   UNL d   1      28.100 -14.627  -3.652  0.00  0.00     0.032 A 
BRANCH  12  15
ATOM     15  O   UNL d   1      27.150 -11.659  -5.617  0.00  0.00    -0.356 OA
ATOM     16  C   UNL d   1      25.953 -10.884  -5.582  0.00  0.00     0.210 C 
ENDBRANCH  12  15
ENDBRANCH   7   9
ENDBRANCH   1   7
BRANCH   4  17
ATOM     17  N   UNL d   1      23.064 -18.653  -0.251  0.00  0.00    -0.322 N 
ATOM     18  C   UNL d   1      21.740 -18.301  -0.534  0.00  0.00     0.274 C 
ATOM     19  O   UNL d   1      21.369 -17.272  -1.109  0.00  0.00    -0.266 OA
ATOM     20  H   UNL d   1      23.245 -19.538   0.208  0.00  0.00     0.169 HD
BRANCH  18  21
ATOM     21  C   UNL d   1      20.649 -19.211  -0.085  0.00  0.00     0.124 A 
ATOM     22  C   UNL d   1      20.655 -19.753   1.191  0.00  0.00     0.037 A 
ATOM     23  C   UNL d   1      19.521 -20.450   1.608  0.00  0.00     0.004 A 
ATOM     24  C   UNL d   1      18.429 -20.571   0.750  0.00  0.00     0.019 A 
ATOM     25  C   UNL d   1      18.510 -19.992  -0.503  0.00  0.00     0.117 A 
ATOM     26  N   UNL d   1      19.594 -19.325  -0.940  0.00  0.00    -0.256 NA
ENDBRANCH  18  21
ENDBRANCH   4  17
TORSDOF 5
ENDMDL
MODEL 4
REMARK VINA RESULT:   -30.727      3.361      4.325
REMARK INTER + INTRA:         -32.988
REMARK INTER:                 -32.218
REMARK INTRA:                  -0.770
REMARK CONF_INDEPENDENT:        1.492
REMARK UNBOUND:                -0.770
REMARK  5 active torsions:
REMARK  status: ('A' for Active; 'I' for Inactive)
REMARK    1  A    between atoms: O_2  and  C_3 
REMARK    2  A    between atoms: C_6  and  N_7 
REMARK    3  A    between atoms: N_7  and  C_8 
REMARK    4  A    between atoms: C_11  and  N_12 
REMARK       I    between atoms: N_12  and  C_13 
REMARK    5  A    between atoms: C_13  and  C_15 
ROOT
ATOM      1  C   UNL d   1      26.657 -16.179  -0.762  0.00  0.00     0.032 A 
ATOM      2  C   UNL d   1      26.700 -17.268   0.113  0.00  0.00     0.031 A 
ATOM      3  C   UNL d   1      25.585 -18.120   0.264  0.00  0.00     0.032 A 
ATOM      4  C   UNL d   1      24.390 -17.855  -0.421  0.00  0.00     0.035 A 
ATOM      5  C   UNL d   1      24.377 -16.774  -1.300  0.00  0.00     0.032 A 
ATOM      6  C   UNL d   1      25.490 -15.965  -1.485  0.00  0.00     0.031 A 
ENDROOT
BRANCH   1   7
ATOM      7  N   UNL d   1      27.782 -15.348  -0.939  0.00  0.00    -0.356 N 
ATOM      8  H   UNL d   1      28.170 -15.416  -1.874  0.00  0.00     0.166 HD
BRANCH   7   9
ATOM      9  C   UNL d   1      28.023 -14.117  -0.288  0.00  0.00     0.032 A 
ATOM     10  C   UNL d   1      28.230 -14.067   1.094  0.00  0.00     0.032 A 
ATOM     11  C   UNL d   1      28.203 -12.836   1.769  0.00  0.00     0.039 A 
ATOM     12  C   UNL d   1      28.034 -11.639   1.068  0.00  0.00     0.068 A 
ATOM     13  C   UNL d   1      27.893 -11.676  -0.311  0.00  0.00     0.039 A 
ATOM     14  C   UNL d   1      27.869 -12.902  -0.970  0.00  0.00     0.032 A 
BRANCH  12  15
ATOM     15  O   UNL d   1      28.099 -10.488   1.803  0.00  0.00    -0.356 OA
ATOM     16  C   UNL d   1      26.965 -10.216   2.624  0.00  0.00     0.210 C 
ENDBRANCH  12  15
ENDBRANCH   7   9
ENDBRANCH   1   7
BRANCH   4  17
ATOM     17  N   UNL d   1      23.232 -18.651  -0.198  0.00  0.00    -0.322 N 
ATOM     18  C   UNL d   1      21.920 -18.227  -0.436  0.00  0.00     0.274 C 
ATOM     19  O   UNL d   1      21.583 -17.130  -0.896  0.00  0.00    -0.266 OA
ATOM     20  H   UNL d   1      23.384 -19.586   0.162  0.00  0.00     0.169 HD
BRANCH  18  21
ATOM     21  C   UNL d   1      20.800 -19.144  -0.084  0.00  0.00     0.124 A 
ATOM     22  C   UNL d   1      20.655 -19.626   1.209  0.00  0.00     0.037 A 
ATOM     23  C   UNL d   1      19.492 -20.332   1.514  0.00  0.00     0.004 A 
ATOM     24  C   UNL d   1      18.520 -20.521   0.533  0.00  0.00     0.019 A 
ATOM     25  C   UNL d   1      18.747 -19.999  -0.727  0.00  0.00     0.117 A 
ATOM     26  N   UNL d   1      19.864 -19.325  -1.057  0.00  0.00    -0.256 NA
ENDBRANCH  18  21
ENDBRANCH   4  17
TORSDOF 5
ENDMDL
MODEL 5
REMARK VINA RESULT:   -30.625      2.777      3.614
REMARK INTER + INTRA:         -32.865
REMARK INTER:                 -32.116
REMARK INTRA:                  -0.749
REMARK CONF_INDEPENDENT:        1.492
REMARK UNBOUND:                -0.749
REMARK  5 active torsions:
REMARK  status: ('A' for Active; 'I' for Inactive)
REMARK    1  A    between atoms: O_2  and  C_3 
REMARK    2  A    between atoms: C_6  and  N_7 
REMARK    3  A    between atoms: N_7  and  C_8 
REMARK    4  A    between atoms: C_11  and  N_12 
REMARK       I    between atoms: N_12  and  C_13 
REMARK    5  A    between atoms: C_13  and  C_15 
ROOT
ATOM      1  C   UNL d   1      26.626 -16.282  -1.178  0.00  0.00     0.032 A 
ATOM      2  C   UNL d   1      25.429 -16.097  -1.877  0.00  0.00     0.031 A 
ATOM      3  C   UNL d   1      24.267 -16.818  -1.527  0.00  0.00     0.032 A 
ATOM      4  C   UNL d   1      24.307 -17.779  -0.507  0.00  0.00     0.035 A 
ATOM      5  C   UNL d   1      25.506 -17.935   0.186  0.00  0.00     0.032 A 
ATOM      6  C   UNL d   1      26.636 -17.189  -0.125  0.00  0.00     0.031 A 
ENDROOT
BRANCH   1   7
ATOM      7  N   UNL d   1      27.776 -15.537  -1.503  0.00  0.00    -0.356 N 
ATOM      8  H   UNL d   1      27.564 -14.566  -1.712  0.00  0.00     0.166 HD
BRANCH   7   9
ATOM      9  C   UNL d   1      29.084 -15.763  -1.018  0.00  0.00     0.032 A 
ATOM     10  C   UNL d   1      29.706 -17.004  -1.185  0.00  0.00     0.032 A 
ATOM     11  C   UNL d   1      30.880 -17.308  -0.477  0.00  0.00     0.039 A 
ATOM     12  C   UNL d   1      31.482 -16.358   0.352  0.00  0.00     0.068 A 
ATOM     13  C   UNL d   1      30.906 -15.102   0.473  0.00  0.00     0.039 A 
ATOM     14  C   UNL d   1      29.714 -14.822  -0.190  0.00  0.00     0.032 A 
BRANCH  12  15
ATOM     15  O   UNL d   1      32.663 -16.721   0.937  0.00  0.00    -0.356 OA
ATOM     16  C   UNL d   1      33.091 -15.902   2.023  0.00  0.00     0.210 C 
ENDBRANCH  12  15
ENDBRANCH   7   9
ENDBRANCH   1   7
BRANCH   4  17
ATOM     17  N   UNL d   1      23.168 -18.580  -0.217  0.00  0.00    -0.322 N 
ATOM     18  C   UNL d   1      21.844 -18.186  -0.438  0.00  0.00     0.274 C 
ATOM     19  O   UNL d   1      21.477 -17.116  -0.937  0.00  0.00    -0.266 OA
ATOM     20  H   UNL d   1      23.343 -19.495   0.181  0.00  0.00     0.169 HD
BRANCH  18  21
ATOM     21  C   UNL d   1      20.748 -19.101  -0.013  0.00  0.00     0.124 A 
ATOM     22  C   UNL d   1      20.655 -19.540   1.299  0.00  0.00     0.037 A 
ATOM     23  C   UNL d   1      19.512 -20.246   1.671  0.00  0.00     0.004 A 
ATOM     24  C   UNL d   1      18.507 -20.479   0.734  0.00  0.00     0.019 A 
ATOM     25  C   UNL d   1      18.682 -19.998  -0.550  0.00  0.00     0.117 A 
ATOM     26  N   UNL d   1      19.779 -19.325  -0.944  0.00  0.00    -0.256 NA
ENDBRANCH  18  21
ENDBRANCH   4  17
TORSDOF 5
ENDMDL
MODEL 6
REMARK VINA RESULT:   -29.978      1.930      2.695
REMARK INTER + INTRA:         -32.283
REMARK INTER:                 -31.469
REMARK INTRA:                  -0.814
REMARK CONF_INDEPENDENT:        1.492
REMARK UNBOUND:                -0.814
REMARK  5 active torsions:
REMARK  status: ('A' for Active; 'I' for Inactive)
REMARK    1  A    between atoms: O_2  and  C_3 
REMARK    2  A    between atoms: C_6  and  N_7 
REMARK    3  A    between atoms: N_7  and  C_8 
REMARK    4  A    between atoms: C_11  and  N_12 
REMARK       I    between atoms: N_12  and  C_13 
REMARK    5  A    between atoms: C_13  and  C_15 
ROOT
ATOM      1  C   UNL d   1      26.517 -15.947  -1.354  0.00  0.00     0.032 A 
ATOM      2  C   UNL d   1      25.310 -15.712  -2.019  0.00  0.00     0.031 A 
ATOM      3  C   UNL d   1      24.109 -16.302  -1.570  0.00  0.00     0.032 A 
ATOM      4  C   UNL d   1      24.114 -17.184  -0.481  0.00  0.00     0.035 A 
ATOM      5  C   UNL d   1      25.326 -17.391   0.176  0.00  0.00     0.032 A 
ATOM      6  C   UNL d   1      26.498 -16.771  -0.236  0.00  0.00     0.031 A 
ENDROOT
BRANCH   1   7
ATOM      7  N   UNL d   1      27.710 -15.331  -1.780  0.00  0.00    -0.356 N 
ATOM      8  H   UNL d   1      27.778 -14.365  -1.476  0.00  0.00     0.166 HD
BRANCH   7   9
ATOM      9  C   UNL d   1      28.952 -15.971  -1.993  0.00  0.00     0.032 A 
ATOM     10  C   UNL d   1      29.397 -16.260  -3.286  0.00  0.00     0.032 A 
ATOM     11  C   UNL d   1      30.487 -17.123  -3.484  0.00  0.00     0.039 A 
ATOM     12  C   UNL d   1      31.186 -17.653  -2.396  0.00  0.00     0.068 A 
ATOM     13  C   UNL d   1      30.791 -17.318  -1.109  0.00  0.00     0.039 A 
ATOM     14  C   UNL d   1      29.677 -16.505  -0.918  0.00  0.00     0.032 A 
BRANCH  12  15
ATOM     15  O   UNL d   1      32.279 -18.420  -2.689  0.00  0.00    -0.356 OA
ATOM     16  C   UNL d   1      32.302 -19.714  -2.092  0.00  0.00     0.210 C 
ENDBRANCH  12  15
ENDBRANCH   7   9
ENDBRANCH   1   7
BRANCH   4  17
ATOM     17  N   UNL d   1      22.926 -17.859  -0.085  0.00  0.00    -0.322 N 
ATOM     18  C   UNL d   1      22.227 -18.770  -0.885  0.00  0.00     0.274 C 
ATOM     19  O   UNL d   1      22.551 -19.138  -2.020  0.00  0.00    -0.266 OA
ATOM     20  H   UNL d   1      22.572 -17.653   0.841  0.00  0.00     0.169 HD
BRANCH  18  21
ATOM     21  C   UNL d   1      20.954 -19.343  -0.366  0.00  0.00     0.124 A 
ATOM     22  C   UNL d   1      20.827 -19.707   0.966  0.00  0.00     0.037 A 
ATOM     23  C   UNL d   1      19.561 -20.068   1.426  0.00  0.00     0.004 A 
ATOM     24  C   UNL d   1      18.475 -20.044   0.553  0.00  0.00     0.019 A 
ATOM     25  C   UNL d   1      18.694 -19.660  -0.758  0.00  0.00     0.117 A 
ATOM     26  N   UNL d   1      19.905 -19.320  -1.236  0.00  0.00    -0.256 NA
ENDBRANCH  18  21
ENDBRANCH   4  17
TORSDOF 5
ENDMDL
