MODEL 1
REMARK VINA RESULT:   -10.679      0.000      0.000
REMARK INTER + INTRA:         -13.967
REMARK INTER:                 -12.767
REMARK INTRA:                  -1.200
REMARK CONF_INDEPENDENT:        2.088
REMARK UNBOUND:                -1.200
REMARK  7 active torsions:
REMARK  status: ('A' for Active; 'I' for Inactive)
REMARK    1  A    between atoms: C_7  and  N_8 
REMARK       I    between atoms: N_8  and  C_9 
REMARK       I    between atoms: C_9  and  N_11 
REMARK    2  A    between atoms: N_11  and  C_12 
REMARK    3  A    between atoms: C_15  and  N_16 
REMARK    4  A    between atoms: C_22  and  C_23 
REMARK       I    between atoms: C_23  and  N_25 
REMARK    5  A    between atoms: N_25  and  C_26 
REMARK    6  A    between atoms: C_26  and  C_27 
REMARK    7  A    between atoms: C_27  and  C_28 
ROOT
ATOM      1  C   UNL d   1      28.500 -14.634   1.476  0.00  0.00     0.037 A 
ATOM      2  C   UNL d   1      28.294 -13.504   0.660  0.00  0.00     0.032 A 
ATOM      3  C   UNL d   1      27.421 -13.522  -0.433  0.00  0.00     0.032 A 
ATOM      4  C   UNL d   1      26.707 -14.673  -0.782  0.00  0.00     0.046 A 
ATOM      5  C   UNL d   1      26.828 -15.809   0.080  0.00  0.00     0.060 A 
ATOM      6  C   UNL d   1      27.732 -15.770   1.194  0.00  0.00     0.049 A 
ENDROOT
BRANCH   1   7
ATOM      7  N   UNL d   1      29.416 -14.564   2.619  0.00  0.00    -0.309 N 
ATOM      8  C   UNL d   1      28.874 -14.110   3.805  0.00  0.00     0.325 C 
ATOM      9  N   UNL d   1      29.651 -13.958   4.940  0.00  0.00    -0.308 N 
ATOM     10  O   UNL d   1      27.659 -13.882   3.745  0.00  0.00    -0.247 OA
ATOM     11  H   UNL d   1      30.599 -14.311   4.912  0.00  0.00     0.170 HD
ATOM     12  H   UNL d   1      30.146 -15.261   2.674  0.00  0.00     0.170 HD
BRANCH   9  13
ATOM     13  C   UNL d   1      29.229 -13.389   6.233  0.00  0.00     0.042 A 
ATOM     14  C   UNL d   1      29.413 -14.149   7.414  0.00  0.00     0.030 A 
ATOM     15  C   UNL d   1      29.054 -13.650   8.696  0.00  0.00     0.002 A 
ATOM     16  C   UNL d   1      28.493 -12.389   8.841  0.00  0.00     0.001 A 
ATOM     17  C   UNL d   1      28.298 -11.628   7.712  0.00  0.00     0.009 A 
ATOM     18  C   UNL d   1      28.659 -12.102   6.433  0.00  0.00    -0.035 A 
ATOM     19  C   UNL d   1      28.371 -11.106   5.364  0.00  0.00     0.050 C 
ENDBRANCH   9  13
ENDBRANCH   1   7
BRANCH   5  20
ATOM     20  C   UNL d   1      26.042 -17.109  -0.094  0.00  0.00     0.254 C 
ATOM     21  O   UNL d   1      26.609 -18.142  -0.426  0.00  0.00    -0.268 OA
ATOM     22  N   UNL d   1      24.678 -17.065   0.131  0.00  0.00    -0.356 N 
ATOM     23  H   UNL d   1      24.299 -16.134   0.244  0.00  0.00     0.162 HD
BRANCH  22  24
ATOM     24  C   UNL d   1      23.777 -18.219   0.202  0.00  0.00     0.127 C 
BRANCH  24  25
ATOM     25  C   UNL d   1      22.516 -18.135  -0.715  0.00  0.00     0.058 C 
BRANCH  25  26
ATOM     26  C   UNL d   1      21.296 -18.960  -0.317  0.00  0.00    -0.057 A 
ATOM     27  C   UNL d   1      20.325 -19.326  -1.270  0.00  0.00     0.007 A 
ATOM     28  C   UNL d   1      19.090 -19.859  -0.870  0.00  0.00     0.001 A 
ATOM     29  C   UNL d   1      18.813 -20.047   0.481  0.00  0.00     0.000 A 
ATOM     30  C   UNL d   1      19.783 -19.733   1.433  0.00  0.00     0.001 A 
ATOM     31  C   UNL d   1      21.030 -19.245   1.032  0.00  0.00     0.007 A 
ENDBRANCH  25  26
ENDBRANCH  24  25
ENDBRANCH  22  24
ENDBRANCH   5  20
BRANCH   4  32
ATOM     32  N   UNL d   1      25.891 -14.595  -1.897  0.00  0.00    -0.380 N 
ATOM     33  C   UNL d   1      25.516 -15.713  -2.762  0.00  0.00     0.123 C 
ATOM     34  C   UNL d   1      25.894 -15.430  -4.228  0.00  0.00     0.020 C 
ATOM     35  C   UNL d   1      25.373 -14.091  -4.714  0.00  0.00     0.003 C 
ATOM     36  C   UNL d   1      25.985 -13.040  -3.815  0.00  0.00     0.020 C 
ATOM     37  C   UNL d   1      25.530 -13.291  -2.397  0.00  0.00     0.123 C 
ENDBRANCH   4  32
TORSDOF 7
ENDMDL
MODEL 2
REMARK VINA RESULT:    -9.539      5.509      9.514
REMARK INTER + INTRA:         -12.750
REMARK INTER:                 -11.627
REMARK INTRA:                  -1.124
REMARK CONF_INDEPENDENT:        2.088
REMARK UNBOUND:                -1.124
REMARK  7 active torsions:
REMARK  status: ('A' for Active; 'I' for Inactive)
REMARK    1  A    between atoms: C_7  and  N_8 
REMARK       I    between atoms: N_8  and  C_9 
REMARK       I    between atoms: C_9  and  N_11 
REMARK    2  A    between atoms: N_11  and  C_12 
REMARK    3  A    between atoms: C_15  and  N_16 
REMARK    4  A    between atoms: C_22  and  C_23 
REMARK       I    between atoms: C_23  and  N_25 
REMARK    5  A    between atoms: N_25  and  C_26 
REMARK    6  A    between atoms: C_26  and  C_27 
REMARK    7  A    between atoms: C_27  and  C_28 
ROOT
ATOM      1  C   UNL d   1      25.917 -10.227  -4.587  0.00  0.00     0.037 A 
ATOM      2  C   UNL d   1      26.866 -10.234  -5.629  0.00  0.00     0.032 A 
ATOM      3  C   UNL d   1      27.460 -11.414  -6.090  0.00  0.00     0.032 A 
ATOM      4  C   UNL d   1      27.148 -12.659  -5.532  0.00  0.00     0.046 A 
ATOM      5  C   UNL d   1      26.123 -12.693  -4.534  0.00  0.00     0.060 A 
ATOM      6  C   UNL d   1      25.530 -11.470  -4.072  0.00  0.00     0.049 A 
ENDROOT
BRANCH   1   7
ATOM      7  N   UNL d   1      25.313  -8.966  -4.146  0.00  0.00    -0.309 N 
ATOM      8  C   UNL d   1      24.321  -8.451  -4.957  0.00  0.00     0.325 C 
ATOM      9  N   UNL d   1      23.709  -7.245  -4.669  0.00  0.00    -0.308 N 
ATOM     10  O   UNL d   1      24.042  -9.172  -5.924  0.00  0.00    -0.247 OA
ATOM     11  H   UNL d   1      23.917  -6.813  -3.777  0.00  0.00     0.170 HD
ATOM     12  H   UNL d   1      25.229  -8.813  -3.150  0.00  0.00     0.170 HD
BRANCH   9  13
ATOM     13  C   UNL d   1      22.720  -6.532  -5.498  0.00  0.00     0.042 A 
ATOM     14  C   UNL d   1      22.637  -6.829  -6.880  0.00  0.00     0.030 A 
ATOM     15  C   UNL d   1      21.688  -6.199  -7.731  0.00  0.00     0.002 A 
ATOM     16  C   UNL d   1      20.803  -5.251  -7.238  0.00  0.00     0.001 A 
ATOM     17  C   UNL d   1      20.861  -4.938  -5.899  0.00  0.00     0.009 A 
ATOM     18  C   UNL d   1      21.789  -5.562  -5.037  0.00  0.00    -0.035 A 
ATOM     19  C   UNL d   1      21.662  -5.080  -3.634  0.00  0.00     0.050 C 
ENDBRANCH   9  13
ENDBRANCH   1   7
BRANCH   5  20
ATOM     20  C   UNL d   1      25.588 -13.975  -3.894  0.00  0.00     0.254 C 
ATOM     21  O   UNL d   1      24.516 -14.450  -4.247  0.00  0.00    -0.268 OA
ATOM     22  N   UNL d   1      26.356 -14.563  -2.904  0.00  0.00    -0.356 N 
ATOM     23  H   UNL d   1      27.135 -14.001  -2.587  0.00  0.00     0.162 HD
BRANCH  22  24
ATOM     24  C   UNL d   1      26.125 -15.877  -2.298  0.00  0.00     0.127 C 
BRANCH  24  25
ATOM     25  C   UNL d   1      25.400 -15.853  -0.915  0.00  0.00     0.058 C 
BRANCH  25  26
ATOM     26  C   UNL d   1      24.290 -16.872  -0.681  0.00  0.00    -0.057 A 
ATOM     27  C   UNL d   1      24.587 -18.235  -0.480  0.00  0.00     0.007 A 
ATOM     28  C   UNL d   1      23.574 -19.205  -0.518  0.00  0.00     0.001 A 
ATOM     29  C   UNL d   1      22.252 -18.828  -0.740  0.00  0.00     0.000 A 
ATOM     30  C   UNL d   1      21.937 -17.479  -0.893  0.00  0.00     0.001 A 
ATOM     31  C   UNL d   1      22.941 -16.508  -0.811  0.00  0.00     0.007 A 
ENDBRANCH  25  26
ENDBRANCH  24  25
ENDBRANCH  22  24
ENDBRANCH   5  20
BRANCH   4  32
ATOM     32  N   UNL d   1      27.811 -13.762  -6.041  0.00  0.00    -0.380 N 
ATOM     33  C   UNL d   1      28.030 -15.026  -5.339  0.00  0.00     0.123 C 
ATOM     34  C   UNL d   1      29.529 -15.374  -5.280  0.00  0.00     0.020 C 
ATOM     35  C   UNL d   1      30.192 -15.319  -6.643  0.00  0.00     0.003 C 
ATOM     36  C   UNL d   1      30.014 -13.905  -7.150  0.00  0.00     0.020 C 
ATOM     37  C   UNL d   1      28.536 -13.619  -7.279  0.00  0.00     0.123 C 
ENDBRANCH   4  32
TORSDOF 7
ENDMDL
MODEL 3
REMARK VINA RESULT:    -9.311      2.708      4.749
REMARK INTER + INTRA:         -12.617
REMARK INTER:                 -11.399
REMARK INTRA:                  -1.218
REMARK CONF_INDEPENDENT:        2.088
REMARK UNBOUND:                -1.218
REMARK  7 active torsions:
REMARK  status: ('A' for Active; 'I' for Inactive)
REMARK    1  A    between atoms: C_7  and  N_8 
REMARK       I    between atoms: N_8  and  C_9 
REMARK       I    between atoms: C_9  and  N_11 
REMARK    2  A    between atoms: N_11  and  C_12 
REMARK    3  A    between atoms: C_15  and  N_16 
REMARK    4  A    between atoms: C_22  and  C_23 
REMARK       I    between atoms: C_23  and  N_25 
REMARK    5  A    between atoms: N_25  and  C_26 
REMARK    6  A    between atoms: C_26  and  C_27 
REMARK    7  A    between atoms: C_27  and  C_28 
ROOT
ATOM      1  C   UNL d   1      29.207 -13.333   4.702  0.00  0.00     0.037 A 
ATOM      2  C   UNL d   1      28.951 -11.947   4.732  0.00  0.00     0.032 A 
ATOM      3  C   UNL d   1      28.252 -11.296   3.710  0.00  0.00     0.032 A 
ATOM      4  C   UNL d   1      27.774 -11.987   2.592  0.00  0.00     0.046 A 
ATOM      5  C   UNL d   1      27.940 -13.408   2.577  0.00  0.00     0.060 A 
ATOM      6  C   UNL d   1      28.664 -14.056   3.634  0.00  0.00     0.049 A 
ENDROOT
BRANCH   1   7
ATOM      7  N   UNL d   1      29.933 -13.974   5.803  0.00  0.00    -0.309 N 
ATOM      8  C   UNL d   1      29.328 -13.920   7.043  0.00  0.00     0.325 C 
ATOM      9  N   UNL d   1      29.938 -14.450   8.166  0.00  0.00    -0.308 N 
ATOM     10  O   UNL d   1      28.213 -13.381   7.033  0.00  0.00    -0.247 OA
ATOM     11  H   UNL d   1      30.781 -14.993   8.031  0.00  0.00     0.170 HD
ATOM     12  H   UNL d   1      30.479 -14.795   5.584  0.00  0.00     0.170 HD
BRANCH   9  13
ATOM     13  C   UNL d   1      29.458 -14.369   9.557  0.00  0.00     0.042 A 
ATOM     14  C   UNL d   1      28.464 -13.416   9.890  0.00  0.00     0.030 A 
ATOM     15  C   UNL d   1      27.937 -13.303  11.205  0.00  0.00     0.002 A 
ATOM     16  C   UNL d   1      28.387 -14.123  12.230  0.00  0.00     0.001 A 
ATOM     17  C   UNL d   1      29.355 -15.057  11.939  0.00  0.00     0.009 A 
ATOM     18  C   UNL d   1      29.881 -15.192  10.636  0.00  0.00    -0.035 A 
ATOM     19  C   UNL d   1      30.903 -16.272  10.553  0.00  0.00     0.050 C 
ENDBRANCH   9  13
ENDBRANCH   1   7
BRANCH   5  20
ATOM     20  C   UNL d   1      27.390 -14.328   1.486  0.00  0.00     0.254 C 
ATOM     21  O   UNL d   1      26.329 -14.075   0.931  0.00  0.00    -0.268 OA
ATOM     22  N   UNL d   1      28.132 -15.450   1.164  0.00  0.00    -0.356 N 
ATOM     23  H   UNL d   1      28.902 -15.640   1.792  0.00  0.00     0.162 HD
BRANCH  22  24
ATOM     24  C   UNL d   1      27.887 -16.353   0.036  0.00  0.00     0.127 C 
BRANCH  24  25
ATOM     25  C   UNL d   1      26.969 -17.577   0.351  0.00  0.00     0.058 C 
BRANCH  25  26
ATOM     26  C   UNL d   1      25.543 -17.549  -0.190  0.00  0.00    -0.057 A 
ATOM     27  C   UNL d   1      25.053 -16.424  -0.882  0.00  0.00     0.007 A 
ATOM     28  C   UNL d   1      23.683 -16.290  -1.157  0.00  0.00     0.001 A 
ATOM     29  C   UNL d   1      22.789 -17.280  -0.760  0.00  0.00     0.000 A 
ATOM     30  C   UNL d   1      23.267 -18.421  -0.116  0.00  0.00     0.001 A 
ATOM     31  C   UNL d   1      24.637 -18.576   0.118  0.00  0.00     0.007 A 
ENDBRANCH  25  26
ENDBRANCH  24  25
ENDBRANCH  22  24
ENDBRANCH   5  20
BRANCH   4  32
ATOM     32  N   UNL d   1      27.119 -11.245   1.624  0.00  0.00    -0.380 N 
ATOM     33  C   UNL d   1      27.419 -11.254   0.193  0.00  0.00     0.123 C 
ATOM     34  C   UNL d   1      27.724  -9.833  -0.317  0.00  0.00     0.020 C 
ATOM     35  C   UNL d   1      26.649  -8.835   0.067  0.00  0.00     0.003 C 
ATOM     36  C   UNL d   1      26.585  -8.834   1.578  0.00  0.00     0.020 C 
ATOM     37  C   UNL d   1      26.201 -10.218   2.048  0.00  0.00     0.123 C 
ENDBRANCH   4  32
TORSDOF 7
ENDMDL
MODEL 4
REMARK VINA RESULT:    -9.030      5.203      9.347
REMARK INTER + INTRA:         -12.235
REMARK INTER:                 -11.118
REMARK INTRA:                  -1.117
REMARK CONF_INDEPENDENT:        2.088
REMARK UNBOUND:                -1.117
REMARK  7 active torsions:
REMARK  status: ('A' for Active; 'I' for Inactive)
REMARK    1  A    between atoms: C_7  and  N_8 
REMARK       I    between atoms: N_8  and  C_9 
REMARK       I    between atoms: C_9  and  N_11 
REMARK    2  A    between atoms: N_11  and  C_12 
REMARK    3  A    between atoms: C_15  and  N_16 
REMARK    4  A    between atoms: C_22  and  C_23 
REMARK       I    between atoms: C_23  and  N_25 
REMARK    5  A    between atoms: N_25  and  C_26 
REMARK    6  A    between atoms: C_26  and  C_27 
REMARK    7  A    between atoms: C_27  and  C_28 
ROOT
ATOM      1  C   UNL d   1      25.056 -16.695  -0.743  0.00  0.00     0.037 A 
ATOM      2  C   UNL d   1      24.450 -15.814  -1.661  0.00  0.00     0.032 A 
ATOM      3  C   UNL d   1      25.178 -15.171  -2.669  0.00  0.00     0.032 A 
ATOM      4  C   UNL d   1      26.555 -15.363  -2.816  0.00  0.00     0.046 A 
ATOM      5  C   UNL d   1      27.181 -16.320  -1.955  0.00  0.00     0.060 A 
ATOM      6  C   UNL d   1      26.417 -16.965  -0.925  0.00  0.00     0.049 A 
ENDROOT
BRANCH   1   7
ATOM      7  N   UNL d   1      24.250 -17.355   0.289  0.00  0.00    -0.309 N 
ATOM      8  C   UNL d   1      23.089 -17.964  -0.144  0.00  0.00     0.325 C 
ATOM      9  N   UNL d   1      22.225 -18.579   0.744  0.00  0.00    -0.308 N 
ATOM     10  O   UNL d   1      22.924 -17.914  -1.370  0.00  0.00    -0.247 OA
ATOM     11  H   UNL d   1      22.531 -18.684   1.703  0.00  0.00     0.170 HD
ATOM     12  H   UNL d   1      24.742 -17.782   1.061  0.00  0.00     0.170 HD
BRANCH   9  13
ATOM     13  C   UNL d   1      20.910 -19.171   0.435  0.00  0.00     0.042 A 
ATOM     14  C   UNL d   1      20.424 -19.116  -0.895  0.00  0.00     0.030 A 
ATOM     15  C   UNL d   1      19.178 -19.690  -1.267  0.00  0.00     0.002 A 
ATOM     16  C   UNL d   1      18.374 -20.324  -0.329  0.00  0.00     0.001 A 
ATOM     17  C   UNL d   1      18.816 -20.390   0.972  0.00  0.00     0.009 A 
ATOM     18  C   UNL d   1      20.056 -19.836   1.356  0.00  0.00    -0.035 A 
ATOM     19  C   UNL d   1      20.334 -20.037   2.806  0.00  0.00     0.050 C 
ENDBRANCH   9  13
ENDBRANCH   1   7
BRANCH   5  20
ATOM     20  C   UNL d   1      28.652 -16.727  -2.046  0.00  0.00     0.254 C 
ATOM     21  O   UNL d   1      29.246 -17.150  -1.063  0.00  0.00    -0.268 OA
ATOM     22  N   UNL d   1      29.277 -16.592  -3.273  0.00  0.00    -0.356 N 
ATOM     23  H   UNL d   1      28.739 -16.088  -3.966  0.00  0.00     0.162 HD
BRANCH  22  24
ATOM     24  C   UNL d   1      30.610 -17.091  -3.623  0.00  0.00     0.127 C 
BRANCH  24  25
ATOM     25  C   UNL d   1      30.655 -18.568  -4.129  0.00  0.00     0.058 C 
BRANCH  25  26
ATOM     26  C   UNL d   1      30.971 -18.802  -5.603  0.00  0.00    -0.057 A 
ATOM     27  C   UNL d   1      31.595 -17.803  -6.377  0.00  0.00     0.007 A 
ATOM     28  C   UNL d   1      31.658 -17.913  -7.775  0.00  0.00     0.001 A 
ATOM     29  C   UNL d   1      31.114 -19.022  -8.416  0.00  0.00     0.000 A 
ATOM     30  C   UNL d   1      30.535 -20.039  -7.658  0.00  0.00     0.001 A 
ATOM     31  C   UNL d   1      30.512 -19.952  -6.262  0.00  0.00     0.007 A 
ENDBRANCH  25  26
ENDBRANCH  24  25
ENDBRANCH  22  24
ENDBRANCH   5  20
BRANCH   4  32
ATOM     32  N   UNL d   1      27.186 -14.659  -3.827  0.00  0.00    -0.380 N 
ATOM     33  C   UNL d   1      27.187 -15.017  -5.245  0.00  0.00     0.123 C 
ATOM     34  C   UNL d   1      28.624 -15.158  -5.779  0.00  0.00     0.020 C 
ATOM     35  C   UNL d   1      29.483 -13.950  -5.463  0.00  0.00     0.003 C 
ATOM     36  C   UNL d   1      29.508 -13.824  -3.956  0.00  0.00     0.020 C 
ATOM     37  C   UNL d   1      28.096 -13.601  -3.465  0.00  0.00     0.123 C 
ENDBRANCH   4  32
TORSDOF 7
ENDMDL
MODEL 5
REMARK VINA RESULT:    -8.859      1.023      1.808
REMARK INTER + INTRA:         -12.007
REMARK INTER:                 -10.948
REMARK INTRA:                  -1.059
REMARK CONF_INDEPENDENT:        2.088
REMARK UNBOUND:                -1.059
REMARK  7 active torsions:
REMARK  status: ('A' for Active; 'I' for Inactive)
REMARK    1  A    between atoms: C_7  and  N_8 
REMARK       I    between atoms: N_8  and  C_9 
REMARK       I    between atoms: C_9  and  N_11 
REMARK    2  A    between atoms: N_11  and  C_12 
REMARK    3  A    between atoms: C_15  and  N_16 
REMARK    4  A    between atoms: C_22  and  C_23 
REMARK       I    between atoms: C_23  and  N_25 
REMARK    5  A    between atoms: N_25  and  C_26 
REMARK    6  A    between atoms: C_26  and  C_27 
REMARK    7  A    between atoms: C_27  and  C_28 
ROOT
ATOM      1  C   UNL d   1      28.962 -14.767   0.966  0.00  0.00     0.037 A 
ATOM      2  C   UNL d   1      29.266 -13.871  -0.078  0.00  0.00     0.032 A 
ATOM      3  C   UNL d   1      28.563 -13.868  -1.287  0.00  0.00     0.032 A 
ATOM      4  C   UNL d   1      27.518 -14.765  -1.531  0.00  0.00     0.046 A 
ATOM      5  C   UNL d   1      27.128 -15.626  -0.457  0.00  0.00     0.060 A 
ATOM      6  C   UNL d   1      27.866 -15.616   0.775  0.00  0.00     0.049 A 
ENDROOT
BRANCH   1   7
ATOM      7  N   UNL d   1      29.719 -14.725   2.221  0.00  0.00    -0.309 N 
ATOM      8  C   UNL d   1      29.200 -13.922   3.218  0.00  0.00     0.325 C 
ATOM      9  N   UNL d   1      29.850 -13.767   4.429  0.00  0.00    -0.308 N 
ATOM     10  O   UNL d   1      28.121 -13.392   2.922  0.00  0.00    -0.247 OA
ATOM     11  H   UNL d   1      30.649 -14.359   4.614  0.00  0.00     0.170 HD
ATOM     12  H   UNL d   1      30.201 -15.567   2.502  0.00  0.00     0.170 HD
BRANCH   9  13
ATOM     13  C   UNL d   1      29.466 -12.866   5.532  0.00  0.00     0.042 A 
ATOM     14  C   UNL d   1      28.941 -11.586   5.226  0.00  0.00     0.030 A 
ATOM     15  C   UNL d   1      28.526 -10.680   6.239  0.00  0.00     0.002 A 
ATOM     16  C   UNL d   1      28.630 -11.012   7.583  0.00  0.00     0.001 A 
ATOM     17  C   UNL d   1      29.140 -12.247   7.912  0.00  0.00     0.009 A 
ATOM     18  C   UNL d   1      29.545 -13.164   6.919  0.00  0.00    -0.035 A 
ATOM     19  C   UNL d   1      30.050 -14.437   7.505  0.00  0.00     0.050 C 
ENDBRANCH   9  13
ENDBRANCH   1   7
BRANCH   5  20
ATOM     20  C   UNL d   1      25.944 -16.593  -0.515  0.00  0.00     0.254 C 
ATOM     21  O   UNL d   1      25.962 -17.642   0.117  0.00  0.00    -0.268 OA
ATOM     22  N   UNL d   1      24.868 -16.237  -1.309  0.00  0.00    -0.356 N 
ATOM     23  H   UNL d   1      25.031 -15.435  -1.903  0.00  0.00     0.162 HD
BRANCH  22  24
ATOM     24  C   UNL d   1      23.572 -16.918  -1.361  0.00  0.00     0.127 C 
BRANCH  24  25
ATOM     25  C   UNL d   1      23.309 -17.938  -0.208  0.00  0.00     0.058 C 
BRANCH  25  26
ATOM     26  C   UNL d   1      21.914 -18.547  -0.108  0.00  0.00    -0.057 A 
ATOM     27  C   UNL d   1      21.387 -18.950   1.135  0.00  0.00     0.007 A 
ATOM     28  C   UNL d   1      20.224 -19.733   1.203  0.00  0.00     0.001 A 
ATOM     29  C   UNL d   1      19.566 -20.112   0.036  0.00  0.00     0.000 A 
ATOM     30  C   UNL d   1      20.050 -19.681  -1.198  0.00  0.00     0.001 A 
ATOM     31  C   UNL d   1      21.183 -18.863  -1.264  0.00  0.00     0.007 A 
ENDBRANCH  25  26
ENDBRANCH  24  25
ENDBRANCH  22  24
ENDBRANCH   5  20
BRANCH   4  32
ATOM     32  N   UNL d   1      26.904 -14.698  -2.769  0.00  0.00    -0.380 N 
ATOM     33  C   UNL d   1      27.365 -15.363  -3.988  0.00  0.00     0.123 C 
ATOM     34  C   UNL d   1      27.577 -14.347  -5.126  0.00  0.00     0.020 C 
ATOM     35  C   UNL d   1      26.367 -13.459  -5.345  0.00  0.00     0.003 C 
ATOM     36  C   UNL d   1      26.132 -12.726  -4.042  0.00  0.00     0.020 C 
ATOM     37  C   UNL d   1      25.842 -13.742  -2.961  0.00  0.00     0.123 C 
ENDBRANCH   4  32
TORSDOF 7
ENDMDL
MODEL 6
REMARK VINA RESULT:    -8.693      2.024      2.966
REMARK INTER + INTRA:         -12.423
REMARK INTER:                 -10.781
REMARK INTRA:                  -1.642
REMARK CONF_INDEPENDENT:        2.088
REMARK UNBOUND:                -1.642
REMARK  7 active torsions:
REMARK  status: ('A' for Active; 'I' for Inactive)
REMARK    1  A    between atoms: C_7  and  N_8 
REMARK       I    between atoms: N_8  and  C_9 
REMARK       I    between atoms: C_9  and  N_11 
REMARK    2  A    between atoms: N_11  and  C_12 
REMARK    3  A    between atoms: C_15  and  N_16 
REMARK    4  A    between atoms: C_22  and  C_23 
REMARK       I    between atoms: C_23  and  N_25 
REMARK    5  A    between atoms: N_25  and  C_26 
REMARK    6  A    between atoms: C_26  and  C_27 
REMARK    7  A    between atoms: C_27  and  C_28 
ROOT
ATOM      1  C   UNL d   1      30.067 -13.469   2.922  0.00  0.00     0.037 A 
ATOM      2  C   UNL d   1      30.304 -12.316   2.147  0.00  0.00     0.032 A 
ATOM      3  C   UNL d   1      29.721 -12.131   0.888  0.00  0.00     0.032 A 
ATOM      4  C   UNL d   1      28.873 -13.090   0.324  0.00  0.00     0.046 A 
ATOM      5  C   UNL d   1      28.544 -14.229   1.124  0.00  0.00     0.060 A 
ATOM      6  C   UNL d   1      29.157 -14.402   2.412  0.00  0.00     0.049 A 
ENDROOT
BRANCH   1   7
ATOM      7  N   UNL d   1      30.691 -13.613   4.241  0.00  0.00    -0.309 N 
ATOM      8  C   UNL d   1      29.846 -13.506   5.328  0.00  0.00     0.325 C 
ATOM      9  N   UNL d   1      30.327 -13.579   6.623  0.00  0.00    -0.308 N 
ATOM     10  O   UNL d   1      28.655 -13.360   5.023  0.00  0.00    -0.247 OA
ATOM     11  H   UNL d   1      31.295 -13.844   6.752  0.00  0.00     0.170 HD
ATOM     12  H   UNL d   1      31.475 -14.247   4.318  0.00  0.00     0.170 HD
BRANCH   9  13
ATOM     13  C   UNL d   1      29.559 -13.377   7.865  0.00  0.00     0.042 A 
ATOM     14  C   UNL d   1      29.443 -14.447   8.786  0.00  0.00     0.030 A 
ATOM     15  C   UNL d   1      28.741 -14.312  10.015  0.00  0.00     0.002 A 
ATOM     16  C   UNL d   1      28.126 -13.116  10.360  0.00  0.00     0.001 A 
ATOM     17  C   UNL d   1      28.218 -12.059   9.485  0.00  0.00     0.009 A 
ATOM     18  C   UNL d   1      28.921 -12.172   8.266  0.00  0.00    -0.035 A 
ATOM     19  C   UNL d   1      28.900 -10.902   7.488  0.00  0.00     0.050 C 
ENDBRANCH   9  13
ENDBRANCH   1   7
BRANCH   5  20
ATOM     20  C   UNL d   1      27.556 -15.319   0.707  0.00  0.00     0.254 C 
ATOM     21  O   UNL d   1      26.380 -15.051   0.501  0.00  0.00    -0.268 OA
ATOM     22  N   UNL d   1      28.045 -16.607   0.578  0.00  0.00    -0.356 N 
ATOM     23  H   UNL d   1      28.987 -16.736   0.924  0.00  0.00     0.162 HD
BRANCH  22  24
ATOM     24  C   UNL d   1      27.324 -17.752   0.016  0.00  0.00     0.127 C 
BRANCH  24  25
ATOM     25  C   UNL d   1      26.007 -18.140   0.762  0.00  0.00     0.058 C 
BRANCH  25  26
ATOM     26  C   UNL d   1      24.689 -17.939   0.020  0.00  0.00    -0.057 A 
ATOM     27  C   UNL d   1      24.273 -16.655  -0.382  0.00  0.00     0.007 A 
ATOM     28  C   UNL d   1      22.962 -16.433  -0.832  0.00  0.00     0.001 A 
ATOM     29  C   UNL d   1      22.057 -17.488  -0.901  0.00  0.00     0.000 A 
ATOM     30  C   UNL d   1      22.470 -18.773  -0.550  0.00  0.00     0.001 A 
ATOM     31  C   UNL d   1      23.788 -19.003  -0.145  0.00  0.00     0.007 A 
ENDBRANCH  25  26
ENDBRANCH  24  25
ENDBRANCH  22  24
ENDBRANCH   5  20
BRANCH   4  32
ATOM     32  N   UNL d   1      28.370 -12.823  -0.938  0.00  0.00    -0.380 N 
ATOM     33  C   UNL d   1      27.023 -12.337  -1.235  0.00  0.00     0.123 C 
ATOM     34  C   UNL d   1      26.299 -13.280  -2.214  0.00  0.00     0.020 C 
ATOM     35  C   UNL d   1      27.121 -13.573  -3.454  0.00  0.00     0.003 C 
ATOM     36  C   UNL d   1      28.403 -14.218  -2.976  0.00  0.00     0.020 C 
ATOM     37  C   UNL d   1      29.135 -13.240  -2.087  0.00  0.00     0.123 C 
ENDBRANCH   4  32
TORSDOF 7
ENDMDL
MODEL 7
REMARK VINA RESULT:    -8.464      5.441      9.196
REMARK INTER + INTRA:         -11.973
REMARK INTER:                 -10.552
REMARK INTRA:                  -1.421
REMARK CONF_INDEPENDENT:        2.088
REMARK UNBOUND:                -1.421
REMARK  7 active torsions:
REMARK  status: ('A' for Active; 'I' for Inactive)
REMARK    1  A    between atoms: C_7  and  N_8 
REMARK       I    between atoms: N_8  and  C_9 
REMARK       I    between atoms: C_9  and  N_11 
REMARK    2  A    between atoms: N_11  and  C_12 
REMARK    3  A    between atoms: C_15  and  N_16 
REMARK    4  A    between atoms: C_22  and  C_23 
REMARK       I    between atoms: C_23  and  N_25 
REMARK    5  A    between atoms: N_25  and  C_26 
REMARK    6  A    between atoms: C_26  and  C_27 
REMARK    7  A    between atoms: C_27  and  C_28 
ROOT
ATOM      1  C   UNL d   1      26.532 -13.272  -3.228  0.00  0.00     0.037 A 
ATOM      2  C   UNL d   1      25.959 -12.058  -3.654  0.00  0.00     0.032 A 
ATOM      3  C   UNL d   1      26.252 -11.491  -4.900  0.00  0.00     0.032 A 
ATOM      4  C   UNL d   1      27.142 -12.100  -5.791  0.00  0.00     0.046 A 
ATOM      5  C   UNL d   1      27.670 -13.377  -5.423  0.00  0.00     0.060 A 
ATOM      6  C   UNL d   1      27.359 -13.939  -4.138  0.00  0.00     0.049 A 
ENDROOT
BRANCH   1   7
ATOM      7  N   UNL d   1      26.184 -13.833  -1.918  0.00  0.00    -0.309 N 
ATOM      8  C   UNL d   1      25.422 -14.985  -1.933  0.00  0.00     0.325 C 
ATOM      9  N   UNL d   1      24.995 -15.580  -0.760  0.00  0.00    -0.308 N 
ATOM     10  O   UNL d   1      25.189 -15.416  -3.070  0.00  0.00    -0.247 OA
ATOM     11  H   UNL d   1      25.365 -15.223   0.112  0.00  0.00     0.170 HD
ATOM     12  H   UNL d   1      26.859 -13.728  -1.173  0.00  0.00     0.170 HD
BRANCH   9  13
ATOM     13  C   UNL d   1      24.096 -16.742  -0.632  0.00  0.00     0.042 A 
ATOM     14  C   UNL d   1      22.713 -16.575  -0.888  0.00  0.00     0.030 A 
ATOM     15  C   UNL d   1      21.795 -17.657  -0.810  0.00  0.00     0.002 A 
ATOM     16  C   UNL d   1      22.220 -18.933  -0.466  0.00  0.00     0.001 A 
ATOM     17  C   UNL d   1      23.558 -19.127  -0.207  0.00  0.00     0.009 A 
ATOM     18  C   UNL d   1      24.485 -18.066  -0.292  0.00  0.00    -0.035 A 
ATOM     19  C   UNL d   1      25.873 -18.509   0.015  0.00  0.00     0.050 C 
ENDBRANCH   9  13
ENDBRANCH   1   7
BRANCH   5  20
ATOM     20  C   UNL d   1      28.572 -14.227  -6.319  0.00  0.00     0.254 C 
ATOM     21  O   UNL d   1      28.123 -15.192  -6.924  0.00  0.00    -0.268 OA
ATOM     22  N   UNL d   1      29.904 -13.864  -6.411  0.00  0.00    -0.356 N 
ATOM     23  H   UNL d   1      30.193 -13.154  -5.750  0.00  0.00     0.162 HD
BRANCH  22  24
ATOM     24  C   UNL d   1      30.888 -14.419  -7.344  0.00  0.00     0.127 C 
BRANCH  24  25
ATOM     25  C   UNL d   1      31.794 -15.550  -6.761  0.00  0.00     0.058 C 
BRANCH  25  26
ATOM     26  C   UNL d   1      31.160 -16.919  -6.537  0.00  0.00    -0.057 A 
ATOM     27  C   UNL d   1      30.489 -17.219  -5.334  0.00  0.00     0.007 A 
ATOM     28  C   UNL d   1      30.129 -18.539  -5.023  0.00  0.00     0.001 A 
ATOM     29  C   UNL d   1      30.418 -19.572  -5.910  0.00  0.00     0.000 A 
ATOM     30  C   UNL d   1      31.039 -19.283  -7.124  0.00  0.00     0.001 A 
ATOM     31  C   UNL d   1      31.358 -17.962  -7.455  0.00  0.00     0.007 A 
ENDBRANCH  25  26
ENDBRANCH  24  25
ENDBRANCH  22  24
ENDBRANCH   5  20
BRANCH   4  32
ATOM     32  N   UNL d   1      27.385 -11.444  -6.986  0.00  0.00    -0.380 N 
ATOM     33  C   UNL d   1      26.370 -10.864  -7.864  0.00  0.00     0.123 C 
ATOM     34  C   UNL d   1      26.474 -11.441  -9.288  0.00  0.00     0.020 C 
ATOM     35  C   UNL d   1      27.880 -11.351  -9.850  0.00  0.00     0.003 C 
ATOM     36  C   UNL d   1      28.768 -12.138  -8.912  0.00  0.00     0.020 C 
ATOM     37  C   UNL d   1      28.714 -11.500  -7.544  0.00  0.00     0.123 C 
ENDBRANCH   4  32
TORSDOF 7
ENDMDL
MODEL 8
REMARK VINA RESULT:    -8.410      1.996      2.909
REMARK INTER + INTRA:         -11.998
REMARK INTER:                 -10.498
REMARK INTRA:                  -1.500
REMARK CONF_INDEPENDENT:        2.088
REMARK UNBOUND:                -1.500
REMARK  7 active torsions:
REMARK  status: ('A' for Active; 'I' for Inactive)
REMARK    1  A    between atoms: C_7  and  N_8 
REMARK       I    between atoms: N_8  and  C_9 
REMARK       I    between atoms: C_9  and  N_11 
REMARK    2  A    between atoms: N_11  and  C_12 
REMARK    3  A    between atoms: C_15  and  N_16 
REMARK    4  A    between atoms: C_22  and  C_23 
REMARK       I    between atoms: C_23  and  N_25 
REMARK    5  A    between atoms: N_25  and  C_26 
REMARK    6  A    between atoms: C_26  and  C_27 
REMARK    7  A    between atoms: C_27  and  C_28 
ROOT
ATOM      1  C   UNL d   1      27.017 -11.642   1.488  0.00  0.00     0.037 A 
ATOM      2  C   UNL d   1      27.443 -10.767   0.468  0.00  0.00     0.032 A 
ATOM      3  C   UNL d   1      27.560 -11.177  -0.865  0.00  0.00     0.032 A 
ATOM      4  C   UNL d   1      27.267 -12.487  -1.259  0.00  0.00     0.046 A 
ATOM      5  C   UNL d   1      26.748 -13.372  -0.262  0.00  0.00     0.060 A 
ATOM      6  C   UNL d   1      26.639 -12.933   1.101  0.00  0.00     0.049 A 
ENDROOT
BRANCH   1   7
ATOM      7  N   UNL d   1      26.898 -11.164   2.869  0.00  0.00    -0.309 N 
ATOM      8  C   UNL d   1      27.694 -11.798   3.802  0.00  0.00     0.325 C 
ATOM      9  N   UNL d   1      27.636 -11.465   5.143  0.00  0.00    -0.308 N 
ATOM     10  O   UNL d   1      28.449 -12.653   3.319  0.00  0.00    -0.247 OA
ATOM     11  H   UNL d   1      27.088 -10.655   5.404  0.00  0.00     0.170 HD
ATOM     12  H   UNL d   1      26.708 -10.181   3.006  0.00  0.00     0.170 HD
BRANCH   9  13
ATOM     13  C   UNL d   1      28.346 -12.127   6.253  0.00  0.00     0.042 A 
ATOM     14  C   UNL d   1      28.846 -11.340   7.320  0.00  0.00     0.030 A 
ATOM     15  C   UNL d   1      29.515 -11.917   8.433  0.00  0.00     0.002 A 
ATOM     16  C   UNL d   1      29.718 -13.287   8.516  0.00  0.00     0.001 A 
ATOM     17  C   UNL d   1      29.247 -14.079   7.493  0.00  0.00     0.009 A 
ATOM     18  C   UNL d   1      28.569 -13.525   6.386  0.00  0.00    -0.035 A 
ATOM     19  C   UNL d   1      28.139 -14.567   5.413  0.00  0.00     0.050 C 
ENDBRANCH   9  13
ENDBRANCH   1   7
BRANCH   5  20
ATOM     20  C   UNL d   1      26.281 -14.802  -0.539  0.00  0.00     0.254 C 
ATOM     21  O   UNL d   1      25.334 -15.017  -1.284  0.00  0.00    -0.268 OA
ATOM     22  N   UNL d   1      26.965 -15.829   0.087  0.00  0.00    -0.356 N 
ATOM     23  H   UNL d   1      27.620 -15.527   0.797  0.00  0.00     0.162 HD
BRANCH  22  24
ATOM     24  C   UNL d   1      26.805 -17.261  -0.180  0.00  0.00     0.127 C 
BRANCH  24  25
ATOM     25  C   UNL d   1      25.639 -17.956   0.593  0.00  0.00     0.058 C 
BRANCH  25  26
ATOM     26  C   UNL d   1      24.277 -18.018  -0.091  0.00  0.00    -0.057 A 
ATOM     27  C   UNL d   1      23.522 -16.848  -0.310  0.00  0.00     0.007 A 
ATOM     28  C   UNL d   1      22.176 -16.925  -0.703  0.00  0.00     0.001 A 
ATOM     29  C   UNL d   1      21.573 -18.164  -0.895  0.00  0.00     0.000 A 
ATOM     30  C   UNL d   1      22.321 -19.328  -0.727  0.00  0.00     0.001 A 
ATOM     31  C   UNL d   1      23.674 -19.252  -0.381  0.00  0.00     0.007 A 
ENDBRANCH  25  26
ENDBRANCH  24  25
ENDBRANCH  22  24
ENDBRANCH   5  20
BRANCH   4  32
ATOM     32  N   UNL d   1      27.442 -12.797  -2.596  0.00  0.00    -0.380 N 
ATOM     33  C   UNL d   1      26.663 -12.254  -3.708  0.00  0.00     0.123 C 
ATOM     34  C   UNL d   1      26.022 -13.382  -4.538  0.00  0.00     0.020 C 
ATOM     35  C   UNL d   1      27.027 -14.434  -4.964  0.00  0.00     0.003 C 
ATOM     36  C   UNL d   1      27.616 -15.004  -3.693  0.00  0.00     0.020 C 
ATOM     37  C   UNL d   1      28.312 -13.894  -2.940  0.00  0.00     0.123 C 
ENDBRANCH   4  32
TORSDOF 7
ENDMDL
MODEL 9
REMARK VINA RESULT:    -8.391      4.900      6.919
REMARK INTER + INTRA:         -11.922
REMARK INTER:                 -10.479
REMARK INTRA:                  -1.443
REMARK CONF_INDEPENDENT:        2.088
REMARK UNBOUND:                -1.443
REMARK  7 active torsions:
REMARK  status: ('A' for Active; 'I' for Inactive)
REMARK    1  A    between atoms: C_7  and  N_8 
REMARK       I    between atoms: N_8  and  C_9 
REMARK       I    between atoms: C_9  and  N_11 
REMARK    2  A    between atoms: N_11  and  C_12 
REMARK    3  A    between atoms: C_15  and  N_16 
REMARK    4  A    between atoms: C_22  and  C_23 
REMARK       I    between atoms: C_23  and  N_25 
REMARK    5  A    between atoms: N_25  and  C_26 
REMARK    6  A    between atoms: C_26  and  C_27 
REMARK    7  A    between atoms: C_27  and  C_28 
ROOT
ATOM      1  C   UNL d   1      26.099 -11.821  -4.302  0.00  0.00     0.037 A 
ATOM      2  C   UNL d   1      26.976 -11.822  -5.405  0.00  0.00     0.032 A 
ATOM      3  C   UNL d   1      27.744 -12.941  -5.745  0.00  0.00     0.032 A 
ATOM      4  C   UNL d   1      27.688 -14.124  -5.000  0.00  0.00     0.046 A 
ATOM      5  C   UNL d   1      26.741 -14.182  -3.929  0.00  0.00     0.060 A 
ATOM      6  C   UNL d   1      25.966 -13.021  -3.594  0.00  0.00     0.049 A 
ENDROOT
BRANCH   1   7
ATOM      7  N   UNL d   1      25.305 -10.628  -3.991  0.00  0.00    -0.309 N 
ATOM      8  C   UNL d   1      25.856  -9.752  -3.077  0.00  0.00     0.325 C 
ATOM      9  N   UNL d   1      25.181  -8.615  -2.672  0.00  0.00    -0.308 N 
ATOM     10  O   UNL d   1      26.987 -10.077  -2.692  0.00  0.00    -0.247 OA
ATOM     11  H   UNL d   1      24.327  -8.375  -3.160  0.00  0.00     0.170 HD
ATOM     12  H   UNL d   1      24.743 -10.237  -4.734  0.00  0.00     0.170 HD
BRANCH   9  13
ATOM     13  C   UNL d   1      25.602  -7.656  -1.633  0.00  0.00     0.042 A 
ATOM     14  C   UNL d   1      25.736  -8.103  -0.296  0.00  0.00     0.030 A 
ATOM     15  C   UNL d   1      26.164  -7.239   0.749  0.00  0.00     0.002 A 
ATOM     16  C   UNL d   1      26.461  -5.907   0.499  0.00  0.00     0.001 A 
ATOM     17  C   UNL d   1      26.337  -5.442  -0.790  0.00  0.00     0.009 A 
ATOM     18  C   UNL d   1      25.925  -6.288  -1.841  0.00  0.00    -0.035 A 
ATOM     19  C   UNL d   1      25.876  -5.575  -3.148  0.00  0.00     0.050 C 
ENDBRANCH   9  13
ENDBRANCH   1   7
BRANCH   5  20
ATOM     20  C   UNL d   1      26.476 -15.426  -3.080  0.00  0.00     0.254 C 
ATOM     21  O   UNL d   1      25.529 -16.161  -3.327  0.00  0.00    -0.268 OA
ATOM     22  N   UNL d   1      27.341 -15.678  -2.030  0.00  0.00    -0.356 N 
ATOM     23  H   UNL d   1      27.985 -14.925  -1.826  0.00  0.00     0.162 HD
BRANCH  22  24
ATOM     24  C   UNL d   1      27.381 -16.896  -1.217  0.00  0.00     0.127 C 
BRANCH  24  25
ATOM     25  C   UNL d   1      26.354 -16.946  -0.042  0.00  0.00     0.058 C 
BRANCH  25  26
ATOM     26  C   UNL d   1      24.912 -17.314  -0.378  0.00  0.00    -0.057 A 
ATOM     27  C   UNL d   1      23.979 -16.325  -0.746  0.00  0.00     0.007 A 
ATOM     28  C   UNL d   1      22.608 -16.618  -0.809  0.00  0.00     0.001 A 
ATOM     29  C   UNL d   1      22.153 -17.901  -0.520  0.00  0.00     0.000 A 
ATOM     30  C   UNL d   1      23.070 -18.901  -0.200  0.00  0.00     0.001 A 
ATOM     31  C   UNL d   1      24.440 -18.621  -0.181  0.00  0.00     0.007 A 
ENDBRANCH  25  26
ENDBRANCH  24  25
ENDBRANCH  22  24
ENDBRANCH   5  20
BRANCH   4  32
ATOM     32  N   UNL d   1      28.508 -15.163  -5.404  0.00  0.00    -0.380 N 
ATOM     33  C   UNL d   1      29.134 -16.149  -4.524  0.00  0.00     0.123 C 
ATOM     34  C   UNL d   1      30.662 -16.168  -4.712  0.00  0.00     0.020 C 
ATOM     35  C   UNL d   1      31.067 -16.315  -6.166  0.00  0.00     0.003 C 
ATOM     36  C   UNL d   1      30.476 -15.131  -6.898  0.00  0.00     0.020 C 
ATOM     37  C   UNL d   1      28.971 -15.185  -6.769  0.00  0.00     0.123 C 
ENDBRANCH   4  32
TORSDOF 7
ENDMDL
