MODEL 1
REMARK VINA RESULT:    -8.727      0.000      0.000
REMARK INTER + INTRA:         -16.102
REMARK INTER:                 -12.307
REMARK INTRA:                  -3.796
REMARK CONF_INDEPENDENT:        3.580
REMARK UNBOUND:                -3.796
REMARK  12 active torsions:
REMARK  status: ('A' for Active; 'I' for Inactive)
REMARK    1  A    between atoms: C_2  and  C_3 
REMARK    2  A    between atoms: C_4  and  C_5 
REMARK    3  A    between atoms: C_5  and  O_7 
REMARK    4  A    between atoms: C_12  and  C_13 
REMARK    5  A    between atoms: C_13  and  N_14 
REMARK    6  A    between atoms: N_14  and  C_15 
REMARK    7  A    between atoms: N_14  and  C_27 
REMARK    8  A    between atoms: C_16  and  C_15 
REMARK    9  A    between atoms: C_16  and  C_18 
REMARK   10  A    between atoms: C_16  and  O_17 
REMARK   11  A    between atoms: C_18  and  O_19 
REMARK   12  A    between atoms: O_19  and  C_20 
ROOT
ATOM      1  C   UNL d   1      31.375 -18.565  -1.404  0.00  0.00     0.307 C 
ENDROOT
BRANCH   1   2
ATOM      2  C   UNL d   1      30.134 -17.636  -1.485  0.00  0.00     0.114 C 
ATOM      3  N   UNL d   1      29.825 -17.047  -2.607  0.00  0.00    -0.231 NA
ATOM      4  C   UNL d   1      28.613 -16.403  -2.581  0.00  0.00     0.115 A 
ATOM      5  S   UNL d   1      28.076 -15.263  -3.714  0.00  0.00    -0.063 SA
ATOM      6  C   UNL d   1      27.644 -16.590  -1.629  0.00  0.00     0.070 A 
ATOM      7  C   UNL d   1      26.517 -15.099  -2.952  0.00  0.00     0.089 A 
ATOM      8  C   UNL d   1      26.409 -15.914  -1.832  0.00  0.00    -0.017 A 
ATOM      9  C   UNL d   1      27.998 -17.408  -0.524  0.00  0.00     0.239 C 
ATOM     10  N   UNL d   1      29.359 -17.496  -0.350  0.00  0.00    -0.211 NA
ATOM     11  O   UNL d   1      27.189 -18.065   0.120  0.00  0.00    -0.274 OA
ATOM     12  H   UNL d   1      29.518 -18.110   0.442  0.00  0.00     0.138 HD
BRANCH   7  13
ATOM     13  C   UNL d   1      25.576 -14.145  -3.535  0.00  0.00     0.300 C 
ATOM     14  O   UNL d   1      24.699 -14.396  -4.339  0.00  0.00    -0.259 OA
BRANCH  13  15
ATOM     15  O   UNL d   1      25.828 -12.895  -3.050  0.00  0.00    -0.322 OA
ATOM     16  C   UNL d   1      25.531 -11.804  -3.919  0.00  0.00     0.213 C 
ENDBRANCH  13  15
ENDBRANCH   7  13
BRANCH   8  17
ATOM     17  C   UNL d   1      25.260 -16.060  -0.856  0.00  0.00     0.037 C 
ATOM     18  C   UNL d   1      24.358 -17.249  -1.184  0.00  0.00     0.010 C 
ENDBRANCH   8  17
ENDBRANCH   1   2
BRANCH   1  19
ATOM     19  N   UNL d   1      31.888 -19.052   0.007  0.00  0.00    -0.059 N 
ATOM     20  H   UNL d   1      31.058 -19.143   0.615  0.00  0.00     0.280 HD
BRANCH  19  21
ATOM     21  C   UNL d   1      32.613 -20.427  -0.036  0.00  0.00     0.269 C 
BRANCH  21  22
ATOM     22  C   UNL d   1      31.679 -21.466   0.446  0.00  0.00     0.168 C 
BRANCH  22  23
ATOM     23  C   UNL d   1      31.844 -21.961   1.834  0.00  0.00     0.209 C 
BRANCH  23  24
ATOM     24  O   UNL d   1      31.318 -20.956   2.684  0.00  0.00    -0.348 OA
BRANCH  24  25
ATOM     25  C   UNL d   1      31.779 -21.110   3.958  0.00  0.00     0.074 A 
ATOM     26  C   UNL d   1      30.780 -21.337   4.909  0.00  0.00     0.037 A 
ATOM     27  C   UNL d   1      31.133 -21.578   6.230  0.00  0.00     0.003 A 
ATOM     28  C   UNL d   1      32.476 -21.576   6.593  0.00  0.00     0.001 A 
ATOM     29  C   UNL d   1      33.465 -21.300   5.649  0.00  0.00     0.009 A 
ATOM     30  C   UNL d   1      33.135 -21.037   4.320  0.00  0.00    -0.029 A 
ATOM     31  C   UNL d   1      34.255 -20.679   3.380  0.00  0.00     0.051 C 
ENDBRANCH  24  25
ENDBRANCH  23  24
ENDBRANCH  22  23
BRANCH  22  32
ATOM     32  O   UNL d   1      30.376 -20.910   0.170  0.00  0.00    -0.392 OA
ATOM     33  H   UNL d   1      29.992 -20.535   0.989  0.00  0.00     0.210 HD
ENDBRANCH  22  32
ENDBRANCH  21  22
ENDBRANCH  19  21
BRANCH  19  34
ATOM     34  C   UNL d   1      32.852 -18.076   0.674  0.00  0.00     0.180 C 
ATOM     35  C   UNL d   1      32.625 -18.025   2.176  0.00  0.00     0.039 C 
ATOM     36  C   UNL d   1      34.302 -18.511   0.409  0.00  0.00     0.039 C 
ENDBRANCH  19  34
ENDBRANCH   1  19
TORSDOF 12
ENDMDL
MODEL 2
REMARK VINA RESULT:    -7.559      5.418      7.111
REMARK INTER + INTRA:         -15.913
REMARK INTER:                 -11.139
REMARK INTRA:                  -4.775
REMARK CONF_INDEPENDENT:        3.580
REMARK UNBOUND:                -4.775
REMARK  12 active torsions:
REMARK  status: ('A' for Active; 'I' for Inactive)
REMARK    1  A    between atoms: C_2  and  C_3 
REMARK    2  A    between atoms: C_4  and  C_5 
REMARK    3  A    between atoms: C_5  and  O_7 
REMARK    4  A    between atoms: C_12  and  C_13 
REMARK    5  A    between atoms: C_13  and  N_14 
REMARK    6  A    between atoms: N_14  and  C_15 
REMARK    7  A    between atoms: N_14  and  C_27 
REMARK    8  A    between atoms: C_16  and  C_15 
REMARK    9  A    between atoms: C_16  and  C_18 
REMARK   10  A    between atoms: C_16  and  O_17 
REMARK   11  A    between atoms: C_18  and  O_19 
REMARK   12  A    between atoms: O_19  and  C_20 
ROOT
ATOM      1  C   UNL d   1      30.155 -14.564   2.102  0.00  0.00     0.307 C 
ENDROOT
BRANCH   1   2
ATOM      2  C   UNL d   1      29.021 -14.746   1.057  0.00  0.00     0.114 C 
ATOM      3  N   UNL d   1      29.191 -14.346  -0.173  0.00  0.00    -0.231 NA
ATOM      4  C   UNL d   1      28.185 -14.727  -1.025  0.00  0.00     0.115 A 
ATOM      5  S   UNL d   1      27.906 -14.092  -2.571  0.00  0.00    -0.063 SA
ATOM      6  C   UNL d   1      27.247 -15.690  -0.752  0.00  0.00     0.070 A 
ATOM      7  C   UNL d   1      26.579 -15.178  -2.883  0.00  0.00     0.089 A 
ATOM      8  C   UNL d   1      26.349 -16.025  -1.804  0.00  0.00    -0.017 A 
ATOM      9  C   UNL d   1      27.253 -16.217   0.565  0.00  0.00     0.239 C 
ATOM     10  N   UNL d   1      27.862 -15.376   1.466  0.00  0.00    -0.211 NA
ATOM     11  O   UNL d   1      26.874 -17.349   0.845  0.00  0.00    -0.274 OA
ATOM     12  H   UNL d   1      27.839 -15.839   2.368  0.00  0.00     0.138 HD
BRANCH   7  13
ATOM     13  C   UNL d   1      25.884 -15.049  -4.161  0.00  0.00     0.300 C 
ATOM     14  O   UNL d   1      24.784 -14.563  -4.338  0.00  0.00    -0.259 OA
BRANCH  13  15
ATOM     15  O   UNL d   1      26.653 -15.573  -5.158  0.00  0.00    -0.322 OA
ATOM     16  C   UNL d   1      27.574 -14.682  -5.786  0.00  0.00     0.213 C 
ENDBRANCH  13  15
ENDBRANCH   7  13
BRANCH   8  17
ATOM     17  C   UNL d   1      25.284 -17.086  -1.624  0.00  0.00     0.037 C 
ATOM     18  C   UNL d   1      24.085 -16.585  -0.822  0.00  0.00     0.010 C 
ENDBRANCH   8  17
ENDBRANCH   1   2
BRANCH   1  19
ATOM     19  N   UNL d   1      29.861 -13.770   3.435  0.00  0.00    -0.059 N 
ATOM     20  H   UNL d   1      28.866 -13.495   3.408  0.00  0.00     0.280 HD
BRANCH  19  21
ATOM     21  C   UNL d   1      30.102 -14.606   4.723  0.00  0.00     0.269 C 
BRANCH  21  22
ATOM     22  C   UNL d   1      28.801 -14.837   5.384  0.00  0.00     0.168 C 
BRANCH  22  23
ATOM     23  C   UNL d   1      28.185 -13.707   6.121  0.00  0.00     0.209 C 
BRANCH  23  24
ATOM     24  O   UNL d   1      27.617 -12.851   5.145  0.00  0.00    -0.348 OA
BRANCH  24  25
ATOM     25  C   UNL d   1      27.988 -11.557   5.359  0.00  0.00     0.074 A 
ATOM     26  C   UNL d   1      28.592 -11.328   6.598  0.00  0.00     0.037 A 
ATOM     27  C   UNL d   1      29.077 -10.063   6.902  0.00  0.00     0.003 A 
ATOM     28  C   UNL d   1      28.942  -9.035   5.973  0.00  0.00     0.001 A 
ATOM     29  C   UNL d   1      28.294  -9.258   4.759  0.00  0.00     0.009 A 
ATOM     30  C   UNL d   1      27.783 -10.515   4.438  0.00  0.00    -0.029 A 
ATOM     31  C   UNL d   1      27.036 -10.654   3.139  0.00  0.00     0.051 C 
ENDBRANCH  24  25
ENDBRANCH  23  24
ENDBRANCH  22  23
BRANCH  22  32
ATOM     32  O   UNL d   1      27.972 -15.373   4.331  0.00  0.00    -0.392 OA
ATOM     33  H   UNL d   1      28.524 -15.612   3.559  0.00  0.00     0.210 HD
ENDBRANCH  22  32
ENDBRANCH  21  22
ENDBRANCH  19  21
BRANCH  19  34
ATOM     34  C   UNL d   1      30.693 -12.499   3.582  0.00  0.00     0.180 C 
ATOM     35  C   UNL d   1      32.173 -12.793   3.408  0.00  0.00     0.039 C 
ATOM     36  C   UNL d   1      30.267 -11.471   2.522  0.00  0.00     0.039 C 
ENDBRANCH  19  34
ENDBRANCH   1  19
TORSDOF 12
ENDMDL
MODEL 3
REMARK VINA RESULT:    -7.458      2.751      6.054
REMARK INTER + INTRA:         -15.797
REMARK INTER:                 -11.038
REMARK INTRA:                  -4.759
REMARK CONF_INDEPENDENT:        3.580
REMARK UNBOUND:                -4.759
REMARK  12 active torsions:
REMARK  status: ('A' for Active; 'I' for Inactive)
REMARK    1  A    between atoms: C_2  and  C_3 
REMARK    2  A    between atoms: C_4  and  C_5 
REMARK    3  A    between atoms: C_5  and  O_7 
REMARK    4  A    between atoms: C_12  and  C_13 
REMARK    5  A    between atoms: C_13  and  N_14 
REMARK    6  A    between atoms: N_14  and  C_15 
REMARK    7  A    between atoms: N_14  and  C_27 
REMARK    8  A    between atoms: C_16  and  C_15 
REMARK    9  A    between atoms: C_16  and  C_18 
REMARK   10  A    between atoms: C_16  and  O_17 
REMARK   11  A    between atoms: C_18  and  O_19 
REMARK   12  A    between atoms: O_19  and  C_20 
ROOT
ATOM      1  C   UNL d   1      31.018 -15.551   0.643  0.00  0.00     0.307 C 
ENDROOT
BRANCH   1   2
ATOM      2  C   UNL d   1      29.581 -15.499   0.056  0.00  0.00     0.114 C 
ATOM      3  N   UNL d   1      29.309 -14.712  -0.948  0.00  0.00    -0.231 NA
ATOM      4  C   UNL d   1      28.056 -14.898  -1.476  0.00  0.00     0.115 A 
ATOM      5  S   UNL d   1      27.258 -13.833  -2.525  0.00  0.00    -0.063 SA
ATOM      6  C   UNL d   1      27.255 -15.985  -1.235  0.00  0.00     0.070 A 
ATOM      7  C   UNL d   1      25.882 -14.888  -2.703  0.00  0.00     0.089 A 
ATOM      8  C   UNL d   1      26.033 -16.053  -1.959  0.00  0.00    -0.017 A 
ATOM      9  C   UNL d   1      27.719 -16.902  -0.256  0.00  0.00     0.239 C 
ATOM     10  N   UNL d   1      28.631 -16.338   0.604  0.00  0.00    -0.211 NA
ATOM     11  O   UNL d   1      27.439 -18.095  -0.258  0.00  0.00    -0.274 OA
ATOM     12  H   UNL d   1      28.920 -17.065   1.250  0.00  0.00     0.138 HD
BRANCH   7  13
ATOM     13  C   UNL d   1      24.778 -14.425  -3.542  0.00  0.00     0.300 C 
ATOM     14  O   UNL d   1      23.679 -14.075  -3.159  0.00  0.00    -0.259 OA
BRANCH  13  15
ATOM     15  O   UNL d   1      25.155 -14.451  -4.853  0.00  0.00    -0.322 OA
ATOM     16  C   UNL d   1      25.927 -15.576  -5.270  0.00  0.00     0.213 C 
ENDBRANCH  13  15
ENDBRANCH   7  13
BRANCH   8  17
ATOM     17  C   UNL d   1      25.077 -17.215  -1.788  0.00  0.00     0.037 C 
ATOM     18  C   UNL d   1      23.854 -16.852  -0.949  0.00  0.00     0.010 C 
ENDBRANCH   8  17
ENDBRANCH   1   2
BRANCH   1  19
ATOM     19  N   UNL d   1      31.762 -16.939   0.747  0.00  0.00    -0.059 N 
ATOM     20  H   UNL d   1      31.093 -17.610   1.158  0.00  0.00     0.280 HD
BRANCH  19  21
ATOM     21  C   UNL d   1      32.231 -17.498  -0.626  0.00  0.00     0.269 C 
BRANCH  21  22
ATOM     22  C   UNL d   1      31.038 -17.777  -1.452  0.00  0.00     0.168 C 
BRANCH  22  23
ATOM     23  C   UNL d   1      31.249 -18.264  -2.837  0.00  0.00     0.209 C 
BRANCH  23  24
ATOM     24  O   UNL d   1      29.988 -18.200  -3.482  0.00  0.00    -0.348 OA
BRANCH  24  25
ATOM     25  C   UNL d   1      30.043 -17.388  -4.575  0.00  0.00     0.074 A 
ATOM     26  C   UNL d   1      29.441 -16.139  -4.396  0.00  0.00     0.037 A 
ATOM     27  C   UNL d   1      29.496 -15.199  -5.416  0.00  0.00     0.003 A 
ATOM     28  C   UNL d   1      30.138 -15.518  -6.610  0.00  0.00     0.001 A 
ATOM     29  C   UNL d   1      30.693 -16.783  -6.801  0.00  0.00     0.009 A 
ATOM     30  C   UNL d   1      30.635 -17.750  -5.797  0.00  0.00    -0.029 A 
ATOM     31  C   UNL d   1      31.196 -19.112  -6.108  0.00  0.00     0.051 C 
ENDBRANCH  24  25
ENDBRANCH  23  24
ENDBRANCH  22  23
BRANCH  22  32
ATOM     32  O   UNL d   1      30.253 -18.666  -0.629  0.00  0.00    -0.392 OA
ATOM     33  H   UNL d   1      29.610 -18.152  -0.099  0.00  0.00     0.210 HD
ENDBRANCH  22  32
ENDBRANCH  21  22
ENDBRANCH  19  21
BRANCH  19  34
ATOM     34  C   UNL d   1      32.997 -16.902   1.643  0.00  0.00     0.180 C 
ATOM     35  C   UNL d   1      32.951 -15.712   2.586  0.00  0.00     0.039 C 
ATOM     36  C   UNL d   1      33.074 -18.190   2.478  0.00  0.00     0.039 C 
ENDBRANCH  19  34
ENDBRANCH   1  19
TORSDOF 12
ENDMDL
MODEL 4
REMARK VINA RESULT:    -6.842      4.670      7.011
REMARK INTER + INTRA:         -16.138
REMARK INTER:                 -10.421
REMARK INTRA:                  -5.717
REMARK CONF_INDEPENDENT:        3.580
REMARK UNBOUND:                -5.717
REMARK  12 active torsions:
REMARK  status: ('A' for Active; 'I' for Inactive)
REMARK    1  A    between atoms: C_2  and  C_3 
REMARK    2  A    between atoms: C_4  and  C_5 
REMARK    3  A    between atoms: C_5  and  O_7 
REMARK    4  A    between atoms: C_12  and  C_13 
REMARK    5  A    between atoms: C_13  and  N_14 
REMARK    6  A    between atoms: N_14  and  C_15 
REMARK    7  A    between atoms: N_14  and  C_27 
REMARK    8  A    between atoms: C_16  and  C_15 
REMARK    9  A    between atoms: C_16  and  C_18 
REMARK   10  A    between atoms: C_16  and  O_17 
REMARK   11  A    between atoms: C_18  and  O_19 
REMARK   12  A    between atoms: O_19  and  C_20 
ROOT
ATOM      1  C   UNL d   1      30.427 -14.825   1.979  0.00  0.00     0.307 C 
ENDROOT
BRANCH   1   2
ATOM      2  C   UNL d   1      29.286 -14.946   0.933  0.00  0.00     0.114 C 
ATOM      3  N   UNL d   1      29.492 -14.598  -0.308  0.00  0.00    -0.231 NA
ATOM      4  C   UNL d   1      28.461 -14.923  -1.154  0.00  0.00     0.115 A 
ATOM      5  S   UNL d   1      28.240 -14.315  -2.720  0.00  0.00    -0.063 SA
ATOM      6  C   UNL d   1      27.448 -15.799  -0.859  0.00  0.00     0.070 A 
ATOM      7  C   UNL d   1      26.832 -15.300  -3.007  0.00  0.00     0.089 A 
ATOM      8  C   UNL d   1      26.530 -16.092  -1.905  0.00  0.00    -0.017 A 
ATOM      9  C   UNL d   1      27.407 -16.285   0.474  0.00  0.00     0.239 C 
ATOM     10  N   UNL d   1      28.079 -15.469   1.353  0.00  0.00    -0.211 NA
ATOM     11  O   UNL d   1      26.938 -17.374   0.784  0.00  0.00    -0.274 OA
ATOM     12  H   UNL d   1      28.014 -15.901   2.268  0.00  0.00     0.138 HD
BRANCH   7  13
ATOM     13  C   UNL d   1      26.154 -15.153  -4.293  0.00  0.00     0.300 C 
ATOM     14  O   UNL d   1      26.541 -15.575  -5.365  0.00  0.00    -0.259 OA
BRANCH  13  15
ATOM     15  O   UNL d   1      24.997 -14.449  -4.126  0.00  0.00    -0.322 OA
ATOM     16  C   UNL d   1      25.132 -13.107  -3.662  0.00  0.00     0.213 C 
ENDBRANCH  13  15
ENDBRANCH   7  13
BRANCH   8  17
ATOM     17  C   UNL d   1      25.383 -17.059  -1.701  0.00  0.00     0.037 C 
ATOM     18  C   UNL d   1      24.138 -16.381  -1.130  0.00  0.00     0.010 C 
ENDBRANCH   8  17
ENDBRANCH   1   2
BRANCH   1  19
ATOM     19  N   UNL d   1      30.241 -13.867   3.220  0.00  0.00    -0.059 N 
ATOM     20  H   UNL d   1      29.347 -13.368   3.085  0.00  0.00     0.280 HD
BRANCH  19  21
ATOM     21  C   UNL d   1      30.180 -14.617   4.580  0.00  0.00     0.269 C 
BRANCH  21  22
ATOM     22  C   UNL d   1      28.789 -14.576   5.077  0.00  0.00     0.168 C 
BRANCH  22  23
ATOM     23  C   UNL d   1      28.044 -13.299   4.955  0.00  0.00     0.209 C 
BRANCH  23  24
ATOM     24  O   UNL d   1      27.436 -13.309   3.675  0.00  0.00    -0.348 OA
BRANCH  24  25
ATOM     25  C   UNL d   1      27.350 -12.045   3.170  0.00  0.00     0.074 A 
ATOM     26  C   UNL d   1      27.586 -11.033   4.105  0.00  0.00     0.037 A 
ATOM     27  C   UNL d   1      27.596  -9.708   3.693  0.00  0.00     0.003 A 
ATOM     28  C   UNL d   1      27.356  -9.403   2.356  0.00  0.00     0.001 A 
ATOM     29  C   UNL d   1      27.073 -10.413   1.438  0.00  0.00     0.009 A 
ATOM     30  C   UNL d   1      27.040 -11.751   1.831  0.00  0.00    -0.029 A 
ATOM     31  C   UNL d   1      26.656 -12.774   0.795  0.00  0.00     0.051 C 
ENDBRANCH  24  25
ENDBRANCH  23  24
ENDBRANCH  22  23
BRANCH  22  32
ATOM     32  O   UNL d   1      28.155 -15.692   4.416  0.00  0.00    -0.392 OA
ATOM     33  H   UNL d   1      27.898 -15.440   3.506  0.00  0.00     0.210 HD
ENDBRANCH  22  32
ENDBRANCH  21  22
ENDBRANCH  19  21
BRANCH  19  34
ATOM     34  C   UNL d   1      31.345 -12.822   3.352  0.00  0.00     0.180 C 
ATOM     35  C   UNL d   1      32.593 -13.248   2.598  0.00  0.00     0.039 C 
ATOM     36  C   UNL d   1      30.862 -11.478   2.785  0.00  0.00     0.039 C 
ENDBRANCH  19  34
ENDBRANCH   1  19
TORSDOF 12
ENDMDL
MODEL 5
REMARK VINA RESULT:    -6.575      4.882      7.363
REMARK INTER + INTRA:         -16.386
REMARK INTER:                 -10.155
REMARK INTRA:                  -6.232
REMARK CONF_INDEPENDENT:        3.580
REMARK UNBOUND:                -6.232
REMARK  12 active torsions:
REMARK  status: ('A' for Active; 'I' for Inactive)
REMARK    1  A    between atoms: C_2  and  C_3 
REMARK    2  A    between atoms: C_4  and  C_5 
REMARK    3  A    between atoms: C_5  and  O_7 
REMARK    4  A    between atoms: C_12  and  C_13 
REMARK    5  A    between atoms: C_13  and  N_14 
REMARK    6  A    between atoms: N_14  and  C_15 
REMARK    7  A    between atoms: N_14  and  C_27 
REMARK    8  A    between atoms: C_16  and  C_15 
REMARK    9  A    between atoms: C_16  and  C_18 
REMARK   10  A    between atoms: C_16  and  O_17 
REMARK   11  A    between atoms: C_18  and  O_19 
REMARK   12  A    between atoms: O_19  and  C_20 
ROOT
ATOM      1  C   UNL d   1      27.583 -14.379   2.775  0.00  0.00     0.307 C 
ENDROOT
BRANCH   1   2
ATOM      2  C   UNL d   1      27.511 -14.852   1.298  0.00  0.00     0.114 C 
ATOM      3  N   UNL d   1      26.692 -14.274   0.461  0.00  0.00    -0.231 NA
ATOM      4  C   UNL d   1      26.860 -14.670  -0.842  0.00  0.00     0.115 A 
ATOM      5  S   UNL d   1      25.762 -14.402  -2.105  0.00  0.00    -0.063 SA
ATOM      6  C   UNL d   1      27.952 -15.344  -1.325  0.00  0.00     0.070 A 
ATOM      7  C   UNL d   1      26.807 -15.124  -3.296  0.00  0.00     0.089 A 
ATOM      8  C   UNL d   1      27.995 -15.572  -2.728  0.00  0.00    -0.017 A 
ATOM      9  C   UNL d   1      28.900 -15.776  -0.361  0.00  0.00     0.239 C 
ATOM     10  N   UNL d   1      28.364 -15.864   0.902  0.00  0.00    -0.211 NA
ATOM     11  O   UNL d   1      30.092 -15.928  -0.602  0.00  0.00    -0.274 OA
ATOM     12  H   UNL d   1      29.111 -16.156   1.523  0.00  0.00     0.138 HD
BRANCH   7  13
ATOM     13  C   UNL d   1      26.317 -15.200  -4.671  0.00  0.00     0.300 C 
ATOM     14  O   UNL d   1      25.155 -15.263  -5.020  0.00  0.00    -0.259 OA
BRANCH  13  15
ATOM     15  O   UNL d   1      27.373 -15.201  -5.536  0.00  0.00    -0.322 OA
ATOM     16  C   UNL d   1      27.988 -13.940  -5.790  0.00  0.00     0.213 C 
ENDBRANCH  13  15
ENDBRANCH   7  13
BRANCH   8  17
ATOM     17  C   UNL d   1      29.160 -16.290  -3.376  0.00  0.00     0.037 C 
ATOM     18  C   UNL d   1      30.311 -15.347  -3.725  0.00  0.00     0.010 C 
ENDBRANCH   8  17
ENDBRANCH   1   2
BRANCH   1  19
ATOM     19  N   UNL d   1      28.900 -14.637   3.607  0.00  0.00    -0.059 N 
ATOM     20  H   UNL d   1      29.243 -15.575   3.345  0.00  0.00     0.280 HD
BRANCH  19  21
ATOM     21  C   UNL d   1      30.029 -13.607   3.319  0.00  0.00     0.269 C 
BRANCH  21  22
ATOM     22  C   UNL d   1      30.573 -13.871   1.971  0.00  0.00     0.168 C 
BRANCH  22  23
ATOM     23  C   UNL d   1      31.591 -12.934   1.437  0.00  0.00     0.209 C 
BRANCH  23  24
ATOM     24  O   UNL d   1      30.945 -11.682   1.286  0.00  0.00    -0.348 OA
BRANCH  24  25
ATOM     25  C   UNL d   1      30.047 -11.720   0.261  0.00  0.00     0.074 A 
ATOM     26  C   UNL d   1      30.593 -12.095  -0.970  0.00  0.00     0.037 A 
ATOM     27  C   UNL d   1      29.763 -12.238  -2.074  0.00  0.00     0.003 A 
ATOM     28  C   UNL d   1      28.400 -11.991  -1.943  0.00  0.00     0.001 A 
ATOM     29  C   UNL d   1      27.868 -11.570  -0.725  0.00  0.00     0.009 A 
ATOM     30  C   UNL d   1      28.685 -11.402   0.393  0.00  0.00    -0.029 A 
ATOM     31  C   UNL d   1      28.046 -10.876   1.651  0.00  0.00     0.051 C 
ENDBRANCH  24  25
ENDBRANCH  23  24
ENDBRANCH  22  23
BRANCH  22  32
ATOM     32  O   UNL d   1      31.016 -15.243   2.043  0.00  0.00    -0.392 OA
ATOM     33  H   UNL d   1      30.405 -15.819   1.540  0.00  0.00     0.210 HD
ENDBRANCH  22  32
ENDBRANCH  21  22
ENDBRANCH  19  21
BRANCH  19  34
ATOM     34  C   UNL d   1      28.678 -14.625   5.116  0.00  0.00     0.180 C 
ATOM     35  C   UNL d   1      29.998 -14.531   5.861  0.00  0.00     0.039 C 
ATOM     36  C   UNL d   1      27.806 -13.422   5.506  0.00  0.00     0.039 C 
ENDBRANCH  19  34
ENDBRANCH   1  19
TORSDOF 12
ENDMDL
MODEL 6
REMARK VINA RESULT:    -6.444      3.270      5.197
REMARK INTER + INTRA:         -16.593
REMARK INTER:                 -10.024
REMARK INTRA:                  -6.569
REMARK CONF_INDEPENDENT:        3.580
REMARK UNBOUND:                -6.569
REMARK  12 active torsions:
REMARK  status: ('A' for Active; 'I' for Inactive)
REMARK    1  A    between atoms: C_2  and  C_3 
REMARK    2  A    between atoms: C_4  and  C_5 
REMARK    3  A    between atoms: C_5  and  O_7 
REMARK    4  A    between atoms: C_12  and  C_13 
REMARK    5  A    between atoms: C_13  and  N_14 
REMARK    6  A    between atoms: N_14  and  C_15 
REMARK    7  A    between atoms: N_14  and  C_27 
REMARK    8  A    between atoms: C_16  and  C_15 
REMARK    9  A    between atoms: C_16  and  C_18 
REMARK   10  A    between atoms: C_16  and  O_17 
REMARK   11  A    between atoms: C_18  and  O_19 
REMARK   12  A    between atoms: O_19  and  C_20 
ROOT
ATOM      1  C   UNL d   1      28.499 -14.137   2.791  0.00  0.00     0.307 C 
ENDROOT
BRANCH   1   2
ATOM      2  C   UNL d   1      28.221 -14.652   1.353  0.00  0.00     0.114 C 
ATOM      3  N   UNL d   1      27.261 -14.128   0.641  0.00  0.00    -0.231 NA
ATOM      4  C   UNL d   1      27.244 -14.551  -0.665  0.00  0.00     0.115 A 
ATOM      5  S   UNL d   1      25.955 -14.358  -1.748  0.00  0.00    -0.063 SA
ATOM      6  C   UNL d   1      28.276 -15.195  -1.296  0.00  0.00     0.070 A 
ATOM      7  C   UNL d   1      26.835 -15.071  -3.072  0.00  0.00     0.089 A 
ATOM      8  C   UNL d   1      28.113 -15.457  -2.685  0.00  0.00    -0.017 A 
ATOM      9  C   UNL d   1      29.378 -15.565  -0.481  0.00  0.00     0.239 C 
ATOM     10  N   UNL d   1      29.046 -15.640   0.851  0.00  0.00    -0.211 NA
ATOM     11  O   UNL d   1      30.524 -15.677  -0.900  0.00  0.00    -0.274 OA
ATOM     12  H   UNL d   1      29.891 -15.887   1.354  0.00  0.00     0.138 HD
BRANCH   7  13
ATOM     13  C   UNL d   1      26.144 -15.201  -4.352  0.00  0.00     0.300 C 
ATOM     14  O   UNL d   1      26.509 -15.861  -5.305  0.00  0.00    -0.259 OA
BRANCH  13  15
ATOM     15  O   UNL d   1      25.005 -14.450  -4.339  0.00  0.00    -0.322 OA
ATOM     16  C   UNL d   1      25.155 -13.062  -4.632  0.00  0.00     0.213 C 
ENDBRANCH  13  15
ENDBRANCH   7  13
BRANCH   8  17
ATOM     17  C   UNL d   1      29.195 -16.146  -3.490  0.00  0.00     0.037 C 
ATOM     18  C   UNL d   1      29.411 -15.500  -4.857  0.00  0.00     0.010 C 
ENDBRANCH   8  17
ENDBRANCH   1   2
BRANCH   1  19
ATOM     19  N   UNL d   1      29.760 -14.675   3.576  0.00  0.00    -0.059 N 
ATOM     20  H   UNL d   1      30.072 -15.533   3.093  0.00  0.00     0.280 HD
BRANCH  19  21
ATOM     21  C   UNL d   1      30.947 -13.672   3.605  0.00  0.00     0.269 C 
BRANCH  21  22
ATOM     22  C   UNL d   1      31.901 -14.041   2.539  0.00  0.00     0.168 C 
BRANCH  22  23
ATOM     23  C   UNL d   1      32.714 -15.267   2.727  0.00  0.00     0.209 C 
BRANCH  23  24
ATOM     24  O   UNL d   1      31.905 -16.354   2.312  0.00  0.00    -0.348 OA
BRANCH  24  25
ATOM     25  C   UNL d   1      32.613 -17.211   1.522  0.00  0.00     0.074 A 
ATOM     26  C   UNL d   1      32.899 -16.717   0.247  0.00  0.00     0.037 A 
ATOM     27  C   UNL d   1      33.675 -17.471  -0.623  0.00  0.00     0.003 A 
ATOM     28  C   UNL d   1      34.146 -18.717  -0.218  0.00  0.00     0.001 A 
ATOM     29  C   UNL d   1      33.817 -19.226   1.038  0.00  0.00     0.009 A 
ATOM     30  C   UNL d   1      33.024 -18.494   1.922  0.00  0.00    -0.029 A 
ATOM     31  C   UNL d   1      32.655 -19.144   3.229  0.00  0.00     0.051 C 
ENDBRANCH  24  25
ENDBRANCH  23  24
ENDBRANCH  22  23
BRANCH  22  32
ATOM     32  O   UNL d   1      31.092 -14.049   1.343  0.00  0.00    -0.392 OA
ATOM     33  H   UNL d   1      31.083 -14.946   0.951  0.00  0.00     0.210 HD
ENDBRANCH  22  32
ENDBRANCH  21  22
ENDBRANCH  19  21
BRANCH  19  34
ATOM     34  C   UNL d   1      29.463 -15.037   5.028  0.00  0.00     0.180 C 
ATOM     35  C   UNL d   1      29.967 -13.960   5.973  0.00  0.00     0.039 C 
ATOM     36  C   UNL d   1      27.948 -15.198   5.227  0.00  0.00     0.039 C 
ENDBRANCH  19  34
ENDBRANCH   1  19
TORSDOF 12
ENDMDL
