MODEL 1
REMARK VINA RESULT:    -7.767      0.000      0.000
REMARK INTER + INTRA:         -12.303
REMARK INTER:                  -9.855
REMARK INTRA:                  -2.447
REMARK CONF_INDEPENDENT:        2.088
REMARK UNBOUND:                -2.447
REMARK  7 active torsions:
REMARK  status: ('A' for Active; 'I' for Inactive)
REMARK    1  A    between atoms: C_10  and  O_11 
REMARK    2  A    between atoms: C_10  and  C_12 
REMARK       I    between atoms: C_12  and  N_14 
REMARK    3  A    between atoms: N_14  and  C_15 
REMARK    4  A    between atoms: C_15  and  C_16 
REMARK    5  A    between atoms: C_16  and  C_17 
REMARK    6  A    between atoms: C_17  and  N_18 
REMARK    7  A    between atoms: N_24  and  C_25 
ROOT
ATOM      1  O   UNL d   1      25.991 -13.238  -2.184  0.00  0.00    -0.246 OA
ATOM      2  C   UNL d   1      25.875 -14.465  -2.063  0.00  0.00     0.330 C 
ATOM      3  N   UNL d   1      24.628 -15.062  -2.018  0.00  0.00    -0.308 N 
ATOM      4  C   UNL d   1      24.395 -16.289  -1.379  0.00  0.00     0.048 A 
ATOM      5  C   UNL d   1      23.095 -16.763  -1.174  0.00  0.00     0.030 A 
ATOM      6  C   UNL d   1      22.891 -17.913  -0.402  0.00  0.00     0.002 A 
ATOM      7  C   UNL d   1      23.972 -18.580   0.167  0.00  0.00     0.001 A 
ATOM      8  C   UNL d   1      25.261 -18.105  -0.043  0.00  0.00     0.015 A 
ATOM      9  C   UNL d   1      25.485 -16.970  -0.839  0.00  0.00     0.034 A 
ATOM     10  C   UNL d   1      26.859 -16.366  -0.991  0.00  0.00     0.256 C 
ATOM     11  N   UNL d   1      26.944 -15.349  -2.026  0.00  0.00    -0.254 N 
ATOM     12  H   UNL d   1      23.847 -14.499  -2.330  0.00  0.00     0.170 HD
ENDROOT
BRANCH  10  13
ATOM     13  O   UNL d   1      27.834 -17.382  -1.244  0.00  0.00    -0.359 OA
ATOM     14  H   UNL d   1      28.314 -17.520  -0.415  0.00  0.00     0.213 HD
ENDBRANCH  10  13
BRANCH  10  15
ATOM     15  C   UNL d   1      27.274 -15.632   0.353  0.00  0.00     0.279 C 
ATOM     16  O   UNL d   1      27.405 -16.198   1.439  0.00  0.00    -0.268 OA
ATOM     17  N   UNL d   1      27.590 -14.294   0.202  0.00  0.00    -0.356 N 
ATOM     18  H   UNL d   1      27.446 -13.850  -0.697  0.00  0.00     0.162 HD
BRANCH  17  19
ATOM     19  C   UNL d   1      27.985 -13.518   1.338  0.00  0.00     0.124 C 
BRANCH  19  20
ATOM     20  C   UNL d   1      29.384 -13.887   1.812  0.00  0.00     0.050 C 
BRANCH  20  21
ATOM     21  C   UNL d   1      29.375 -13.704   3.306  0.00  0.00     0.274 C 
BRANCH  21  22
ATOM     22  N   UNL d   1      28.761 -14.814   4.054  0.00  0.00     0.092 N 
ATOM     23  C   UNL d   1      27.529 -14.407   4.790  0.00  0.00     0.298 C 
ATOM     24  C   UNL d   1      27.767 -13.281   5.817  0.00  0.00     0.198 C 
ATOM     25  O   UNL d   1      28.823 -13.617   6.734  0.00  0.00    -0.388 OA
ATOM     26  C   UNL d   1      30.019 -13.985   6.034  0.00  0.00     0.198 C 
ATOM     27  C   UNL d   1      29.753 -15.188   5.098  0.00  0.00     0.298 C 
ENDBRANCH  21  22
ENDBRANCH  20  21
ENDBRANCH  19  20
ENDBRANCH  17  19
ENDBRANCH  10  15
BRANCH  11  28
ATOM     28  C   UNL d   1      27.798 -15.465  -3.170  0.00  0.00     0.044 A 
ATOM     29  C   UNL d   1      27.314 -15.147  -4.444  0.00  0.00     0.031 A 
ATOM     30  C   UNL d   1      28.160 -15.200  -5.565  0.00  0.00     0.028 A 
ATOM     31  C   UNL d   1      29.453 -15.717  -5.453  0.00  0.00     0.055 A 
ATOM     32 CL   UNL d   1      30.379 -15.916  -6.900  0.00  0.00    -0.083 Cl
ATOM     33  C   UNL d   1      29.936 -16.072  -4.193  0.00  0.00     0.058 A 
ATOM     34 CL   UNL d   1      31.504 -16.774  -3.976  0.00  0.00    -0.082 Cl
ATOM     35  C   UNL d   1      29.135 -15.885  -3.054  0.00  0.00     0.055 A 
ENDBRANCH  11  28
TORSDOF 7
ENDMDL
MODEL 2
REMARK VINA RESULT:    -6.778      3.858      6.166
REMARK INTER + INTRA:         -12.528
REMARK INTER:                  -8.866
REMARK INTRA:                  -3.662
REMARK CONF_INDEPENDENT:        2.088
REMARK UNBOUND:                -3.662
REMARK  7 active torsions:
REMARK  status: ('A' for Active; 'I' for Inactive)
REMARK    1  A    between atoms: C_10  and  O_11 
REMARK    2  A    between atoms: C_10  and  C_12 
REMARK       I    between atoms: C_12  and  N_14 
REMARK    3  A    between atoms: N_14  and  C_15 
REMARK    4  A    between atoms: C_15  and  C_16 
REMARK    5  A    between atoms: C_16  and  C_17 
REMARK    6  A    between atoms: C_17  and  N_18 
REMARK    7  A    between atoms: N_24  and  C_25 
ROOT
ATOM      1  O   UNL d   1      25.323 -14.919  -5.053  0.00  0.00    -0.246 OA
ATOM      2  C   UNL d   1      25.540 -14.182  -4.082  0.00  0.00     0.330 C 
ATOM      3  N   UNL d   1      25.160 -12.853  -4.097  0.00  0.00    -0.308 N 
ATOM      4  C   UNL d   1      25.801 -11.869  -3.329  0.00  0.00     0.048 A 
ATOM      5  C   UNL d   1      25.530 -10.510  -3.520  0.00  0.00     0.030 A 
ATOM      6  C   UNL d   1      26.295  -9.549  -2.846  0.00  0.00     0.002 A 
ATOM      7  C   UNL d   1      27.326  -9.940  -1.997  0.00  0.00     0.001 A 
ATOM      8  C   UNL d   1      27.589 -11.291  -1.811  0.00  0.00     0.015 A 
ATOM      9  C   UNL d   1      26.812 -12.268  -2.456  0.00  0.00     0.034 A 
ATOM     10  C   UNL d   1      27.146 -13.736  -2.362  0.00  0.00     0.256 C 
ATOM     11  N   UNL d   1      26.112 -14.609  -2.891  0.00  0.00    -0.254 N 
ATOM     12  H   UNL d   1      24.494 -12.581  -4.809  0.00  0.00     0.170 HD
ENDROOT
BRANCH  10  13
ATOM     13  O   UNL d   1      27.432 -14.107  -1.011  0.00  0.00    -0.359 OA
ATOM     14  H   UNL d   1      28.392 -14.218  -0.950  0.00  0.00     0.213 HD
ENDBRANCH  10  13
BRANCH  10  15
ATOM     15  C   UNL d   1      28.439 -14.048  -3.226  0.00  0.00     0.279 C 
ATOM     16  O   UNL d   1      29.535 -13.515  -3.049  0.00  0.00    -0.268 OA
ATOM     17  N   UNL d   1      28.281 -15.064  -4.152  0.00  0.00    -0.356 N 
ATOM     18  H   UNL d   1      27.361 -15.464  -4.294  0.00  0.00     0.162 HD
BRANCH  17  19
ATOM     19  C   UNL d   1      29.375 -15.447  -4.991  0.00  0.00     0.124 C 
BRANCH  19  20
ATOM     20  C   UNL d   1      30.276 -16.467  -4.310  0.00  0.00     0.050 C 
BRANCH  20  21
ATOM     21  C   UNL d   1      29.565 -16.865  -3.044  0.00  0.00     0.274 C 
BRANCH  21  22
ATOM     22  N   UNL d   1      30.441 -17.419  -1.999  0.00  0.00     0.092 N 
ATOM     23  C   UNL d   1      29.708 -17.754  -0.744  0.00  0.00     0.298 C 
ATOM     24  C   UNL d   1      28.994 -16.544  -0.105  0.00  0.00     0.198 C 
ATOM     25  O   UNL d   1      29.901 -15.448   0.109  0.00  0.00    -0.388 OA
ATOM     26  C   UNL d   1      30.592 -15.104  -1.099  0.00  0.00     0.198 C 
ATOM     27  C   UNL d   1      31.379 -16.321  -1.642  0.00  0.00     0.298 C 
ENDBRANCH  21  22
ENDBRANCH  20  21
ENDBRANCH  19  20
ENDBRANCH  17  19
ENDBRANCH  10  15
BRANCH  11  28
ATOM     28  C   UNL d   1      25.427 -15.584  -2.096  0.00  0.00     0.044 A 
ATOM     29  C   UNL d   1      24.031 -15.559  -1.999  0.00  0.00     0.031 A 
ATOM     30  C   UNL d   1      23.346 -16.545  -1.270  0.00  0.00     0.028 A 
ATOM     31  C   UNL d   1      24.049 -17.477  -0.504  0.00  0.00     0.055 A 
ATOM     32 CL   UNL d   1      23.145 -18.552   0.505  0.00  0.00    -0.083 Cl
ATOM     33  C   UNL d   1      25.444 -17.492  -0.564  0.00  0.00     0.058 A 
ATOM     34 CL   UNL d   1      26.391 -18.575   0.399  0.00  0.00    -0.082 Cl
ATOM     35  C   UNL d   1      26.121 -16.593  -1.404  0.00  0.00     0.055 A 
ENDBRANCH  11  28
TORSDOF 7
ENDMDL
MODEL 3
REMARK VINA RESULT:    -6.754      4.633      8.092
REMARK INTER + INTRA:         -11.926
REMARK INTER:                  -8.842
REMARK INTRA:                  -3.084
REMARK CONF_INDEPENDENT:        2.088
REMARK UNBOUND:                -3.084
REMARK  7 active torsions:
REMARK  status: ('A' for Active; 'I' for Inactive)
REMARK    1  A    between atoms: C_10  and  O_11 
REMARK    2  A    between atoms: C_10  and  C_12 
REMARK       I    between atoms: C_12  and  N_14 
REMARK    3  A    between atoms: N_14  and  C_15 
REMARK    4  A    between atoms: C_15  and  C_16 
REMARK    5  A    between atoms: C_16  and  C_17 
REMARK    6  A    between atoms: C_17  and  N_18 
REMARK    7  A    between atoms: N_24  and  C_25 
ROOT
ATOM      1  O   UNL d   1      28.993 -12.605  -3.241  0.00  0.00    -0.246 OA
ATOM      2  C   UNL d   1      27.876 -13.046  -2.941  0.00  0.00     0.330 C 
ATOM      3  N   UNL d   1      27.643 -13.614  -1.702  0.00  0.00    -0.308 N 
ATOM      4  C   UNL d   1      26.639 -14.568  -1.479  0.00  0.00     0.048 A 
ATOM      5  C   UNL d   1      26.563 -15.271  -0.272  0.00  0.00     0.030 A 
ATOM      6  C   UNL d   1      25.646 -16.321  -0.137  0.00  0.00     0.002 A 
ATOM      7  C   UNL d   1      24.818 -16.672  -1.200  0.00  0.00     0.001 A 
ATOM      8  C   UNL d   1      24.898 -15.969  -2.395  0.00  0.00     0.015 A 
ATOM      9  C   UNL d   1      25.791 -14.895  -2.536  0.00  0.00     0.034 A 
ATOM     10  C   UNL d   1      25.980 -14.187  -3.856  0.00  0.00     0.256 C 
ATOM     11  N   UNL d   1      26.759 -12.965  -3.762  0.00  0.00    -0.254 N 
ATOM     12  H   UNL d   1      28.333 -13.432  -0.985  0.00  0.00     0.170 HD
ENDROOT
BRANCH  10  13
ATOM     13  O   UNL d   1      24.717 -13.899  -4.462  0.00  0.00    -0.359 OA
ATOM     14  H   UNL d   1      24.772 -14.203  -5.379  0.00  0.00     0.213 HD
ENDBRANCH  10  13
BRANCH  10  15
ATOM     15  C   UNL d   1      26.785 -15.121  -4.854  0.00  0.00     0.279 C 
ATOM     16  O   UNL d   1      26.280 -15.710  -5.811  0.00  0.00    -0.268 OA
ATOM     17  N   UNL d   1      28.150 -15.151  -4.639  0.00  0.00    -0.356 N 
ATOM     18  H   UNL d   1      28.533 -14.678  -3.827  0.00  0.00     0.162 HD
BRANCH  17  19
ATOM     19  C   UNL d   1      28.992 -15.951  -5.475  0.00  0.00     0.124 C 
BRANCH  19  20
ATOM     20  C   UNL d   1      29.878 -15.093  -6.367  0.00  0.00     0.050 C 
BRANCH  20  21
ATOM     21  C   UNL d   1      28.940 -14.308  -7.246  0.00  0.00     0.274 C 
BRANCH  21  22
ATOM     22  N   UNL d   1      28.875 -12.869  -6.938  0.00  0.00     0.092 N 
ATOM     23  C   UNL d   1      27.979 -12.118  -7.864  0.00  0.00     0.298 C 
ATOM     24  C   UNL d   1      28.397 -12.219  -9.346  0.00  0.00     0.198 C 
ATOM     25  O   UNL d   1      29.769 -11.831  -9.535  0.00  0.00    -0.388 OA
ATOM     26  C   UNL d   1      30.640 -12.567  -8.666  0.00  0.00     0.198 C 
ATOM     27  C   UNL d   1      30.246 -12.347  -7.186  0.00  0.00     0.298 C 
ENDBRANCH  21  22
ENDBRANCH  20  21
ENDBRANCH  19  20
ENDBRANCH  17  19
ENDBRANCH  10  15
BRANCH  11  28
ATOM     28  C   UNL d   1      26.241 -11.676  -4.114  0.00  0.00     0.044 A 
ATOM     29  C   UNL d   1      25.927 -11.384  -5.446  0.00  0.00     0.031 A 
ATOM     30  C   UNL d   1      25.363 -10.145  -5.793  0.00  0.00     0.028 A 
ATOM     31  C   UNL d   1      25.247  -9.128  -4.843  0.00  0.00     0.055 A 
ATOM     32 CL   UNL d   1      24.707  -7.574  -5.375  0.00  0.00    -0.083 Cl
ATOM     33  C   UNL d   1      25.589  -9.395  -3.517  0.00  0.00     0.058 A 
ATOM     34 CL   UNL d   1      25.530  -8.173  -2.291  0.00  0.00    -0.082 Cl
ATOM     35  C   UNL d   1      26.021 -10.679  -3.147  0.00  0.00     0.055 A 
ENDBRANCH  11  28
TORSDOF 7
ENDMDL
MODEL 4
REMARK VINA RESULT:    -6.645      4.192      5.975
REMARK INTER + INTRA:         -12.295
REMARK INTER:                  -8.733
REMARK INTRA:                  -3.561
REMARK CONF_INDEPENDENT:        2.088
REMARK UNBOUND:                -3.561
REMARK  7 active torsions:
REMARK  status: ('A' for Active; 'I' for Inactive)
REMARK    1  A    between atoms: C_10  and  O_11 
REMARK    2  A    between atoms: C_10  and  C_12 
REMARK       I    between atoms: C_12  and  N_14 
REMARK    3  A    between atoms: N_14  and  C_15 
REMARK    4  A    between atoms: C_15  and  C_16 
REMARK    5  A    between atoms: C_16  and  C_17 
REMARK    6  A    between atoms: C_17  and  N_18 
REMARK    7  A    between atoms: N_24  and  C_25 
ROOT
ATOM      1  O   UNL d   1      28.976 -12.745  -3.068  0.00  0.00    -0.246 OA
ATOM      2  C   UNL d   1      27.839 -13.165  -2.813  0.00  0.00     0.330 C 
ATOM      3  N   UNL d   1      27.551 -13.746  -1.593  0.00  0.00    -0.308 N 
ATOM      4  C   UNL d   1      26.519 -14.681  -1.420  0.00  0.00     0.048 A 
ATOM      5  C   UNL d   1      26.386 -15.400  -0.228  0.00  0.00     0.030 A 
ATOM      6  C   UNL d   1      25.441 -16.431  -0.142  0.00  0.00     0.002 A 
ATOM      7  C   UNL d   1      24.643 -16.747  -1.238  0.00  0.00     0.001 A 
ATOM      8  C   UNL d   1      24.780 -16.027  -2.419  0.00  0.00     0.015 A 
ATOM      9  C   UNL d   1      25.701 -14.971  -2.511  0.00  0.00     0.034 A 
ATOM     10  C   UNL d   1      25.951 -14.248  -3.811  0.00  0.00     0.256 C 
ATOM     11  N   UNL d   1      26.754 -13.045  -3.671  0.00  0.00    -0.254 N 
ATOM     12  H   UNL d   1      28.220 -13.591  -0.849  0.00  0.00     0.170 HD
ENDROOT
BRANCH  10  13
ATOM     13  O   UNL d   1      24.717 -13.921  -4.456  0.00  0.00    -0.359 OA
ATOM     14  H   UNL d   1      24.787 -14.235  -5.368  0.00  0.00     0.213 HD
ENDBRANCH  10  13
BRANCH  10  15
ATOM     15  C   UNL d   1      26.770 -15.184  -4.797  0.00  0.00     0.279 C 
ATOM     16  O   UNL d   1      26.282 -15.759  -5.771  0.00  0.00    -0.268 OA
ATOM     17  N   UNL d   1      28.129 -15.233  -4.547  0.00  0.00    -0.356 N 
ATOM     18  H   UNL d   1      28.497 -14.772  -3.722  0.00  0.00     0.162 HD
BRANCH  17  19
ATOM     19  C   UNL d   1      28.981 -16.037  -5.368  0.00  0.00     0.124 C 
BRANCH  19  20
ATOM     20  C   UNL d   1      30.180 -16.563  -4.590  0.00  0.00     0.050 C 
BRANCH  20  21
ATOM     21  C   UNL d   1      29.655 -16.939  -3.230  0.00  0.00     0.274 C 
BRANCH  21  22
ATOM     22  N   UNL d   1      30.695 -17.143  -2.208  0.00  0.00     0.092 N 
ATOM     23  C   UNL d   1      30.133 -17.404  -0.852  0.00  0.00     0.298 C 
ATOM     24  C   UNL d   1      29.236 -16.264  -0.326  0.00  0.00     0.198 C 
ATOM     25  O   UNL d   1      29.916 -14.996  -0.363  0.00  0.00    -0.388 OA
ATOM     26  C   UNL d   1      30.437 -14.727  -1.671  0.00  0.00     0.198 C 
ATOM     27  C   UNL d   1      31.414 -15.844  -2.108  0.00  0.00     0.298 C 
ENDBRANCH  21  22
ENDBRANCH  20  21
ENDBRANCH  19  20
ENDBRANCH  17  19
ENDBRANCH  10  15
BRANCH  11  28
ATOM     28  C   UNL d   1      26.277 -11.740  -4.019  0.00  0.00     0.044 A 
ATOM     29  C   UNL d   1      26.038 -11.412  -5.359  0.00  0.00     0.031 A 
ATOM     30  C   UNL d   1      25.514 -10.156  -5.706  0.00  0.00     0.028 A 
ATOM     31  C   UNL d   1      25.366  -9.158  -4.740  0.00  0.00     0.055 A 
ATOM     32 CL   UNL d   1      24.881  -7.583  -5.262  0.00  0.00    -0.083 Cl
ATOM     33  C   UNL d   1      25.634  -9.461  -3.404  0.00  0.00     0.058 A 
ATOM     34 CL   UNL d   1      25.531  -8.266  -2.155  0.00  0.00    -0.082 Cl
ATOM     35  C   UNL d   1      26.024 -10.761  -3.042  0.00  0.00     0.055 A 
ENDBRANCH  11  28
TORSDOF 7
ENDMDL
MODEL 5
REMARK VINA RESULT:    -6.557      4.371      7.698
REMARK INTER + INTRA:         -12.122
REMARK INTER:                  -8.645
REMARK INTRA:                  -3.476
REMARK CONF_INDEPENDENT:        2.088
REMARK UNBOUND:                -3.476
REMARK  7 active torsions:
REMARK  status: ('A' for Active; 'I' for Inactive)
REMARK    1  A    between atoms: C_10  and  O_11 
REMARK    2  A    between atoms: C_10  and  C_12 
REMARK       I    between atoms: C_12  and  N_14 
REMARK    3  A    between atoms: N_14  and  C_15 
REMARK    4  A    between atoms: C_15  and  C_16 
REMARK    5  A    between atoms: C_16  and  C_17 
REMARK    6  A    between atoms: C_17  and  N_18 
REMARK    7  A    between atoms: N_24  and  C_25 
ROOT
ATOM      1  O   UNL d   1      25.496 -14.943  -5.021  0.00  0.00    -0.246 OA
ATOM      2  C   UNL d   1      25.651 -14.188  -4.052  0.00  0.00     0.330 C 
ATOM      3  N   UNL d   1      25.242 -12.869  -4.103  0.00  0.00    -0.308 N 
ATOM      4  C   UNL d   1      25.825 -11.860  -3.321  0.00  0.00     0.048 A 
ATOM      5  C   UNL d   1      25.533 -10.511  -3.543  0.00  0.00     0.030 A 
ATOM      6  C   UNL d   1      26.244  -9.524  -2.848  0.00  0.00     0.002 A 
ATOM      7  C   UNL d   1      27.243  -9.880  -1.947  0.00  0.00     0.001 A 
ATOM      8  C   UNL d   1      27.527 -11.222  -1.730  0.00  0.00     0.015 A 
ATOM      9  C   UNL d   1      26.803 -12.224  -2.396  0.00  0.00     0.034 A 
ATOM     10  C   UNL d   1      27.165 -13.683  -2.266  0.00  0.00     0.256 C 
ATOM     11  N   UNL d   1      26.176 -14.587  -2.830  0.00  0.00    -0.254 N 
ATOM     12  H   UNL d   1      24.604 -12.622  -4.849  0.00  0.00     0.170 HD
ENDROOT
BRANCH  10  13
ATOM     13  O   UNL d   1      27.396 -14.029  -0.898  0.00  0.00    -0.359 OA
ATOM     14  H   UNL d   1      28.263 -13.669  -0.662  0.00  0.00     0.213 HD
ENDBRANCH  10  13
BRANCH  10  15
ATOM     15  C   UNL d   1      28.504 -13.977  -3.065  0.00  0.00     0.279 C 
ATOM     16  O   UNL d   1      29.586 -13.442  -2.822  0.00  0.00    -0.268 OA
ATOM     17  N   UNL d   1      28.400 -14.979  -4.013  0.00  0.00    -0.356 N 
ATOM     18  H   UNL d   1      27.490 -15.380  -4.209  0.00  0.00     0.162 HD
BRANCH  17  19
ATOM     19  C   UNL d   1      29.538 -15.344  -4.798  0.00  0.00     0.124 C 
BRANCH  19  20
ATOM     20  C   UNL d   1      29.196 -15.430  -6.279  0.00  0.00     0.050 C 
BRANCH  20  21
ATOM     21  C   UNL d   1      28.270 -14.276  -6.556  0.00  0.00     0.274 C 
BRANCH  21  22
ATOM     22  N   UNL d   1      28.835 -13.237  -7.433  0.00  0.00     0.092 N 
ATOM     23  C   UNL d   1      30.037 -12.574  -6.850  0.00  0.00     0.298 C 
ATOM     24  C   UNL d   1      29.766 -11.887  -5.495  0.00  0.00     0.198 C 
ATOM     25  O   UNL d   1      28.665 -10.965  -5.580  0.00  0.00    -0.388 OA
ATOM     26  C   UNL d   1      27.498 -11.602  -6.117  0.00  0.00     0.198 C 
ATOM     27  C   UNL d   1      27.791 -12.180  -7.522  0.00  0.00     0.298 C 
ENDBRANCH  21  22
ENDBRANCH  20  21
ENDBRANCH  19  20
ENDBRANCH  17  19
ENDBRANCH  10  15
BRANCH  11  28
ATOM     28  C   UNL d   1      25.477 -15.567  -2.053  0.00  0.00     0.044 A 
ATOM     29  C   UNL d   1      24.079 -15.541  -1.980  0.00  0.00     0.031 A 
ATOM     30  C   UNL d   1      23.381 -16.531  -1.270  0.00  0.00     0.028 A 
ATOM     31  C   UNL d   1      24.071 -17.469  -0.498  0.00  0.00     0.055 A 
ATOM     32 CL   UNL d   1      23.149 -18.550   0.487  0.00  0.00    -0.083 Cl
ATOM     33  C   UNL d   1      25.466 -17.485  -0.534  0.00  0.00     0.058 A 
ATOM     34 CL   UNL d   1      26.396 -18.575   0.437  0.00  0.00    -0.082 Cl
ATOM     35  C   UNL d   1      26.158 -16.580  -1.357  0.00  0.00     0.055 A 
ENDBRANCH  11  28
TORSDOF 7
ENDMDL
MODEL 6
REMARK VINA RESULT:    -6.545      2.751      4.913
REMARK INTER + INTRA:         -12.198
REMARK INTER:                  -8.633
REMARK INTRA:                  -3.565
REMARK CONF_INDEPENDENT:        2.088
REMARK UNBOUND:                -3.565
REMARK  7 active torsions:
REMARK  status: ('A' for Active; 'I' for Inactive)
REMARK    1  A    between atoms: C_10  and  O_11 
REMARK    2  A    between atoms: C_10  and  C_12 
REMARK       I    between atoms: C_12  and  N_14 
REMARK    3  A    between atoms: N_14  and  C_15 
REMARK    4  A    between atoms: C_15  and  C_16 
REMARK    5  A    between atoms: C_16  and  C_17 
REMARK    6  A    between atoms: C_17  and  N_18 
REMARK    7  A    between atoms: N_24  and  C_25 
ROOT
ATOM      1  O   UNL d   1      29.732 -15.405  -2.011  0.00  0.00    -0.246 OA
ATOM      2  C   UNL d   1      29.147 -14.776  -2.901  0.00  0.00     0.330 C 
ATOM      3  N   UNL d   1      29.139 -13.393  -2.909  0.00  0.00    -0.308 N 
ATOM      4  C   UNL d   1      28.121 -12.641  -3.515  0.00  0.00     0.048 A 
ATOM      5  C   UNL d   1      28.034 -11.258  -3.330  0.00  0.00     0.030 A 
ATOM      6  C   UNL d   1      26.923 -10.561  -3.822  0.00  0.00     0.002 A 
ATOM      7  C   UNL d   1      25.905 -11.239  -4.486  0.00  0.00     0.001 A 
ATOM      8  C   UNL d   1      25.999 -12.613  -4.668  0.00  0.00     0.015 A 
ATOM      9  C   UNL d   1      27.120 -13.322  -4.207  0.00  0.00     0.034 A 
ATOM     10  C   UNL d   1      27.196 -14.826  -4.290  0.00  0.00     0.256 C 
ATOM     11  N   UNL d   1      28.510 -15.366  -3.984  0.00  0.00    -0.254 N 
ATOM     12  H   UNL d   1      29.820 -12.934  -2.318  0.00  0.00     0.170 HD
ENDROOT
BRANCH  10  13
ATOM     13  O   UNL d   1      26.784 -15.285  -5.580  0.00  0.00    -0.359 OA
ATOM     14  H   UNL d   1      25.874 -15.600  -5.486  0.00  0.00     0.213 HD
ENDBRANCH  10  13
BRANCH  10  15
ATOM     15  C   UNL d   1      26.219 -15.473  -3.220  0.00  0.00     0.279 C 
ATOM     16  O   UNL d   1      24.997 -15.324  -3.220  0.00  0.00    -0.268 OA
ATOM     17  N   UNL d   1      26.834 -16.324  -2.321  0.00  0.00    -0.356 N 
ATOM     18  H   UNL d   1      27.845 -16.405  -2.328  0.00  0.00     0.162 HD
BRANCH  17  19
ATOM     19  C   UNL d   1      26.063 -16.977  -1.307  0.00  0.00     0.124 C 
BRANCH  19  20
ATOM     20  C   UNL d   1      26.933 -17.435  -0.145  0.00  0.00     0.050 C 
BRANCH  20  21
ATOM     21  C   UNL d   1      27.921 -16.324   0.092  0.00  0.00     0.274 C 
BRANCH  21  22
ATOM     22  N   UNL d   1      27.520 -15.361   1.131  0.00  0.00     0.092 N 
ATOM     23  C   UNL d   1      26.654 -14.266   0.605  0.00  0.00     0.298 C 
ATOM     24  C   UNL d   1      27.319 -13.436  -0.512  0.00  0.00     0.198 C 
ATOM     25  O   UNL d   1      28.598 -12.922  -0.098  0.00  0.00    -0.388 OA
ATOM     26  C   UNL d   1      29.446 -13.973   0.386  0.00  0.00     0.198 C 
ATOM     27  C   UNL d   1      28.780 -14.705   1.575  0.00  0.00     0.298 C 
ENDBRANCH  21  22
ENDBRANCH  20  21
ENDBRANCH  19  20
ENDBRANCH  17  19
ENDBRANCH  10  15
BRANCH  11  28
ATOM     28  C   UNL d   1      29.283 -16.124  -4.923  0.00  0.00     0.044 A 
ATOM     29  C   UNL d   1      29.633 -15.569  -6.159  0.00  0.00     0.031 A 
ATOM     30  C   UNL d   1      30.440 -16.281  -7.061  0.00  0.00     0.028 A 
ATOM     31  C   UNL d   1      30.781 -17.612  -6.810  0.00  0.00     0.055 A 
ATOM     32 CL   UNL d   1      31.629 -18.483  -8.039  0.00  0.00    -0.083 Cl
ATOM     33  C   UNL d   1      30.409 -18.190  -5.595  0.00  0.00     0.058 A 
ATOM     34 CL   UNL d   1      30.742 -19.850  -5.230  0.00  0.00    -0.082 Cl
ATOM     35  C   UNL d   1      29.722 -17.429  -4.635  0.00  0.00     0.055 A 
ENDBRANCH  11  28
TORSDOF 7
ENDMDL
MODEL 7
REMARK VINA RESULT:    -6.525      3.392      6.503
REMARK INTER + INTRA:         -12.330
REMARK INTER:                  -8.613
REMARK INTRA:                  -3.717
REMARK CONF_INDEPENDENT:        2.088
REMARK UNBOUND:                -3.717
REMARK  7 active torsions:
REMARK  status: ('A' for Active; 'I' for Inactive)
REMARK    1  A    between atoms: C_10  and  O_11 
REMARK    2  A    between atoms: C_10  and  C_12 
REMARK       I    between atoms: C_12  and  N_14 
REMARK    3  A    between atoms: N_14  and  C_15 
REMARK    4  A    between atoms: C_15  and  C_16 
REMARK    5  A    between atoms: C_16  and  C_17 
REMARK    6  A    between atoms: C_17  and  N_18 
REMARK    7  A    between atoms: N_24  and  C_25 
ROOT
ATOM      1  O   UNL d   1      28.948 -17.807  -0.896  0.00  0.00    -0.246 OA
ATOM      2  C   UNL d   1      27.838 -17.369  -0.567  0.00  0.00     0.330 C 
ATOM      3  N   UNL d   1      26.818 -18.223  -0.192  0.00  0.00    -0.308 N 
ATOM      4  C   UNL d   1      25.461 -17.892  -0.322  0.00  0.00     0.048 A 
ATOM      5  C   UNL d   1      24.459 -18.849  -0.128  0.00  0.00     0.030 A 
ATOM      6  C   UNL d   1      23.127 -18.525  -0.413  0.00  0.00     0.002 A 
ATOM      7  C   UNL d   1      22.797 -17.261  -0.895  0.00  0.00     0.001 A 
ATOM      8  C   UNL d   1      23.797 -16.315  -1.084  0.00  0.00     0.015 A 
ATOM      9  C   UNL d   1      25.134 -16.614  -0.775  0.00  0.00     0.034 A 
ATOM     10  C   UNL d   1      26.253 -15.648  -1.075  0.00  0.00     0.256 C 
ATOM     11  N   UNL d   1      27.526 -16.019  -0.482  0.00  0.00    -0.254 N 
ATOM     12  H   UNL d   1      27.085 -19.173   0.037  0.00  0.00     0.170 HD
ENDROOT
BRANCH  10  13
ATOM     13  O   UNL d   1      25.905 -14.324  -0.660  0.00  0.00    -0.359 OA
ATOM     14  H   UNL d   1      25.555 -13.871  -1.440  0.00  0.00     0.213 HD
ENDBRANCH  10  13
BRANCH  10  15
ATOM     15  C   UNL d   1      26.517 -15.603  -2.639  0.00  0.00     0.279 C 
ATOM     16  O   UNL d   1      25.662 -15.315  -3.477  0.00  0.00    -0.268 OA
ATOM     17  N   UNL d   1      27.834 -15.813  -3.005  0.00  0.00    -0.356 N 
ATOM     18  H   UNL d   1      28.508 -16.075  -2.296  0.00  0.00     0.162 HD
BRANCH  17  19
ATOM     19  C   UNL d   1      28.206 -15.793  -4.387  0.00  0.00     0.124 C 
BRANCH  19  20
ATOM     20  C   UNL d   1      28.657 -14.407  -4.827  0.00  0.00     0.050 C 
BRANCH  20  21
ATOM     21  C   UNL d   1      27.425 -13.720  -5.353  0.00  0.00     0.274 C 
BRANCH  21  22
ATOM     22  N   UNL d   1      27.419 -12.258  -5.178  0.00  0.00     0.092 N 
ATOM     23  C   UNL d   1      28.025 -11.826  -3.887  0.00  0.00     0.298 C 
ATOM     24  C   UNL d   1      27.315 -12.407  -2.646  0.00  0.00     0.198 C 
ATOM     25  O   UNL d   1      25.904 -12.130  -2.666  0.00  0.00    -0.388 OA
ATOM     26  C   UNL d   1      25.309 -12.566  -3.896  0.00  0.00     0.198 C 
ATOM     27  C   UNL d   1      25.983 -11.873  -5.103  0.00  0.00     0.298 C 
ENDBRANCH  21  22
ENDBRANCH  20  21
ENDBRANCH  19  20
ENDBRANCH  17  19
ENDBRANCH  10  15
BRANCH  11  28
ATOM     28  C   UNL d   1      28.215 -15.199   0.470  0.00  0.00     0.044 A 
ATOM     29  C   UNL d   1      29.347 -14.472   0.083  0.00  0.00     0.031 A 
ATOM     30  C   UNL d   1      29.995 -13.619   0.992  0.00  0.00     0.028 A 
ATOM     31  C   UNL d   1      29.618 -13.598   2.337  0.00  0.00     0.055 A 
ATOM     32 CL   UNL d   1      30.567 -12.659   3.435  0.00  0.00    -0.083 Cl
ATOM     33  C   UNL d   1      28.512 -14.346   2.744  0.00  0.00     0.058 A 
ATOM     34 CL   UNL d   1      28.015 -14.421   4.401  0.00  0.00    -0.082 Cl
ATOM     35  C   UNL d   1      27.780 -15.089   1.802  0.00  0.00     0.055 A 
ENDBRANCH  11  28
TORSDOF 7
ENDMDL
MODEL 8
REMARK VINA RESULT:    -6.312      3.205      5.375
REMARK INTER + INTRA:         -11.925
REMARK INTER:                  -8.400
REMARK INTRA:                  -3.525
REMARK CONF_INDEPENDENT:        2.088
REMARK UNBOUND:                -3.525
REMARK  7 active torsions:
REMARK  status: ('A' for Active; 'I' for Inactive)
REMARK    1  A    between atoms: C_10  and  O_11 
REMARK    2  A    between atoms: C_10  and  C_12 
REMARK       I    between atoms: C_12  and  N_14 
REMARK    3  A    between atoms: N_14  and  C_15 
REMARK    4  A    between atoms: C_15  and  C_16 
REMARK    5  A    between atoms: C_16  and  C_17 
REMARK    6  A    between atoms: C_17  and  N_18 
REMARK    7  A    between atoms: N_24  and  C_25 
ROOT
ATOM      1  O   UNL d   1      27.795 -15.705  -4.562  0.00  0.00    -0.246 OA
ATOM      2  C   UNL d   1      27.117 -14.747  -4.168  0.00  0.00     0.330 C 
ATOM      3  N   UNL d   1      26.566 -13.848  -5.061  0.00  0.00    -0.308 N 
ATOM      4  C   UNL d   1      26.267 -12.521  -4.719  0.00  0.00     0.048 A 
ATOM      5  C   UNL d   1      25.904 -11.585  -5.693  0.00  0.00     0.030 A 
ATOM      6  C   UNL d   1      25.760 -10.238  -5.340  0.00  0.00     0.002 A 
ATOM      7  C   UNL d   1      25.983  -9.825  -4.030  0.00  0.00     0.001 A 
ATOM      8  C   UNL d   1      26.342 -10.760  -3.067  0.00  0.00     0.015 A 
ATOM      9  C   UNL d   1      26.461 -12.120  -3.398  0.00  0.00     0.034 A 
ATOM     10  C   UNL d   1      26.957 -13.138  -2.401  0.00  0.00     0.256 C 
ATOM     11  N   UNL d   1      26.796 -14.515  -2.837  0.00  0.00    -0.254 N 
ATOM     12  H   UNL d   1      26.529 -14.139  -6.030  0.00  0.00     0.170 HD
ENDROOT
BRANCH  10  13
ATOM     13  O   UNL d   1      26.315 -12.964  -1.135  0.00  0.00    -0.359 OA
ATOM     14  H   UNL d   1      26.989 -12.633  -0.524  0.00  0.00     0.213 HD
ENDBRANCH  10  13
BRANCH  10  15
ATOM     15  C   UNL d   1      28.516 -12.951  -2.174  0.00  0.00     0.279 C 
ATOM     16  O   UNL d   1      29.334 -12.798  -3.083  0.00  0.00    -0.268 OA
ATOM     17  N   UNL d   1      28.898 -12.864  -0.848  0.00  0.00    -0.356 N 
ATOM     18  H   UNL d   1      28.207 -13.021  -0.124  0.00  0.00     0.162 HD
BRANCH  17  19
ATOM     19  C   UNL d   1      30.277 -12.688  -0.508  0.00  0.00     0.124 C 
BRANCH  19  20
ATOM     20  C   UNL d   1      30.585 -13.218   0.886  0.00  0.00     0.050 C 
BRANCH  20  21
ATOM     21  C   UNL d   1      29.824 -12.335   1.839  0.00  0.00     0.274 C 
BRANCH  21  22
ATOM     22  N   UNL d   1      29.093 -13.059   2.892  0.00  0.00     0.092 N 
ATOM     23  C   UNL d   1      28.728 -14.449   2.494  0.00  0.00     0.298 C 
ATOM     24  C   UNL d   1      27.839 -14.516   1.235  0.00  0.00     0.198 C 
ATOM     25  O   UNL d   1      26.664 -13.698   1.372  0.00  0.00    -0.388 OA
ATOM     26  C   UNL d   1      27.009 -12.353   1.731  0.00  0.00     0.198 C 
ATOM     27  C   UNL d   1      27.806 -12.331   3.056  0.00  0.00     0.298 C 
ENDBRANCH  21  22
ENDBRANCH  20  21
ENDBRANCH  19  20
ENDBRANCH  17  19
ENDBRANCH  10  15
BRANCH  11  28
ATOM     28  C   UNL d   1      25.995 -15.471  -2.133  0.00  0.00     0.044 A 
ATOM     29  C   UNL d   1      24.603 -15.467  -2.279  0.00  0.00     0.031 A 
ATOM     30  C   UNL d   1      23.813 -16.436  -1.639  0.00  0.00     0.028 A 
ATOM     31  C   UNL d   1      24.384 -17.327  -0.727  0.00  0.00     0.055 A 
ATOM     32 CL   UNL d   1      23.331 -18.378   0.154  0.00  0.00    -0.083 Cl
ATOM     33  C   UNL d   1      25.768 -17.319  -0.545  0.00  0.00     0.058 A 
ATOM     34 CL   UNL d   1      26.546 -18.349   0.609  0.00  0.00    -0.082 Cl
ATOM     35  C   UNL d   1      26.570 -16.441  -1.292  0.00  0.00     0.055 A 
ENDBRANCH  11  28
TORSDOF 7
ENDMDL
MODEL 9
REMARK VINA RESULT:    -6.223      4.171      7.190
REMARK INTER + INTRA:         -11.843
REMARK INTER:                  -8.311
REMARK INTRA:                  -3.532
REMARK CONF_INDEPENDENT:        2.088
REMARK UNBOUND:                -3.532
REMARK  7 active torsions:
REMARK  status: ('A' for Active; 'I' for Inactive)
REMARK    1  A    between atoms: C_10  and  O_11 
REMARK    2  A    between atoms: C_10  and  C_12 
REMARK       I    between atoms: C_12  and  N_14 
REMARK    3  A    between atoms: N_14  and  C_15 
REMARK    4  A    between atoms: C_15  and  C_16 
REMARK    5  A    between atoms: C_16  and  C_17 
REMARK    6  A    between atoms: C_17  and  N_18 
REMARK    7  A    between atoms: N_24  and  C_25 
ROOT
ATOM      1  O   UNL d   1      24.850 -14.825  -4.072  0.00  0.00    -0.246 OA
ATOM      2  C   UNL d   1      25.673 -13.903  -4.141  0.00  0.00     0.330 C 
ATOM      3  N   UNL d   1      25.341 -12.693  -4.722  0.00  0.00    -0.308 N 
ATOM      4  C   UNL d   1      26.293 -11.841  -5.302  0.00  0.00     0.048 A 
ATOM      5  C   UNL d   1      25.906 -10.730  -6.058  0.00  0.00     0.030 A 
ATOM      6  C   UNL d   1      26.874  -9.989  -6.747  0.00  0.00     0.002 A 
ATOM      7  C   UNL d   1      28.215 -10.357  -6.689  0.00  0.00     0.001 A 
ATOM      8  C   UNL d   1      28.593 -11.460  -5.934  0.00  0.00     0.015 A 
ATOM      9  C   UNL d   1      27.639 -12.196  -5.214  0.00  0.00     0.034 A 
ATOM     10  C   UNL d   1      28.003 -13.462  -4.478  0.00  0.00     0.256 C 
ATOM     11  N   UNL d   1      26.953 -13.958  -3.605  0.00  0.00    -0.254 N 
ATOM     12  H   UNL d   1      24.355 -12.512  -4.857  0.00  0.00     0.170 HD
ENDROOT
BRANCH  10  13
ATOM     13  O   UNL d   1      29.203 -13.283  -3.721  0.00  0.00    -0.359 OA
ATOM     14  H   UNL d   1      29.352 -14.106  -3.236  0.00  0.00     0.213 HD
ENDBRANCH  10  13
BRANCH  10  15
ATOM     15  C   UNL d   1      28.267 -14.630  -5.520  0.00  0.00     0.279 C 
ATOM     16  O   UNL d   1      27.382 -15.200  -6.160  0.00  0.00    -0.268 OA
ATOM     17  N   UNL d   1      29.602 -14.905  -5.748  0.00  0.00    -0.356 N 
ATOM     18  H   UNL d   1      30.306 -14.440  -5.187  0.00  0.00     0.162 HD
BRANCH  17  19
ATOM     19  C   UNL d   1      29.976 -15.934  -6.671  0.00  0.00     0.124 C 
BRANCH  19  20
ATOM     20  C   UNL d   1      30.679 -17.089  -5.971  0.00  0.00     0.050 C 
BRANCH  20  21
ATOM     21  C   UNL d   1      30.060 -17.179  -4.602  0.00  0.00     0.274 C 
BRANCH  21  22
ATOM     22  N   UNL d   1      31.002 -17.540  -3.528  0.00  0.00     0.092 N 
ATOM     23  C   UNL d   1      30.410 -17.402  -2.167  0.00  0.00     0.298 C 
ATOM     24  C   UNL d   1      29.925 -15.972  -1.847  0.00  0.00     0.198 C 
ATOM     25  O   UNL d   1      30.967 -15.002  -2.052  0.00  0.00    -0.388 OA
ATOM     26  C   UNL d   1      31.525 -15.113  -3.368  0.00  0.00     0.198 C 
ATOM     27  C   UNL d   1      32.094 -16.532  -3.602  0.00  0.00     0.298 C 
ENDBRANCH  21  22
ENDBRANCH  20  21
ENDBRANCH  19  20
ENDBRANCH  17  19
ENDBRANCH  10  15
BRANCH  11  28
ATOM     28  C   UNL d   1      27.113 -14.099  -2.188  0.00  0.00     0.044 A 
ATOM     29  C   UNL d   1      27.486 -12.997  -1.410  0.00  0.00     0.031 A 
ATOM     30  C   UNL d   1      27.589 -13.110  -0.013  0.00  0.00     0.028 A 
ATOM     31  C   UNL d   1      27.471 -14.355   0.608  0.00  0.00     0.055 A 
ATOM     32 CL   UNL d   1      27.780 -14.451   2.307  0.00  0.00    -0.083 Cl
ATOM     33  C   UNL d   1      27.134 -15.469  -0.161  0.00  0.00     0.058 A 
ATOM     34 CL   UNL d   1      27.027 -17.057   0.521  0.00  0.00    -0.082 Cl
ATOM     35  C   UNL d   1      26.894 -15.326  -1.538  0.00  0.00     0.055 A 
ENDBRANCH  11  28
TORSDOF 7
ENDMDL
