MODEL 1
REMARK VINA RESULT:   -30.021      0.000      0.000
REMARK INTER + INTRA:         -31.863
REMARK INTER:                 -31.215
REMARK INTRA:                  -0.648
REMARK CONF_INDEPENDENT:        1.193
REMARK UNBOUND:                -0.648
REMARK  4 active torsions:
REMARK  status: ('A' for Active; 'I' for Inactive)
REMARK    1  A    between atoms: N_1  and  N_2 
REMARK       I    between atoms: N_2  and  C_3 
REMARK    2  A    between atoms: C_3  and  C_5 
REMARK    3  A    between atoms: C_5  and  C_6 
REMARK    4  A    between atoms: C_6  and  N_7 
ROOT
ATOM      1  N   UNL d   1      24.956 -16.266  -1.263  0.00  0.00    -0.345 N 
ATOM      2  C   UNL d   1      25.035 -15.262  -2.208  0.00  0.00     0.046 A 
ATOM      3  C   UNL d   1      24.032 -14.459  -2.774  0.00  0.00     0.032 A 
ATOM      4  C   UNL d   1      24.409 -13.499  -3.714  0.00  0.00     0.026 A 
ATOM      5  C   UNL d   1      25.742 -13.350  -4.076  0.00  0.00     0.035 A 
ATOM      6 CL   UNL d   1      26.170 -12.151  -5.237  0.00  0.00    -0.084 Cl
ATOM      7  C   UNL d   1      26.740 -14.154  -3.514  0.00  0.00     0.038 A 
ATOM      8  C   UNL d   1      26.382 -15.132  -2.559  0.00  0.00     0.005 A 
ATOM      9  C   UNL d   1      27.119 -16.099  -1.802  0.00  0.00     0.005 A 
ATOM     10  C   UNL d   1      28.488 -16.443  -1.724  0.00  0.00     0.038 A 
ATOM     11  C   UNL d   1      28.887 -17.466  -0.858  0.00  0.00     0.035 A 
ATOM     12 CL   UNL d   1      30.553 -17.891  -0.752  0.00  0.00    -0.084 Cl
ATOM     13  C   UNL d   1      27.961 -18.149  -0.078  0.00  0.00     0.026 A 
ATOM     14  C   UNL d   1      26.603 -17.826  -0.139  0.00  0.00     0.032 A 
ATOM     15  C   UNL d   1      26.205 -16.796  -1.006  0.00  0.00     0.046 A 
ENDROOT
BRANCH   1  16
ATOM     16  C   UNL d   1      23.718 -16.703  -0.631  0.00  0.00     0.139 C 
BRANCH  16  17
ATOM     17  C   UNL d   1      23.616 -18.225  -0.531  0.00  0.00     0.124 C 
BRANCH  17  18
ATOM     18  C   UNL d   1      22.306 -18.691  -1.135  0.00  0.00     0.233 C 
ATOM     19  N   UNL d   1      21.182 -18.372  -0.380  0.00  0.00    -0.294 N 
ATOM     20  H   UNL d   1      21.259 -17.796   0.455  0.00  0.00     0.183 HD
ATOM     21  O   UNL d   1      22.261 -19.323  -2.191  0.00  0.00    -0.272 OA
BRANCH  19  22
ATOM     22  N   UNL d   1      19.905 -18.685  -0.896  0.00  0.00    -0.247 NA
ATOM     23  H   UNL d   1      19.968 -19.343  -1.672  0.00  0.00     0.143 HD
ATOM     24  H   UNL d   1      19.491 -17.823  -1.268  0.00  0.00     0.143 HD
ENDBRANCH  19  22
ENDBRANCH  17  18
ENDBRANCH  16  17
ENDBRANCH   1  16
TORSDOF 4
ENDMDL
MODEL 2
REMARK VINA RESULT:   -29.899      0.172      4.371
REMARK INTER + INTRA:         -31.768
REMARK INTER:                 -31.093
REMARK INTRA:                  -0.675
REMARK CONF_INDEPENDENT:        1.193
REMARK UNBOUND:                -0.675
REMARK  4 active torsions:
REMARK  status: ('A' for Active; 'I' for Inactive)
REMARK    1  A    between atoms: N_1  and  N_2 
REMARK       I    between atoms: N_2  and  C_3 
REMARK    2  A    between atoms: C_3  and  C_5 
REMARK    3  A    between atoms: C_5  and  C_6 
REMARK    4  A    between atoms: C_6  and  N_7 
ROOT
ATOM      1  N   UNL d   1      24.958 -16.322  -1.167  0.00  0.00    -0.345 N 
ATOM      2  C   UNL d   1      26.204 -16.839  -0.871  0.00  0.00     0.046 A 
ATOM      3  C   UNL d   1      26.589 -17.814   0.063  0.00  0.00     0.032 A 
ATOM      4  C   UNL d   1      27.939 -18.156   0.138  0.00  0.00     0.026 A 
ATOM      5  C   UNL d   1      28.872 -17.542  -0.690  0.00  0.00     0.035 A 
ATOM      6 CL   UNL d   1      30.530 -17.992  -0.570  0.00  0.00    -0.084 Cl
ATOM      7  C   UNL d   1      28.486 -16.567  -1.616  0.00  0.00     0.038 A 
ATOM      8  C   UNL d   1      27.123 -16.206  -1.711  0.00  0.00     0.005 A 
ATOM      9  C   UNL d   1      26.395 -15.276  -2.523  0.00  0.00     0.005 A 
ATOM     10  C   UNL d   1      26.766 -14.366  -3.539  0.00  0.00     0.038 A 
ATOM     11  C   UNL d   1      25.780 -13.582  -4.146  0.00  0.00     0.035 A 
ATOM     12 CL   UNL d   1      26.220 -12.471  -5.388  0.00  0.00    -0.084 Cl
ATOM     13  C   UNL d   1      24.447 -13.684  -3.767  0.00  0.00     0.026 A 
ATOM     14  C   UNL d   1      24.057 -14.577  -2.766  0.00  0.00     0.032 A 
ATOM     15  C   UNL d   1      25.048 -15.365  -2.159  0.00  0.00     0.046 A 
ENDROOT
BRANCH   1  16
ATOM     16  C   UNL d   1      23.722 -16.731  -0.514  0.00  0.00     0.139 C 
BRANCH  16  17
ATOM     17  C   UNL d   1      23.595 -18.250  -0.395  0.00  0.00     0.124 C 
BRANCH  17  18
ATOM     18  C   UNL d   1      22.309 -18.709  -1.052  0.00  0.00     0.233 C 
ATOM     19  N   UNL d   1      21.158 -18.404  -0.332  0.00  0.00    -0.294 N 
ATOM     20  H   UNL d   1      21.204 -17.841   0.515  0.00  0.00     0.183 HD
ATOM     21  O   UNL d   1      22.302 -19.325  -2.118  0.00  0.00    -0.272 OA
BRANCH  19  22
ATOM     22  N   UNL d   1      19.900 -18.713  -0.896  0.00  0.00    -0.247 NA
ATOM     23  H   UNL d   1      19.995 -19.332  -1.700  0.00  0.00     0.143 HD
ATOM     24  H   UNL d   1      19.483 -17.841  -1.239  0.00  0.00     0.143 HD
ENDBRANCH  19  22
ENDBRANCH  17  18
ENDBRANCH  16  17
ENDBRANCH   1  16
TORSDOF 4
ENDMDL
MODEL 3
REMARK VINA RESULT:   -28.582      1.040      1.088
REMARK INTER + INTRA:         -30.281
REMARK INTER:                 -29.775
REMARK INTRA:                  -0.505
REMARK CONF_INDEPENDENT:        1.193
REMARK UNBOUND:                -0.505
REMARK  4 active torsions:
REMARK  status: ('A' for Active; 'I' for Inactive)
REMARK    1  A    between atoms: N_1  and  N_2 
REMARK       I    between atoms: N_2  and  C_3 
REMARK    2  A    between atoms: C_3  and  C_5 
REMARK    3  A    between atoms: C_5  and  C_6 
REMARK    4  A    between atoms: C_6  and  N_7 
ROOT
ATOM      1  N   UNL d   1      25.507 -16.423  -1.859  0.00  0.00    -0.345 N 
ATOM      2  C   UNL d   1      25.494 -15.180  -2.461  0.00  0.00     0.046 A 
ATOM      3  C   UNL d   1      24.469 -14.509  -3.147  0.00  0.00     0.032 A 
ATOM      4  C   UNL d   1      24.738 -13.236  -3.650  0.00  0.00     0.026 A 
ATOM      5  C   UNL d   1      25.989 -12.657  -3.476  0.00  0.00     0.035 A 
ATOM      6 CL   UNL d   1      26.283 -11.081  -4.108  0.00  0.00    -0.084 Cl
ATOM      7  C   UNL d   1      27.010 -13.329  -2.796  0.00  0.00     0.038 A 
ATOM      8  C   UNL d   1      26.760 -14.619  -2.276  0.00  0.00     0.005 A 
ATOM      9  C   UNL d   1      27.549 -15.568  -1.548  0.00  0.00     0.005 A 
ATOM     10  C   UNL d   1      28.880 -15.572  -1.072  0.00  0.00     0.038 A 
ATOM     11  C   UNL d   1      29.353 -16.690  -0.377  0.00  0.00     0.035 A 
ATOM     12 CL   UNL d   1      30.973 -16.705   0.211  0.00  0.00    -0.084 Cl
ATOM     13  C   UNL d   1      28.538 -17.792  -0.149  0.00  0.00     0.026 A 
ATOM     14  C   UNL d   1      27.219 -17.809  -0.610  0.00  0.00     0.032 A 
ATOM     15  C   UNL d   1      26.745 -16.685  -1.305  0.00  0.00     0.046 A 
ENDROOT
BRANCH   1  16
ATOM     16  C   UNL d   1      24.367 -17.329  -1.819  0.00  0.00     0.139 C 
BRANCH  16  17
ATOM     17  C   UNL d   1      23.194 -16.764  -1.018  0.00  0.00     0.124 C 
BRANCH  17  18
ATOM     18  C   UNL d   1      22.193 -17.864  -0.730  0.00  0.00     0.233 C 
ATOM     19  N   UNL d   1      20.897 -17.584  -1.151  0.00  0.00    -0.294 N 
ATOM     20  H   UNL d   1      20.691 -16.742  -1.685  0.00  0.00     0.183 HD
ATOM     21  O   UNL d   1      22.510 -18.901  -0.145  0.00  0.00    -0.272 OA
BRANCH  19  22
ATOM     22  N   UNL d   1      19.904 -18.578  -1.008  0.00  0.00    -0.247 NA
ATOM     23  H   UNL d   1      18.968 -18.184  -1.092  0.00  0.00     0.143 HD
ATOM     24  H   UNL d   1      19.979 -18.970  -0.062  0.00  0.00     0.143 HD
ENDBRANCH  19  22
ENDBRANCH  17  18
ENDBRANCH  16  17
ENDBRANCH   1  16
TORSDOF 4
ENDMDL
