MODEL 1
REMARK VINA RESULT:   -10.328      0.000      0.000
REMARK INTER + INTRA:         -15.956
REMARK INTER:                 -13.907
REMARK INTRA:                  -2.049
REMARK CONF_INDEPENDENT:        3.580
REMARK UNBOUND:                -2.049
REMARK  12 active torsions:
REMARK  status: ('A' for Active; 'I' for Inactive)
REMARK    1  A    between atoms: C_2  and  O_3 
REMARK    2  A    between atoms: O_3  and  C_4 
REMARK    3  A    between atoms: C_4  and  C_5 
REMARK    4  A    between atoms: C_5  and  O_6 
REMARK    5  A    between atoms: O_6  and  C_7 
REMARK    6  A    between atoms: C_10  and  C_11 
REMARK       I    between atoms: C_11  and  N_13 
REMARK    7  A    between atoms: N_13  and  C_14 
REMARK    8  A    between atoms: C_14  and  N_16 
REMARK    9  A    between atoms: N_16  and  N_17 
REMARK       I    between atoms: N_17  and  C_18 
REMARK   10  A    between atoms: C_18  and  C_20 
REMARK   11  A    between atoms: C_23  and  N_24 
REMARK       I    between atoms: N_24  and  C_25 
REMARK   12  A    between atoms: C_25  and  C_27 
ROOT
ATOM      1  N   UNL d   1      30.184 -17.303  -1.569  0.00  0.00    -0.273 N 
ATOM      2  H   UNL d   1      30.324 -17.754  -2.471  0.00  0.00     0.189 HD
ENDROOT
BRANCH   1   3
ATOM      3  C   UNL d   1      29.531 -16.075  -1.335  0.00  0.00     0.193 C 
ATOM      4  S   UNL d   1      30.452 -14.664  -1.205  0.00  0.00    -0.039 SA
BRANCH   3   5
ATOM      5  N   UNL d   1      28.118 -16.143  -1.228  0.00  0.00    -0.298 N 
ATOM      6  C   UNL d   1      27.367 -17.173  -0.599  0.00  0.00     0.257 C 
ATOM      7  O   UNL d   1      27.884 -18.144  -0.044  0.00  0.00    -0.267 OA
ATOM      8  H   UNL d   1      27.599 -15.399  -1.666  0.00  0.00     0.171 HD
BRANCH   6   9
ATOM      9  C   UNL d   1      25.857 -17.179  -0.590  0.00  0.00     0.032 A 
ATOM     10  C   UNL d   1      25.210 -18.220   0.123  0.00  0.00     0.020 A 
ATOM     11  C   UNL d   1      23.817 -18.393   0.083  0.00  0.00     0.038 A 
ATOM     12  C   UNL d   1      23.027 -17.488  -0.617  0.00  0.00     0.068 A 
ATOM     13  C   UNL d   1      23.645 -16.418  -1.269  0.00  0.00     0.038 A 
ATOM     14  C   UNL d   1      25.049 -16.265  -1.264  0.00  0.00     0.020 A 
BRANCH  12  15
ATOM     15  O   UNL d   1      21.674 -17.663  -0.519  0.00  0.00    -0.349 OA
BRANCH  15  16
ATOM     16  C   UNL d   1      21.234 -18.995  -0.227  0.00  0.00     0.201 C 
BRANCH  16  17
ATOM     17  C   UNL d   1      20.281 -19.454  -1.331  0.00  0.00     0.194 C 
BRANCH  17  18
ATOM     18  O   UNL d   1      19.069 -19.955  -0.760  0.00  0.00    -0.389 OA
BRANCH  18  19
ATOM     19  C   UNL d   1      19.287 -20.407   0.577  0.00  0.00     0.163 C 
ATOM     20  C   UNL d   1      18.083 -21.199   1.042  0.00  0.00     0.033 C 
ENDBRANCH  18  19
ENDBRANCH  17  18
ENDBRANCH  16  17
ENDBRANCH  15  16
ENDBRANCH  12  15
ENDBRANCH   6   9
ENDBRANCH   3   5
ENDBRANCH   1   3
BRANCH   1  21
ATOM     21  N   UNL d   1      30.716 -18.041  -0.433  0.00  0.00    -0.264 N 
ATOM     22  C   UNL d   1      32.057 -18.381  -0.324  0.00  0.00     0.270 C 
ATOM     23  O   UNL d   1      32.888 -18.120  -1.198  0.00  0.00    -0.266 OA
ATOM     24  H   UNL d   1      30.055 -18.186   0.333  0.00  0.00     0.190 HD
BRANCH  22  25
ATOM     25  C   UNL d   1      32.483 -19.120   0.919  0.00  0.00     0.033 A 
ATOM     26  C   UNL d   1      32.131 -20.464   1.143  0.00  0.00     0.019 A 
ATOM     27  C   UNL d   1      32.437 -21.121   2.370  0.00  0.00     0.030 A 
ATOM     28  C   UNL d   1      33.150 -20.457   3.377  0.00  0.00     0.034 A 
ATOM     29  C   UNL d   1      33.451 -19.109   3.142  0.00  0.00     0.030 A 
ATOM     30  C   UNL d   1      33.139 -18.448   1.944  0.00  0.00     0.019 A 
BRANCH  28  31
ATOM     31  N   UNL d   1      33.573 -21.144   4.565  0.00  0.00    -0.327 N 
ATOM     32  C   UNL d   1      32.803 -21.249   5.722  0.00  0.00     0.226 C 
ATOM     33  O   UNL d   1      31.651 -20.825   5.821  0.00  0.00    -0.273 OA
ATOM     34  H   UNL d   1      34.521 -21.504   4.581  0.00  0.00     0.169 HD
BRANCH  32  35
ATOM     35  C   UNL d   1      33.413 -21.957   6.941  0.00  0.00     0.078 C 
ATOM     36  C   UNL d   1      34.000 -23.332   6.607  0.00  0.00     0.014 C 
ATOM     37  C   UNL d   1      34.759 -23.935   7.795  0.00  0.00     0.001 C 
ATOM     38  C   UNL d   1      35.855 -23.006   8.311  0.00  0.00     0.000 C 
ATOM     39  C   UNL d   1      35.278 -21.647   8.679  0.00  0.00     0.001 C 
ATOM     40  C   UNL d   1      34.534 -21.040   7.502  0.00  0.00     0.014 C 
ENDBRANCH  32  35
ENDBRANCH  28  31
ENDBRANCH  22  25
ENDBRANCH   1  21
TORSDOF 12
ENDMDL
MODEL 2
REMARK VINA RESULT:   -10.318      5.695      6.473
REMARK INTER + INTRA:         -16.363
REMARK INTER:                 -13.898
REMARK INTRA:                  -2.465
REMARK CONF_INDEPENDENT:        3.580
REMARK UNBOUND:                -2.465
REMARK  12 active torsions:
REMARK  status: ('A' for Active; 'I' for Inactive)
REMARK    1  A    between atoms: C_2  and  O_3 
REMARK    2  A    between atoms: O_3  and  C_4 
REMARK    3  A    between atoms: C_4  and  C_5 
REMARK    4  A    between atoms: C_5  and  O_6 
REMARK    5  A    between atoms: O_6  and  C_7 
REMARK    6  A    between atoms: C_10  and  C_11 
REMARK       I    between atoms: C_11  and  N_13 
REMARK    7  A    between atoms: N_13  and  C_14 
REMARK    8  A    between atoms: C_14  and  N_16 
REMARK    9  A    between atoms: N_16  and  N_17 
REMARK       I    between atoms: N_17  and  C_18 
REMARK   10  A    between atoms: C_18  and  C_20 
REMARK   11  A    between atoms: C_23  and  N_24 
REMARK       I    between atoms: N_24  and  C_25 
REMARK   12  A    between atoms: C_25  and  C_27 
ROOT
ATOM      1  N   UNL d   1      29.258 -15.349  -0.566  0.00  0.00    -0.273 N 
ATOM      2  H   UNL d   1      29.579 -14.516  -1.056  0.00  0.00     0.189 HD
ENDROOT
BRANCH   1   3
ATOM      3  C   UNL d   1      28.922 -16.589  -1.146  0.00  0.00     0.193 C 
ATOM      4  S   UNL d   1      30.159 -17.620  -1.661  0.00  0.00    -0.039 SA
BRANCH   3   5
ATOM      5  N   UNL d   1      27.534 -16.865  -1.243  0.00  0.00    -0.298 N 
ATOM      6  C   UNL d   1      26.631 -17.046  -0.160  0.00  0.00     0.257 C 
ATOM      7  O   UNL d   1      26.969 -16.964   1.022  0.00  0.00    -0.267 OA
ATOM      8  H   UNL d   1      27.160 -16.967  -2.173  0.00  0.00     0.171 HD
BRANCH   6   9
ATOM      9  C   UNL d   1      25.177 -17.394  -0.372  0.00  0.00     0.032 A 
ATOM     10  C   UNL d   1      24.309 -16.355  -0.792  0.00  0.00     0.020 A 
ATOM     11  C   UNL d   1      22.921 -16.541  -0.889  0.00  0.00     0.038 A 
ATOM     12  C   UNL d   1      22.370 -17.791  -0.631  0.00  0.00     0.068 A 
ATOM     13  C   UNL d   1      23.221 -18.843  -0.282  0.00  0.00     0.038 A 
ATOM     14  C   UNL d   1      24.613 -18.648  -0.145  0.00  0.00     0.020 A 
BRANCH  12  15
ATOM     15  O   UNL d   1      21.025 -17.918  -0.851  0.00  0.00    -0.349 OA
BRANCH  15  16
ATOM     16  C   UNL d   1      20.578 -19.212  -1.270  0.00  0.00     0.201 C 
BRANCH  16  17
ATOM     17  C   UNL d   1      19.239 -19.514  -0.596  0.00  0.00     0.194 C 
BRANCH  17  18
ATOM     18  O   UNL d   1      19.333 -20.720   0.168  0.00  0.00    -0.389 OA
BRANCH  18  19
ATOM     19  C   UNL d   1      19.206 -20.448   1.564  0.00  0.00     0.163 C 
ATOM     20  C   UNL d   1      20.284 -19.470   1.984  0.00  0.00     0.033 C 
ENDBRANCH  18  19
ENDBRANCH  17  18
ENDBRANCH  16  17
ENDBRANCH  15  16
ENDBRANCH  12  15
ENDBRANCH   6   9
ENDBRANCH   3   5
ENDBRANCH   1   3
BRANCH   1  21
ATOM     21  N   UNL d   1      29.164 -15.204   0.880  0.00  0.00    -0.264 N 
ATOM     22  C   UNL d   1      29.280 -13.976   1.517  0.00  0.00     0.270 C 
ATOM     23  O   UNL d   1      29.511 -12.926   0.911  0.00  0.00    -0.266 OA
ATOM     24  H   UNL d   1      28.887 -16.051   1.379  0.00  0.00     0.190 HD
BRANCH  22  25
ATOM     25  C   UNL d   1      29.132 -13.960   3.017  0.00  0.00     0.033 A 
ATOM     26  C   UNL d   1      30.222 -13.701   3.870  0.00  0.00     0.019 A 
ATOM     27  C   UNL d   1      30.102 -13.801   5.285  0.00  0.00     0.030 A 
ATOM     28  C   UNL d   1      28.870 -14.113   5.877  0.00  0.00     0.034 A 
ATOM     29  C   UNL d   1      27.815 -14.406   5.003  0.00  0.00     0.030 A 
ATOM     30  C   UNL d   1      27.927 -14.326   3.606  0.00  0.00     0.019 A 
BRANCH  28  31
ATOM     31  N   UNL d   1      28.705 -14.095   7.304  0.00  0.00    -0.327 N 
ATOM     32  C   UNL d   1      28.369 -12.957   8.036  0.00  0.00     0.226 C 
ATOM     33  O   UNL d   1      28.106 -11.866   7.527  0.00  0.00    -0.273 OA
ATOM     34  H   UNL d   1      28.926 -14.946   7.808  0.00  0.00     0.169 HD
BRANCH  32  35
ATOM     35  C   UNL d   1      28.292 -13.072   9.565  0.00  0.00     0.078 C 
ATOM     36  C   UNL d   1      28.471 -14.507  10.071  0.00  0.00     0.014 C 
ATOM     37  C   UNL d   1      28.572 -14.566  11.600  0.00  0.00     0.001 C 
ATOM     38  C   UNL d   1      29.686 -13.673  12.141  0.00  0.00     0.000 C 
ATOM     39  C   UNL d   1      29.499 -12.238  11.673  0.00  0.00     0.001 C 
ATOM     40  C   UNL d   1      29.410 -12.171  10.158  0.00  0.00     0.014 C 
ENDBRANCH  32  35
ENDBRANCH  28  31
ENDBRANCH  22  25
ENDBRANCH   1  21
TORSDOF 12
ENDMDL
MODEL 3
REMARK VINA RESULT:   -10.301      5.279     11.238
REMARK INTER + INTRA:         -15.964
REMARK INTER:                 -13.881
REMARK INTRA:                  -2.083
REMARK CONF_INDEPENDENT:        3.580
REMARK UNBOUND:                -2.083
REMARK  12 active torsions:
REMARK  status: ('A' for Active; 'I' for Inactive)
REMARK    1  A    between atoms: C_2  and  O_3 
REMARK    2  A    between atoms: O_3  and  C_4 
REMARK    3  A    between atoms: C_4  and  C_5 
REMARK    4  A    between atoms: C_5  and  O_6 
REMARK    5  A    between atoms: O_6  and  C_7 
REMARK    6  A    between atoms: C_10  and  C_11 
REMARK       I    between atoms: C_11  and  N_13 
REMARK    7  A    between atoms: N_13  and  C_14 
REMARK    8  A    between atoms: C_14  and  N_16 
REMARK    9  A    between atoms: N_16  and  N_17 
REMARK       I    between atoms: N_17  and  C_18 
REMARK   10  A    between atoms: C_18  and  C_20 
REMARK   11  A    between atoms: C_23  and  N_24 
REMARK       I    between atoms: N_24  and  C_25 
REMARK   12  A    between atoms: C_25  and  C_27 
ROOT
ATOM      1  N   UNL d   1      29.387 -15.038  -0.911  0.00  0.00    -0.273 N 
ATOM      2  H   UNL d   1      29.421 -14.478  -1.761  0.00  0.00     0.189 HD
ENDROOT
BRANCH   1   3
ATOM      3  C   UNL d   1      30.465 -15.324  -0.049  0.00  0.00     0.193 C 
ATOM      4  S   UNL d   1      31.952 -15.780  -0.711  0.00  0.00    -0.039 SA
BRANCH   3   5
ATOM      5  N   UNL d   1      30.191 -15.197   1.337  0.00  0.00    -0.298 N 
ATOM      6  C   UNL d   1      29.228 -14.337   1.932  0.00  0.00     0.257 C 
ATOM      7  O   UNL d   1      28.490 -13.596   1.281  0.00  0.00    -0.267 OA
ATOM      8  H   UNL d   1      30.755 -15.753   1.960  0.00  0.00     0.171 HD
BRANCH   6   9
ATOM      9  C   UNL d   1      29.054 -14.234   3.429  0.00  0.00     0.032 A 
ATOM     10  C   UNL d   1      27.947 -13.491   3.911  0.00  0.00     0.020 A 
ATOM     11  C   UNL d   1      27.770 -13.224   5.277  0.00  0.00     0.038 A 
ATOM     12  C   UNL d   1      28.660 -13.751   6.207  0.00  0.00     0.068 A 
ATOM     13  C   UNL d   1      29.717 -14.544   5.752  0.00  0.00     0.038 A 
ATOM     14  C   UNL d   1      29.920 -14.780   4.375  0.00  0.00     0.020 A 
BRANCH  12  15
ATOM     15  O   UNL d   1      28.359 -13.535   7.524  0.00  0.00    -0.349 OA
BRANCH  15  16
ATOM     16  C   UNL d   1      29.471 -13.260   8.384  0.00  0.00     0.201 C 
BRANCH  16  17
ATOM     17  C   UNL d   1      29.804 -14.523   9.180  0.00  0.00     0.194 C 
BRANCH  17  18
ATOM     18  O   UNL d   1      28.831 -14.727  10.209  0.00  0.00    -0.389 OA
BRANCH  18  19
ATOM     19  C   UNL d   1      28.786 -13.607  11.094  0.00  0.00     0.163 C 
ATOM     20  C   UNL d   1      27.361 -13.103  11.195  0.00  0.00     0.033 C 
ENDBRANCH  18  19
ENDBRANCH  17  18
ENDBRANCH  16  17
ENDBRANCH  15  16
ENDBRANCH  12  15
ENDBRANCH   6   9
ENDBRANCH   3   5
ENDBRANCH   1   3
BRANCH   1  21
ATOM     21  N   UNL d   1      28.070 -15.564  -0.584  0.00  0.00    -0.264 N 
ATOM     22  C   UNL d   1      27.247 -16.159  -1.531  0.00  0.00     0.270 C 
ATOM     23  O   UNL d   1      27.553 -16.250  -2.722  0.00  0.00    -0.266 OA
ATOM     24  H   UNL d   1      27.845 -15.571   0.412  0.00  0.00     0.190 HD
BRANCH  22  25
ATOM     25  C   UNL d   1      25.919 -16.691  -1.054  0.00  0.00     0.033 A 
ATOM     26  C   UNL d   1      24.699 -16.126  -1.470  0.00  0.00     0.019 A 
ATOM     27  C   UNL d   1      23.454 -16.557  -0.928  0.00  0.00     0.030 A 
ATOM     28  C   UNL d   1      23.405 -17.600   0.007  0.00  0.00     0.034 A 
ATOM     29  C   UNL d   1      24.637 -18.114   0.432  0.00  0.00     0.030 A 
ATOM     30  C   UNL d   1      25.870 -17.686  -0.084  0.00  0.00     0.019 A 
BRANCH  28  31
ATOM     31  N   UNL d   1      22.151 -18.128   0.467  0.00  0.00    -0.327 N 
ATOM     32  C   UNL d   1      21.305 -18.918  -0.310  0.00  0.00     0.226 C 
ATOM     33  O   UNL d   1      21.578 -19.306  -1.447  0.00  0.00    -0.273 OA
ATOM     34  H   UNL d   1      21.834 -17.839   1.385  0.00  0.00     0.169 HD
BRANCH  32  35
ATOM     35  C   UNL d   1      19.962 -19.357   0.293  0.00  0.00     0.078 C 
ATOM     36  C   UNL d   1      19.264 -20.450  -0.523  0.00  0.00     0.014 C 
ATOM     37  C   UNL d   1      18.023 -20.995   0.194  0.00  0.00     0.001 C 
ATOM     38  C   UNL d   1      18.344 -21.507   1.596  0.00  0.00     0.000 C 
ATOM     39  C   UNL d   1      19.006 -20.418   2.427  0.00  0.00     0.001 C 
ATOM     40  C   UNL d   1      20.243 -19.882   1.727  0.00  0.00     0.014 C 
ENDBRANCH  32  35
ENDBRANCH  28  31
ENDBRANCH  22  25
ENDBRANCH   1  21
TORSDOF 12
ENDMDL
MODEL 4
REMARK VINA RESULT:   -10.266      6.032     11.262
REMARK INTER + INTRA:         -16.148
REMARK INTER:                 -13.845
REMARK INTRA:                  -2.302
REMARK CONF_INDEPENDENT:        3.580
REMARK UNBOUND:                -2.302
REMARK  12 active torsions:
REMARK  status: ('A' for Active; 'I' for Inactive)
REMARK    1  A    between atoms: C_2  and  O_3 
REMARK    2  A    between atoms: O_3  and  C_4 
REMARK    3  A    between atoms: C_4  and  C_5 
REMARK    4  A    between atoms: C_5  and  O_6 
REMARK    5  A    between atoms: O_6  and  C_7 
REMARK    6  A    between atoms: C_10  and  C_11 
REMARK       I    between atoms: C_11  and  N_13 
REMARK    7  A    between atoms: N_13  and  C_14 
REMARK    8  A    between atoms: C_14  and  N_16 
REMARK    9  A    between atoms: N_16  and  N_17 
REMARK       I    between atoms: N_17  and  C_18 
REMARK   10  A    between atoms: C_18  and  C_20 
REMARK   11  A    between atoms: C_23  and  N_24 
REMARK       I    between atoms: N_24  and  C_25 
REMARK   12  A    between atoms: C_25  and  C_27 
ROOT
ATOM      1  N   UNL d   1      28.211 -12.991  -1.204  0.00  0.00    -0.273 N 
ATOM      2  H   UNL d   1      28.659 -13.124  -2.109  0.00  0.00     0.189 HD
ENDROOT
BRANCH   1   3
ATOM      3  C   UNL d   1      28.448 -11.942  -0.293  0.00  0.00     0.193 C 
ATOM      4  S   UNL d   1      28.413 -10.346  -0.847  0.00  0.00    -0.039 SA
BRANCH   3   5
ATOM      5  N   UNL d   1      28.700 -12.338   1.046  0.00  0.00    -0.298 N 
ATOM      6  C   UNL d   1      27.726 -12.683   2.022  0.00  0.00     0.257 C 
ATOM      7  O   UNL d   1      26.515 -12.690   1.795  0.00  0.00    -0.267 OA
ATOM      8  H   UNL d   1      29.665 -12.349   1.337  0.00  0.00     0.171 HD
BRANCH   6   9
ATOM      9  C   UNL d   1      28.098 -13.037   3.442  0.00  0.00     0.032 A 
ATOM     10  C   UNL d   1      28.176 -14.412   3.776  0.00  0.00     0.020 A 
ATOM     11  C   UNL d   1      28.383 -14.846   5.095  0.00  0.00     0.038 A 
ATOM     12  C   UNL d   1      28.583 -13.913   6.107  0.00  0.00     0.068 A 
ATOM     13  C   UNL d   1      28.577 -12.555   5.781  0.00  0.00     0.038 A 
ATOM     14  C   UNL d   1      28.330 -12.116   4.462  0.00  0.00     0.020 A 
BRANCH  12  15
ATOM     15  O   UNL d   1      28.883 -14.416   7.344  0.00  0.00    -0.349 OA
BRANCH  15  16
ATOM     16  C   UNL d   1      29.910 -13.727   8.068  0.00  0.00     0.201 C 
BRANCH  16  17
ATOM     17  C   UNL d   1      29.798 -14.092   9.549  0.00  0.00     0.194 C 
BRANCH  17  18
ATOM     18  O   UNL d   1      28.695 -14.977   9.757  0.00  0.00    -0.389 OA
BRANCH  18  19
ATOM     19  C   UNL d   1      27.783 -14.435  10.713  0.00  0.00     0.163 C 
ATOM     20  C   UNL d   1      28.226 -13.036  11.092  0.00  0.00     0.033 C 
ENDBRANCH  18  19
ENDBRANCH  17  18
ENDBRANCH  16  17
ENDBRANCH  15  16
ENDBRANCH  12  15
ENDBRANCH   6   9
ENDBRANCH   3   5
ENDBRANCH   1   3
BRANCH   1  21
ATOM     21  N   UNL d   1      27.221 -14.003  -0.864  0.00  0.00    -0.264 N 
ATOM     22  C   UNL d   1      26.949 -15.089  -1.685  0.00  0.00     0.270 C 
ATOM     23  O   UNL d   1      27.494 -15.254  -2.780  0.00  0.00    -0.266 OA
ATOM     24  H   UNL d   1      26.829 -13.922   0.076  0.00  0.00     0.190 HD
BRANCH  22  25
ATOM     25  C   UNL d   1      25.923 -16.081  -1.201  0.00  0.00     0.033 A 
ATOM     26  C   UNL d   1      26.274 -17.181  -0.395  0.00  0.00     0.019 A 
ATOM     27  C   UNL d   1      25.321 -18.177  -0.037  0.00  0.00     0.030 A 
ATOM     28  C   UNL d   1      23.983 -18.061  -0.436  0.00  0.00     0.034 A 
ATOM     29  C   UNL d   1      23.672 -16.980  -1.270  0.00  0.00     0.030 A 
ATOM     30  C   UNL d   1      24.607 -16.001  -1.643  0.00  0.00     0.019 A 
BRANCH  28  31
ATOM     31  N   UNL d   1      22.987 -18.990   0.022  0.00  0.00    -0.327 N 
ATOM     32  C   UNL d   1      21.615 -18.812  -0.153  0.00  0.00     0.226 C 
ATOM     33  O   UNL d   1      21.118 -17.877  -0.781  0.00  0.00    -0.273 OA
ATOM     34  H   UNL d   1      23.305 -19.779   0.573  0.00  0.00     0.169 HD
BRANCH  32  35
ATOM     35  C   UNL d   1      20.663 -19.856   0.449  0.00  0.00     0.078 C 
ATOM     36  C   UNL d   1      20.280 -19.555   1.902  0.00  0.00     0.014 C 
ATOM     37  C   UNL d   1      19.193 -20.507   2.416  0.00  0.00     0.001 C 
ATOM     38  C   UNL d   1      17.950 -20.496   1.530  0.00  0.00     0.000 C 
ATOM     39  C   UNL d   1      18.313 -20.828   0.091  0.00  0.00     0.001 C 
ATOM     40  C   UNL d   1      19.382 -19.881  -0.428  0.00  0.00     0.014 C 
ENDBRANCH  32  35
ENDBRANCH  28  31
ENDBRANCH  22  25
ENDBRANCH   1  21
TORSDOF 12
ENDMDL
MODEL 5
REMARK VINA RESULT:   -10.104      7.217     11.273
REMARK INTER + INTRA:         -15.921
REMARK INTER:                 -13.683
REMARK INTRA:                  -2.238
REMARK CONF_INDEPENDENT:        3.580
REMARK UNBOUND:                -2.238
REMARK  12 active torsions:
REMARK  status: ('A' for Active; 'I' for Inactive)
REMARK    1  A    between atoms: C_2  and  O_3 
REMARK    2  A    between atoms: O_3  and  C_4 
REMARK    3  A    between atoms: C_4  and  C_5 
REMARK    4  A    between atoms: C_5  and  O_6 
REMARK    5  A    between atoms: O_6  and  C_7 
REMARK    6  A    between atoms: C_10  and  C_11 
REMARK       I    between atoms: C_11  and  N_13 
REMARK    7  A    between atoms: N_13  and  C_14 
REMARK    8  A    between atoms: C_14  and  N_16 
REMARK    9  A    between atoms: N_16  and  N_17 
REMARK       I    between atoms: N_17  and  C_18 
REMARK   10  A    between atoms: C_18  and  C_20 
REMARK   11  A    between atoms: C_23  and  N_24 
REMARK       I    between atoms: N_24  and  C_25 
REMARK   12  A    between atoms: C_25  and  C_27 
ROOT
ATOM      1  N   UNL d   1      26.896 -12.754  -3.227  0.00  0.00    -0.273 N 
ATOM      2  H   UNL d   1      26.922 -11.896  -2.679  0.00  0.00     0.189 HD
ENDROOT
BRANCH   1   3
ATOM      3  C   UNL d   1      27.570 -12.998  -4.441  0.00  0.00     0.193 C 
ATOM      4  S   UNL d   1      27.272 -11.990  -5.765  0.00  0.00    -0.039 SA
BRANCH   3   5
ATOM      5  N   UNL d   1      28.464 -14.099  -4.436  0.00  0.00    -0.298 N 
ATOM      6  C   UNL d   1      28.520 -15.145  -5.396  0.00  0.00     0.257 C 
ATOM      7  O   UNL d   1      27.781 -15.199  -6.381  0.00  0.00    -0.267 OA
ATOM      8  H   UNL d   1      29.104 -14.155  -3.660  0.00  0.00     0.171 HD
BRANCH   6   9
ATOM      9  C   UNL d   1      29.477 -16.307  -5.269  0.00  0.00     0.032 A 
ATOM     10  C   UNL d   1      30.220 -16.675  -6.419  0.00  0.00     0.020 A 
ATOM     11  C   UNL d   1      31.033 -17.818  -6.443  0.00  0.00     0.038 A 
ATOM     12  C   UNL d   1      31.179 -18.589  -5.295  0.00  0.00     0.068 A 
ATOM     13  C   UNL d   1      30.506 -18.200  -4.133  0.00  0.00     0.038 A 
ATOM     14  C   UNL d   1      29.656 -17.073  -4.118  0.00  0.00     0.020 A 
BRANCH  12  15
ATOM     15  O   UNL d   1      32.071 -19.624  -5.369  0.00  0.00    -0.349 OA
BRANCH  15  16
ATOM     16  C   UNL d   1      31.504 -20.929  -5.530  0.00  0.00     0.201 C 
BRANCH  16  17
ATOM     17  C   UNL d   1      31.540 -21.304  -7.013  0.00  0.00     0.194 C 
BRANCH  17  18
ATOM     18  O   UNL d   1      30.828 -20.332  -7.784  0.00  0.00    -0.389 OA
BRANCH  18  19
ATOM     19  C   UNL d   1      31.166 -20.436  -9.167  0.00  0.00     0.163 C 
ATOM     20  C   UNL d   1      31.891 -19.179  -9.602  0.00  0.00     0.033 C 
ENDBRANCH  18  19
ENDBRANCH  17  18
ENDBRANCH  16  17
ENDBRANCH  15  16
ENDBRANCH  12  15
ENDBRANCH   6   9
ENDBRANCH   3   5
ENDBRANCH   1   3
BRANCH   1  21
ATOM     21  N   UNL d   1      26.081 -13.815  -2.654  0.00  0.00    -0.264 N 
ATOM     22  C   UNL d   1      26.627 -14.985  -2.144  0.00  0.00     0.270 C 
ATOM     23  O   UNL d   1      27.835 -15.230  -2.175  0.00  0.00    -0.266 OA
ATOM     24  H   UNL d   1      25.091 -13.586  -2.546  0.00  0.00     0.190 HD
BRANCH  22  25
ATOM     25  C   UNL d   1      25.673 -15.991  -1.551  0.00  0.00     0.033 A 
ATOM     26  C   UNL d   1      26.126 -17.164  -0.918  0.00  0.00     0.019 A 
ATOM     27  C   UNL d   1      25.220 -18.164  -0.463  0.00  0.00     0.030 A 
ATOM     28  C   UNL d   1      23.836 -17.983  -0.588  0.00  0.00     0.034 A 
ATOM     29  C   UNL d   1      23.416 -16.827  -1.258  0.00  0.00     0.030 A 
ATOM     30  C   UNL d   1      24.301 -15.843  -1.725  0.00  0.00     0.019 A 
BRANCH  28  31
ATOM     31  N   UNL d   1      22.909 -18.924  -0.022  0.00  0.00    -0.327 N 
ATOM     32  C   UNL d   1      21.528 -18.866  -0.206  0.00  0.00     0.226 C 
ATOM     33  O   UNL d   1      20.966 -18.045  -0.932  0.00  0.00    -0.273 OA
ATOM     34  H   UNL d   1      23.283 -19.621   0.612  0.00  0.00     0.169 HD
BRANCH  32  35
ATOM     35  C   UNL d   1      20.653 -19.901   0.515  0.00  0.00     0.078 C 
ATOM     36  C   UNL d   1      20.292 -19.492   1.947  0.00  0.00     0.014 C 
ATOM     37  C   UNL d   1      19.274 -20.450   2.577  0.00  0.00     0.001 C 
ATOM     38  C   UNL d   1      18.010 -20.587   1.732  0.00  0.00     0.000 C 
ATOM     39  C   UNL d   1      18.354 -21.027   0.317  0.00  0.00     0.001 C 
ATOM     40  C   UNL d   1      19.353 -20.075  -0.316  0.00  0.00     0.014 C 
ENDBRANCH  32  35
ENDBRANCH  28  31
ENDBRANCH  22  25
ENDBRANCH   1  21
TORSDOF 12
ENDMDL
MODEL 6
REMARK VINA RESULT:    -9.877      6.594     10.880
REMARK INTER + INTRA:         -15.545
REMARK INTER:                 -13.457
REMARK INTRA:                  -2.088
REMARK CONF_INDEPENDENT:        3.580
REMARK UNBOUND:                -2.088
REMARK  12 active torsions:
REMARK  status: ('A' for Active; 'I' for Inactive)
REMARK    1  A    between atoms: C_2  and  O_3 
REMARK    2  A    between atoms: O_3  and  C_4 
REMARK    3  A    between atoms: C_4  and  C_5 
REMARK    4  A    between atoms: C_5  and  O_6 
REMARK    5  A    between atoms: O_6  and  C_7 
REMARK    6  A    between atoms: C_10  and  C_11 
REMARK       I    between atoms: C_11  and  N_13 
REMARK    7  A    between atoms: N_13  and  C_14 
REMARK    8  A    between atoms: C_14  and  N_16 
REMARK    9  A    between atoms: N_16  and  N_17 
REMARK       I    between atoms: N_17  and  C_18 
REMARK   10  A    between atoms: C_18  and  C_20 
REMARK   11  A    between atoms: C_23  and  N_24 
REMARK       I    between atoms: N_24  and  C_25 
REMARK   12  A    between atoms: C_25  and  C_27 
ROOT
ATOM      1  N   UNL d   1      27.000 -12.889  -3.246  0.00  0.00    -0.273 N 
ATOM      2  H   UNL d   1      27.032 -12.027  -2.704  0.00  0.00     0.189 HD
ENDROOT
BRANCH   1   3
ATOM      3  C   UNL d   1      27.677 -13.148  -4.455  0.00  0.00     0.193 C 
ATOM      4  S   UNL d   1      27.403 -12.141  -5.785  0.00  0.00    -0.039 SA
BRANCH   3   5
ATOM      5  N   UNL d   1      28.553 -14.264  -4.440  0.00  0.00    -0.298 N 
ATOM      6  C   UNL d   1      28.699 -15.236  -5.467  0.00  0.00     0.257 C 
ATOM      7  O   UNL d   1      28.068 -15.202  -6.525  0.00  0.00    -0.267 OA
ATOM      8  H   UNL d   1      29.105 -14.391  -3.607  0.00  0.00     0.171 HD
BRANCH   6   9
ATOM      9  C   UNL d   1      29.622 -16.423  -5.329  0.00  0.00     0.032 A 
ATOM     10  C   UNL d   1      30.344 -16.830  -6.479  0.00  0.00     0.020 A 
ATOM     11  C   UNL d   1      31.125 -17.997  -6.492  0.00  0.00     0.038 A 
ATOM     12  C   UNL d   1      31.258 -18.753  -5.333  0.00  0.00     0.068 A 
ATOM     13  C   UNL d   1      30.608 -18.327  -4.172  0.00  0.00     0.038 A 
ATOM     14  C   UNL d   1      29.790 -17.176  -4.168  0.00  0.00     0.020 A 
BRANCH  12  15
ATOM     15  O   UNL d   1      32.119 -19.814  -5.397  0.00  0.00    -0.349 OA
BRANCH  15  16
ATOM     16  C   UNL d   1      32.243 -20.594  -4.203  0.00  0.00     0.201 C 
BRANCH  16  17
ATOM     17  C   UNL d   1      31.717 -22.004  -4.477  0.00  0.00     0.194 C 
BRANCH  17  18
ATOM     18  O   UNL d   1      30.510 -22.231  -3.744  0.00  0.00    -0.389 OA
BRANCH  18  19
ATOM     19  C   UNL d   1      30.294 -23.628  -3.542  0.00  0.00     0.163 C 
ATOM     20  C   UNL d   1      29.249 -23.824  -2.463  0.00  0.00     0.033 C 
ENDBRANCH  18  19
ENDBRANCH  17  18
ENDBRANCH  16  17
ENDBRANCH  15  16
ENDBRANCH  12  15
ENDBRANCH   6   9
ENDBRANCH   3   5
ENDBRANCH   1   3
BRANCH   1  21
ATOM     21  N   UNL d   1      26.170 -13.937  -2.670  0.00  0.00    -0.264 N 
ATOM     22  C   UNL d   1      26.704 -15.066  -2.065  0.00  0.00     0.270 C 
ATOM     23  O   UNL d   1      27.917 -15.285  -2.007  0.00  0.00    -0.266 OA
ATOM     24  H   UNL d   1      25.171 -13.724  -2.636  0.00  0.00     0.190 HD
BRANCH  22  25
ATOM     25  C   UNL d   1      25.733 -16.061  -1.480  0.00  0.00     0.033 A 
ATOM     26  C   UNL d   1      26.168 -17.220  -0.810  0.00  0.00     0.019 A 
ATOM     27  C   UNL d   1      25.249 -18.212  -0.362  0.00  0.00     0.030 A 
ATOM     28  C   UNL d   1      23.869 -18.035  -0.531  0.00  0.00     0.034 A 
ATOM     29  C   UNL d   1      23.469 -16.893  -1.237  0.00  0.00     0.030 A 
ATOM     30  C   UNL d   1      24.368 -15.918  -1.697  0.00  0.00     0.019 A 
BRANCH  28  31
ATOM     31  N   UNL d   1      22.927 -18.965   0.025  0.00  0.00    -0.327 N 
ATOM     32  C   UNL d   1      21.548 -18.890  -0.170  0.00  0.00     0.226 C 
ATOM     33  O   UNL d   1      21.002 -18.061  -0.900  0.00  0.00    -0.273 OA
ATOM     34  H   UNL d   1      23.287 -19.667   0.661  0.00  0.00     0.169 HD
BRANCH  32  35
ATOM     35  C   UNL d   1      20.655 -19.916   0.543  0.00  0.00     0.078 C 
ATOM     36  C   UNL d   1      20.285 -19.502   1.971  0.00  0.00     0.014 C 
ATOM     37  C   UNL d   1      19.250 -20.449   2.591  0.00  0.00     0.001 C 
ATOM     38  C   UNL d   1      17.993 -20.572   1.735  0.00  0.00     0.000 C 
ATOM     39  C   UNL d   1      18.345 -21.015   0.323  0.00  0.00     0.001 C 
ATOM     40  C   UNL d   1      19.361 -20.074  -0.301  0.00  0.00     0.014 C 
ENDBRANCH  32  35
ENDBRANCH  28  31
ENDBRANCH  22  25
ENDBRANCH   1  21
TORSDOF 12
ENDMDL
MODEL 7
REMARK VINA RESULT:    -9.851      7.248     11.618
REMARK INTER + INTRA:         -15.707
REMARK INTER:                 -13.431
REMARK INTRA:                  -2.276
REMARK CONF_INDEPENDENT:        3.580
REMARK UNBOUND:                -2.276
REMARK  12 active torsions:
REMARK  status: ('A' for Active; 'I' for Inactive)
REMARK    1  A    between atoms: C_2  and  O_3 
REMARK    2  A    between atoms: O_3  and  C_4 
REMARK    3  A    between atoms: C_4  and  C_5 
REMARK    4  A    between atoms: C_5  and  O_6 
REMARK    5  A    between atoms: O_6  and  C_7 
REMARK    6  A    between atoms: C_10  and  C_11 
REMARK       I    between atoms: C_11  and  N_13 
REMARK    7  A    between atoms: N_13  and  C_14 
REMARK    8  A    between atoms: C_14  and  N_16 
REMARK    9  A    between atoms: N_16  and  N_17 
REMARK       I    between atoms: N_17  and  C_18 
REMARK   10  A    between atoms: C_18  and  C_20 
REMARK   11  A    between atoms: C_23  and  N_24 
REMARK       I    between atoms: N_24  and  C_25 
REMARK   12  A    between atoms: C_25  and  C_27 
ROOT
ATOM      1  N   UNL d   1      28.248 -14.712  -3.814  0.00  0.00    -0.273 N 
ATOM      2  H   UNL d   1      29.094 -14.779  -3.251  0.00  0.00     0.189 HD
ENDROOT
BRANCH   1   3
ATOM      3  C   UNL d   1      28.135 -14.139  -5.097  0.00  0.00     0.193 C 
ATOM      4  S   UNL d   1      28.608 -15.040  -6.447  0.00  0.00    -0.039 SA
BRANCH   3   5
ATOM      5  N   UNL d   1      27.617 -12.819  -5.136  0.00  0.00    -0.298 N 
ATOM      6  C   UNL d   1      26.391 -12.377  -4.570  0.00  0.00     0.257 C 
ATOM      7  O   UNL d   1      25.627 -13.118  -3.948  0.00  0.00    -0.267 OA
ATOM      8  H   UNL d   1      28.163 -12.136  -5.637  0.00  0.00     0.171 HD
BRANCH   6   9
ATOM      9  C   UNL d   1      25.900 -10.956  -4.716  0.00  0.00     0.032 A 
ATOM     10  C   UNL d   1      25.730 -10.196  -3.531  0.00  0.00     0.020 A 
ATOM     11  C   UNL d   1      25.155  -8.915  -3.547  0.00  0.00     0.038 A 
ATOM     12  C   UNL d   1      24.797  -8.331  -4.757  0.00  0.00     0.068 A 
ATOM     13  C   UNL d   1      25.023  -9.041  -5.940  0.00  0.00     0.038 A 
ATOM     14  C   UNL d   1      25.563 -10.346  -5.923  0.00  0.00     0.020 A 
BRANCH  12  15
ATOM     15  O   UNL d   1      24.344  -7.042  -4.698  0.00  0.00    -0.349 OA
BRANCH  15  16
ATOM     16  C   UNL d   1      23.938  -6.463  -5.943  0.00  0.00     0.201 C 
BRANCH  16  17
ATOM     17  C   UNL d   1      22.425  -6.629  -6.096  0.00  0.00     0.194 C 
BRANCH  17  18
ATOM     18  O   UNL d   1      22.028  -6.321  -7.435  0.00  0.00    -0.389 OA
BRANCH  18  19
ATOM     19  C   UNL d   1      20.609  -6.190  -7.525  0.00  0.00     0.163 C 
ATOM     20  C   UNL d   1      20.097  -5.427  -6.321  0.00  0.00     0.033 C 
ENDBRANCH  18  19
ENDBRANCH  17  18
ENDBRANCH  16  17
ENDBRANCH  15  16
ENDBRANCH  12  15
ENDBRANCH   6   9
ENDBRANCH   3   5
ENDBRANCH   1   3
BRANCH   1  21
ATOM     21  N   UNL d   1      27.063 -15.292  -3.200  0.00  0.00    -0.264 N 
ATOM     22  C   UNL d   1      27.129 -16.142  -2.105  0.00  0.00     0.270 C 
ATOM     23  O   UNL d   1      28.195 -16.501  -1.598  0.00  0.00    -0.266 OA
ATOM     24  H   UNL d   1      26.175 -14.934  -3.558  0.00  0.00     0.190 HD
BRANCH  22  25
ATOM     25  C   UNL d   1      25.824 -16.650  -1.546  0.00  0.00     0.033 A 
ATOM     26  C   UNL d   1      24.591 -16.056  -1.877  0.00  0.00     0.019 A 
ATOM     27  C   UNL d   1      23.375 -16.465  -1.258  0.00  0.00     0.030 A 
ATOM     28  C   UNL d   1      23.365 -17.514  -0.329  0.00  0.00     0.034 A 
ATOM     29  C   UNL d   1      24.611 -18.058   0.012  0.00  0.00     0.030 A 
ATOM     30  C   UNL d   1      25.816 -17.651  -0.582  0.00  0.00     0.019 A 
BRANCH  28  31
ATOM     31  N   UNL d   1      22.133 -18.019   0.208  0.00  0.00    -0.327 N 
ATOM     32  C   UNL d   1      21.265 -18.861  -0.486  0.00  0.00     0.226 C 
ATOM     33  O   UNL d   1      21.501 -19.319  -1.605  0.00  0.00    -0.273 OA
ATOM     34  H   UNL d   1      21.846 -17.674   1.117  0.00  0.00     0.169 HD
BRANCH  32  35
ATOM     35  C   UNL d   1      19.948 -19.269   0.191  0.00  0.00     0.078 C 
ATOM     36  C   UNL d   1      19.238 -20.425  -0.520  0.00  0.00     0.014 C 
ATOM     37  C   UNL d   1      18.028 -20.930   0.275  0.00  0.00     0.001 C 
ATOM     38  C   UNL d   1      18.400 -21.335   1.699  0.00  0.00     0.000 C 
ATOM     39  C   UNL d   1      19.076 -20.183   2.427  0.00  0.00     0.001 C 
ATOM     40  C   UNL d   1      20.283 -19.687   1.649  0.00  0.00     0.014 C 
ENDBRANCH  32  35
ENDBRANCH  28  31
ENDBRANCH  22  25
ENDBRANCH   1  21
TORSDOF 12
ENDMDL
MODEL 8
REMARK VINA RESULT:    -9.689      7.039     11.168
REMARK INTER + INTRA:         -15.512
REMARK INTER:                 -13.269
REMARK INTRA:                  -2.244
REMARK CONF_INDEPENDENT:        3.580
REMARK UNBOUND:                -2.244
REMARK  12 active torsions:
REMARK  status: ('A' for Active; 'I' for Inactive)
REMARK    1  A    between atoms: C_2  and  O_3 
REMARK    2  A    between atoms: O_3  and  C_4 
REMARK    3  A    between atoms: C_4  and  C_5 
REMARK    4  A    between atoms: C_5  and  O_6 
REMARK    5  A    between atoms: O_6  and  C_7 
REMARK    6  A    between atoms: C_10  and  C_11 
REMARK       I    between atoms: C_11  and  N_13 
REMARK    7  A    between atoms: N_13  and  C_14 
REMARK    8  A    between atoms: C_14  and  N_16 
REMARK    9  A    between atoms: N_16  and  N_17 
REMARK       I    between atoms: N_17  and  C_18 
REMARK   10  A    between atoms: C_18  and  C_20 
REMARK   11  A    between atoms: C_23  and  N_24 
REMARK       I    between atoms: N_24  and  C_25 
REMARK   12  A    between atoms: C_25  and  C_27 
ROOT
ATOM      1  N   UNL d   1      29.474 -16.442  -2.640  0.00  0.00    -0.273 N 
ATOM      2  H   UNL d   1      30.270 -16.567  -2.017  0.00  0.00     0.189 HD
ENDROOT
BRANCH   1   3
ATOM      3  C   UNL d   1      29.511 -15.963  -3.965  0.00  0.00     0.193 C 
ATOM      4  S   UNL d   1      30.385 -16.823  -5.129  0.00  0.00    -0.039 SA
BRANCH   3   5
ATOM      5  N   UNL d   1      28.785 -14.768  -4.205  0.00  0.00    -0.298 N 
ATOM      6  C   UNL d   1      28.224 -14.356  -5.445  0.00  0.00     0.257 C 
ATOM      7  O   UNL d   1      28.297 -15.027  -6.476  0.00  0.00    -0.267 OA
ATOM      8  H   UNL d   1      28.682 -14.140  -3.425  0.00  0.00     0.171 HD
BRANCH   6   9
ATOM      9  C   UNL d   1      27.515 -13.033  -5.609  0.00  0.00     0.032 A 
ATOM     10  C   UNL d   1      26.871 -12.488  -4.470  0.00  0.00     0.020 A 
ATOM     11  C   UNL d   1      26.075 -11.334  -4.548  0.00  0.00     0.038 A 
ATOM     12  C   UNL d   1      25.957 -10.654  -5.755  0.00  0.00     0.068 A 
ATOM     13  C   UNL d   1      26.643 -11.141  -6.871  0.00  0.00     0.038 A 
ATOM     14  C   UNL d   1      27.410 -12.324  -6.805  0.00  0.00     0.020 A 
BRANCH  12  15
ATOM     15  O   UNL d   1      25.253  -9.482  -5.724  0.00  0.00    -0.349 OA
BRANCH  15  16
ATOM     16  C   UNL d   1      25.140  -8.852  -4.443  0.00  0.00     0.201 C 
BRANCH  16  17
ATOM     17  C   UNL d   1      24.466  -7.491  -4.619  0.00  0.00     0.194 C 
BRANCH  17  18
ATOM     18  O   UNL d   1      24.420  -7.139  -6.005  0.00  0.00    -0.389 OA
BRANCH  18  19
ATOM     19  C   UNL d   1      23.086  -7.226  -6.506  0.00  0.00     0.163 C 
ATOM     20  C   UNL d   1      22.155  -6.458  -5.590  0.00  0.00     0.033 C 
ENDBRANCH  18  19
ENDBRANCH  17  18
ENDBRANCH  16  17
ENDBRANCH  15  16
ENDBRANCH  12  15
ENDBRANCH   6   9
ENDBRANCH   3   5
ENDBRANCH   1   3
BRANCH   1  21
ATOM     21  N   UNL d   1      28.191 -16.823  -2.068  0.00  0.00    -0.264 N 
ATOM     22  C   UNL d   1      27.238 -15.889  -1.684  0.00  0.00     0.270 C 
ATOM     23  O   UNL d   1      27.422 -14.672  -1.762  0.00  0.00    -0.266 OA
ATOM     24  H   UNL d   1      27.996 -17.825  -2.080  0.00  0.00     0.190 HD
BRANCH  22  25
ATOM     25  C   UNL d   1      25.937 -16.418  -1.134  0.00  0.00     0.033 A 
ATOM     26  C   UNL d   1      25.900 -17.379  -0.107  0.00  0.00     0.019 A 
ATOM     27  C   UNL d   1      24.674 -17.959   0.328  0.00  0.00     0.030 A 
ATOM     28  C   UNL d   1      23.454 -17.547  -0.224  0.00  0.00     0.034 A 
ATOM     29  C   UNL d   1      23.525 -16.620  -1.272  0.00  0.00     0.030 A 
ATOM     30  C   UNL d   1      24.730 -16.055  -1.719  0.00  0.00     0.019 A 
BRANCH  28  31
ATOM     31  N   UNL d   1      22.203 -18.030   0.291  0.00  0.00    -0.327 N 
ATOM     32  C   UNL d   1      21.321 -18.835  -0.429  0.00  0.00     0.226 C 
ATOM     33  O   UNL d   1      21.556 -19.274  -1.556  0.00  0.00    -0.273 OA
ATOM     34  H   UNL d   1      21.916 -17.697   1.204  0.00  0.00     0.169 HD
BRANCH  32  35
ATOM     35  C   UNL d   1      19.987 -19.222   0.226  0.00  0.00     0.078 C 
ATOM     36  C   UNL d   1      19.253 -20.342  -0.518  0.00  0.00     0.014 C 
ATOM     37  C   UNL d   1      18.022 -20.831   0.254  0.00  0.00     0.001 C 
ATOM     38  C   UNL d   1      18.370 -21.280   1.671  0.00  0.00     0.000 C 
ATOM     39  C   UNL d   1      19.070 -20.165   2.432  0.00  0.00     0.001 C 
ATOM     40  C   UNL d   1      20.296 -19.683   1.677  0.00  0.00     0.014 C 
ENDBRANCH  32  35
ENDBRANCH  28  31
ENDBRANCH  22  25
ENDBRANCH   1  21
TORSDOF 12
ENDMDL
MODEL 9
REMARK VINA RESULT:    -9.300      5.816     10.971
REMARK INTER + INTRA:         -15.513
REMARK INTER:                 -12.879
REMARK INTRA:                  -2.634
REMARK CONF_INDEPENDENT:        3.580
REMARK UNBOUND:                -2.634
REMARK  12 active torsions:
REMARK  status: ('A' for Active; 'I' for Inactive)
REMARK    1  A    between atoms: C_2  and  O_3 
REMARK    2  A    between atoms: O_3  and  C_4 
REMARK    3  A    between atoms: C_4  and  C_5 
REMARK    4  A    between atoms: C_5  and  O_6 
REMARK    5  A    between atoms: O_6  and  C_7 
REMARK    6  A    between atoms: C_10  and  C_11 
REMARK       I    between atoms: C_11  and  N_13 
REMARK    7  A    between atoms: N_13  and  C_14 
REMARK    8  A    between atoms: C_14  and  N_16 
REMARK    9  A    between atoms: N_16  and  N_17 
REMARK       I    between atoms: N_17  and  C_18 
REMARK   10  A    between atoms: C_18  and  C_20 
REMARK   11  A    between atoms: C_23  and  N_24 
REMARK       I    between atoms: N_24  and  C_25 
REMARK   12  A    between atoms: C_25  and  C_27 
ROOT
ATOM      1  N   UNL d   1      28.567 -14.215  -2.456  0.00  0.00    -0.273 N 
ATOM      2  H   UNL d   1      28.892 -14.542  -3.365  0.00  0.00     0.189 HD
ENDROOT
BRANCH   1   3
ATOM      3  C   UNL d   1      29.176 -13.233  -1.649  0.00  0.00     0.193 C 
ATOM      4  S   UNL d   1      29.821 -11.851  -2.377  0.00  0.00    -0.039 SA
BRANCH   3   5
ATOM      5  N   UNL d   1      29.189 -13.506  -0.257  0.00  0.00    -0.298 N 
ATOM      6  C   UNL d   1      28.069 -13.481   0.618  0.00  0.00     0.257 C 
ATOM      7  O   UNL d   1      26.923 -13.226   0.243  0.00  0.00    -0.267 OA
ATOM      8  H   UNL d   1      30.086 -13.712   0.153  0.00  0.00     0.171 HD
BRANCH   6   9
ATOM      9  C   UNL d   1      28.199 -13.732   2.102  0.00  0.00     0.032 A 
ATOM     10  C   UNL d   1      29.482 -14.069   2.600  0.00  0.00     0.020 A 
ATOM     11  C   UNL d   1      29.684 -14.450   3.936  0.00  0.00     0.038 A 
ATOM     12  C   UNL d   1      28.617 -14.439   4.828  0.00  0.00     0.068 A 
ATOM     13  C   UNL d   1      27.359 -14.043   4.367  0.00  0.00     0.038 A 
ATOM     14  C   UNL d   1      27.146 -13.698   3.015  0.00  0.00     0.020 A 
BRANCH  12  15
ATOM     15  O   UNL d   1      28.915 -14.719   6.133  0.00  0.00    -0.349 OA
BRANCH  15  16
ATOM     16  C   UNL d   1      29.567 -13.675   6.865  0.00  0.00     0.201 C 
BRANCH  16  17
ATOM     17  C   UNL d   1      28.530 -12.957   7.731  0.00  0.00     0.194 C 
BRANCH  17  18
ATOM     18  O   UNL d   1      28.026 -11.808   7.046  0.00  0.00    -0.389 OA
BRANCH  18  19
ATOM     19  C   UNL d   1      29.043 -10.816   6.903  0.00  0.00     0.163 C 
ATOM     20  C   UNL d   1      29.399 -10.668   5.438  0.00  0.00     0.033 C 
ENDBRANCH  18  19
ENDBRANCH  17  18
ENDBRANCH  16  17
ENDBRANCH  15  16
ENDBRANCH  12  15
ENDBRANCH   6   9
ENDBRANCH   3   5
ENDBRANCH   1   3
BRANCH   1  21
ATOM     21  N   UNL d   1      27.339 -14.842  -1.990  0.00  0.00    -0.264 N 
ATOM     22  C   UNL d   1      27.225 -16.212  -1.797  0.00  0.00     0.270 C 
ATOM     23  O   UNL d   1      28.140 -17.001  -2.044  0.00  0.00    -0.266 OA
ATOM     24  H   UNL d   1      26.606 -14.190  -1.702  0.00  0.00     0.190 HD
BRANCH  22  25
ATOM     25  C   UNL d   1      25.906 -16.729  -1.281  0.00  0.00     0.033 A 
ATOM     26  C   UNL d   1      24.680 -16.151  -1.661  0.00  0.00     0.019 A 
ATOM     27  C   UNL d   1      23.447 -16.568  -1.082  0.00  0.00     0.030 A 
ATOM     28  C   UNL d   1      23.415 -17.611  -0.147  0.00  0.00     0.034 A 
ATOM     29  C   UNL d   1      24.653 -18.139   0.242  0.00  0.00     0.030 A 
ATOM     30  C   UNL d   1      25.875 -17.723  -0.311  0.00  0.00     0.019 A 
BRANCH  28  31
ATOM     31  N   UNL d   1      22.169 -18.125   0.350  0.00  0.00    -0.327 N 
ATOM     32  C   UNL d   1      21.283 -18.891  -0.406  0.00  0.00     0.226 C 
ATOM     33  O   UNL d   1      21.511 -19.268  -1.557  0.00  0.00    -0.273 OA
ATOM     34  H   UNL d   1      21.889 -17.843   1.283  0.00  0.00     0.169 HD
BRANCH  32  35
ATOM     35  C   UNL d   1      19.955 -19.316   0.237  0.00  0.00     0.078 C 
ATOM     36  C   UNL d   1      19.255 -20.449  -0.520  0.00  0.00     0.014 C 
ATOM     37  C   UNL d   1      18.032 -20.975   0.240  0.00  0.00     0.001 C 
ATOM     38  C   UNL d   1      18.381 -21.425   1.656  0.00  0.00     0.000 C 
ATOM     39  C   UNL d   1      19.047 -20.297   2.430  0.00  0.00     0.001 C 
ATOM     40  C   UNL d   1      20.266 -19.779   1.687  0.00  0.00     0.014 C 
ENDBRANCH  32  35
ENDBRANCH  28  31
ENDBRANCH  22  25
ENDBRANCH   1  21
TORSDOF 12
ENDMDL
