MODEL 1
REMARK VINA RESULT:   -24.706      0.000      0.000
REMARK INTER + INTRA:         -26.978
REMARK INTER:                 -26.197
REMARK INTRA:                  -0.781
REMARK CONF_INDEPENDENT:        1.492
REMARK UNBOUND:                -0.781
REMARK  5 active torsions:
REMARK  status: ('A' for Active; 'I' for Inactive)
REMARK       I    between atoms: C_2  and  N_3 
REMARK    1  A    between atoms: C_2  and  C_19 
REMARK    2  A    between atoms: N_3  and  C_4 
REMARK    3  A    between atoms: C_8  and  S_9 
REMARK    4  A    between atoms: S_9  and  N_12 
REMARK    5  A    between atoms: N_12  and  C_13 
ROOT
ATOM      1  C   UNL d   1      24.499 -16.923  -1.518  0.00  0.00     0.036 A 
ATOM      2  C   UNL d   1      23.993 -15.692  -1.083  0.00  0.00     0.029 A 
ATOM      3  C   UNL d   1      22.642 -15.575  -0.738  0.00  0.00     0.004 A 
ATOM      4  C   UNL d   1      21.787 -16.674  -0.866  0.00  0.00     0.025 A 
ATOM      5  C   UNL d   1      22.296 -17.896  -1.324  0.00  0.00     0.083 A 
ATOM      6  C   UNL d   1      23.641 -18.014  -1.662  0.00  0.00     0.054 A 
ENDROOT
BRANCH   1   7
ATOM      7  N   UNL d   1      25.887 -17.084  -1.712  0.00  0.00    -0.323 N 
ATOM      8  C   UNL d   1      26.668 -16.093  -2.302  0.00  0.00     0.256 C 
ATOM      9  O   UNL d   1      26.323 -14.968  -2.576  0.00  0.00    -0.267 OA
ATOM     10  H   UNL d   1      26.333 -17.878  -1.274  0.00  0.00     0.169 HD
BRANCH   8  11
ATOM     11  C   UNL d   1      28.102 -16.413  -2.398  0.00  0.00     0.036 C 
ATOM     12  C   UNL d   1      28.886 -16.980  -1.407  0.00  0.00     0.040 C 
ATOM     13  C   UNL d   1      30.219 -17.313  -1.741  0.00  0.00     0.058 C 
ATOM     14 CL   UNL d   1      31.264 -17.398  -0.336  0.00  0.00    -0.085 Cl
ATOM     15  C   UNL d   1      30.740 -16.906  -2.994  0.00  0.00     0.192 C 
ATOM     16  C   UNL d   1      30.079 -15.904  -3.639  0.00  0.00     0.094 C 
ATOM     17  O   UNL d   1      31.044 -17.778  -4.126  0.00  0.00    -0.339 OA
ATOM     18  C   UNL d   1      28.703 -15.971  -3.563  0.00  0.00     0.053 C 
ATOM     19  O   UNL d   1      30.676 -15.564  -4.825  0.00  0.00    -0.327 OA
ATOM     20  C   UNL d   1      30.747 -16.901  -5.290  0.00  0.00     0.346 C 
ENDBRANCH   8  11
ENDBRANCH   1   7
BRANCH   5  21
ATOM     21  S   UNL d   1      21.229 -19.329  -1.368  0.00  0.00     0.284 S 
ATOM     22  O   UNL d   1      21.156 -19.699  -2.767  0.00  0.00    -0.198 OA
ATOM     23  O   UNL d   1      21.801 -20.261  -0.407  0.00  0.00    -0.198 OA
BRANCH  21  24
ATOM     24  N   UNL d   1      19.742 -18.838  -0.895  0.00  0.00    -0.147 NA
BRANCH  24  25
ATOM     25  C   UNL d   1      19.121 -19.418   0.070  0.00  0.00     0.113 C 
ATOM     26  C   UNL d   1      18.709 -20.886  -0.011  0.00  0.00     0.080 C 
ATOM     27  C   UNL d   1      17.694 -20.989   1.139  0.00  0.00     0.027 C 
ATOM     28  C   UNL d   1      18.162 -19.941   2.149  0.00  0.00     0.121 C 
ATOM     29  N   UNL d   1      18.734 -18.943   1.288  0.00  0.00    -0.378 N 
ATOM     30  H   UNL d   1      19.059 -18.037   1.627  0.00  0.00     0.160 HD
ENDBRANCH  24  25
ENDBRANCH  21  24
ENDBRANCH   5  21
TORSDOF 5
ENDMDL
MODEL 2
REMARK VINA RESULT:   -24.607      1.753      2.321
REMARK INTER + INTRA:         -26.782
REMARK INTER:                 -26.098
REMARK INTRA:                  -0.684
REMARK CONF_INDEPENDENT:        1.492
REMARK UNBOUND:                -0.684
REMARK  5 active torsions:
REMARK  status: ('A' for Active; 'I' for Inactive)
REMARK       I    between atoms: C_2  and  N_3 
REMARK    1  A    between atoms: C_2  and  C_19 
REMARK    2  A    between atoms: N_3  and  C_4 
REMARK    3  A    between atoms: C_8  and  S_9 
REMARK    4  A    between atoms: S_9  and  N_12 
REMARK    5  A    between atoms: N_12  and  C_13 
ROOT
ATOM      1  C   UNL d   1      24.132 -16.359  -1.875  0.00  0.00     0.036 A 
ATOM      2  C   UNL d   1      23.380 -15.187  -2.021  0.00  0.00     0.029 A 
ATOM      3  C   UNL d   1      22.031 -15.170  -1.645  0.00  0.00     0.004 A 
ATOM      4  C   UNL d   1      21.422 -16.333  -1.162  0.00  0.00     0.025 A 
ATOM      5  C   UNL d   1      22.176 -17.507  -1.041  0.00  0.00     0.083 A 
ATOM      6  C   UNL d   1      23.518 -17.523  -1.410  0.00  0.00     0.054 A 
ENDROOT
BRANCH   1   7
ATOM      7  N   UNL d   1      25.523 -16.334  -2.100  0.00  0.00    -0.323 N 
ATOM      8  C   UNL d   1      26.077 -15.732  -3.227  0.00  0.00     0.256 C 
ATOM      9  O   UNL d   1      25.496 -15.056  -4.044  0.00  0.00    -0.267 OA
ATOM     10  H   UNL d   1      26.127 -16.633  -1.346  0.00  0.00     0.169 HD
BRANCH   8  11
ATOM     11  C   UNL d   1      27.547 -15.770  -3.289  0.00  0.00     0.036 C 
ATOM     12  C   UNL d   1      28.335 -15.355  -4.350  0.00  0.00     0.040 C 
ATOM     13  C   UNL d   1      29.738 -15.367  -4.164  0.00  0.00     0.058 C 
ATOM     14 CL   UNL d   1      30.616 -15.460  -5.678  0.00  0.00    -0.085 Cl
ATOM     15  C   UNL d   1      30.274 -15.953  -2.991  0.00  0.00     0.192 C 
ATOM     16  C   UNL d   1      29.461 -16.801  -2.300  0.00  0.00     0.094 C 
ATOM     17  O   UNL d   1      30.899 -15.241  -1.879  0.00  0.00    -0.339 OA
ATOM     18  C   UNL d   1      28.142 -16.404  -2.214  0.00  0.00     0.053 C 
ATOM     19  O   UNL d   1      30.080 -17.337  -1.200  0.00  0.00    -0.327 OA
ATOM     20  C   UNL d   1      30.523 -16.082  -0.712  0.00  0.00     0.346 C 
ENDBRANCH   8  11
ENDBRANCH   1   7
BRANCH   5  21
ATOM     21  S   UNL d   1      21.428 -18.956  -0.308  0.00  0.00     0.284 S 
ATOM     22  O   UNL d   1      22.189 -20.074  -0.829  0.00  0.00    -0.198 OA
ATOM     23  O   UNL d   1      21.419 -18.697   1.124  0.00  0.00    -0.198 OA
BRANCH  21  24
ATOM     24  N   UNL d   1      19.905 -19.061  -0.895  0.00  0.00    -0.147 NA
BRANCH  24  25
ATOM     25  C   UNL d   1      19.026 -19.821  -0.343  0.00  0.00     0.113 C 
ATOM     26  C   UNL d   1      18.826 -19.846   1.170  0.00  0.00     0.080 C 
ATOM     27  C   UNL d   1      18.007 -21.134   1.355  0.00  0.00     0.027 C 
ATOM     28  C   UNL d   1      17.220 -21.269   0.051  0.00  0.00     0.121 C 
ATOM     29  N   UNL d   1      18.126 -20.683  -0.897  0.00  0.00    -0.378 N 
ATOM     30  H   UNL d   1      17.962 -20.697  -1.904  0.00  0.00     0.160 HD
ENDBRANCH  24  25
ENDBRANCH  21  24
ENDBRANCH   5  21
TORSDOF 5
ENDMDL
