MODEL 1
REMARK VINA RESULT:    -8.249      0.000      0.000
REMARK INTER + INTRA:          -9.678
REMARK INTER:                  -9.144
REMARK INTRA:                  -0.534
REMARK CONF_INDEPENDENT:        0.895
REMARK UNBOUND:                -0.534
REMARK  3 active torsions:
REMARK  status: ('A' for Active; 'I' for Inactive)
REMARK       I    between atoms: C_2  and  N_3 
REMARK    1  A    between atoms: C_15  and  C_2 
REMARK    2  A    between atoms: N_3  and  N_4 
REMARK    3  A    between atoms: C_5  and  C_6 
ROOT
ATOM      1  N   UNL d   1      23.781 -18.903  -0.228  0.00  0.00    -0.184 NA
ATOM      2  C   UNL d   1      22.662 -18.431   0.231  0.00  0.00     0.152 C 
ENDROOT
BRANCH   1   3
ATOM      3  N   UNL d   1      24.967 -18.331   0.205  0.00  0.00    -0.247 N 
ATOM      4  C   UNL d   1      25.427 -17.140  -0.376  0.00  0.00     0.242 C 
ATOM      5  O   UNL d   1      24.823 -16.561  -1.275  0.00  0.00    -0.271 OA
ATOM      6  H   UNL d   1      25.496 -18.787   0.937  0.00  0.00     0.192 HD
BRANCH   4   7
ATOM      7  C   UNL d   1      26.735 -16.618   0.183  0.00  0.00     0.088 A 
ATOM      8  C   UNL d   1      27.265 -15.188   0.090  0.00  0.00     0.004 A 
ATOM      9  C   UNL d   1      26.706 -14.038  -0.691  0.00  0.00     0.006 C 
ATOM     10  C   UNL d   1      27.997 -16.292  -0.629  0.00  0.00     0.004 A 
ATOM     11  C   UNL d   1      26.545 -14.294  -2.180  0.00  0.00     0.000 C 
ATOM     12  C   UNL d   1      27.775 -14.959  -2.777  0.00  0.00     0.000 C 
ATOM     13  C   UNL d   1      28.064 -16.311  -2.128  0.00  0.00     0.006 C 
ENDBRANCH   4   7
ENDBRANCH   1   3
BRANCH   2  14
ATOM     14  C   UNL d   1      21.400 -19.014  -0.217  0.00  0.00     0.011 A 
ATOM     15  C   UNL d   1      20.910 -19.022  -1.514  0.00  0.00     0.102 A 
ATOM     16  N   UNL d   1      19.714 -19.708  -1.525  0.00  0.00    -0.364 N 
ATOM     17  C   UNL d   1      19.353 -20.054  -0.243  0.00  0.00     0.043 A 
ATOM     18  H   UNL d   1      19.158 -19.906  -2.347  0.00  0.00     0.165 HD
ATOM     19  C   UNL d   1      18.202 -20.690   0.247  0.00  0.00     0.030 A 
ATOM     20  C   UNL d   1      20.395 -19.639   0.590  0.00  0.00     0.004 A 
ATOM     21  C   UNL d   1      18.102 -20.868   1.632  0.00  0.00     0.002 A 
ATOM     22  C   UNL d   1      19.123 -20.454   2.485  0.00  0.00     0.001 A 
ATOM     23  C   UNL d   1      20.274 -19.853   1.975  0.00  0.00     0.014 A 
ENDBRANCH   2  14
TORSDOF 3
ENDMDL
MODEL 2
REMARK VINA RESULT:    -7.651      5.421      9.191
REMARK INTER + INTRA:          -9.048
REMARK INTER:                  -8.546
REMARK INTRA:                  -0.502
REMARK CONF_INDEPENDENT:        0.895
REMARK UNBOUND:                -0.502
REMARK  3 active torsions:
REMARK  status: ('A' for Active; 'I' for Inactive)
REMARK       I    between atoms: C_2  and  N_3 
REMARK    1  A    between atoms: C_15  and  C_2 
REMARK    2  A    between atoms: N_3  and  N_4 
REMARK    3  A    between atoms: C_5  and  C_6 
ROOT
ATOM      1  N   UNL d   1      27.779 -14.202   2.606  0.00  0.00    -0.184 NA
ATOM      2  C   UNL d   1      28.364 -14.323   3.759  0.00  0.00     0.152 C 
ENDROOT
BRANCH   1   3
ATOM      3  N   UNL d   1      27.938 -15.216   1.674  0.00  0.00    -0.247 N 
ATOM      4  C   UNL d   1      27.083 -15.290   0.565  0.00  0.00     0.242 C 
ATOM      5  O   UNL d   1      26.174 -14.488   0.368  0.00  0.00    -0.271 OA
ATOM      6  H   UNL d   1      28.671 -15.900   1.810  0.00  0.00     0.192 HD
BRANCH   4   7
ATOM      7  C   UNL d   1      27.359 -16.443  -0.379  0.00  0.00     0.088 A 
ATOM      8  C   UNL d   1      26.456 -16.938  -1.509  0.00  0.00     0.004 A 
ATOM      9  C   UNL d   1      25.058 -16.512  -1.835  0.00  0.00     0.006 C 
ATOM     10  C   UNL d   1      26.706 -17.832  -0.322  0.00  0.00     0.004 A 
ATOM     11  C   UNL d   1      24.061 -16.661  -0.697  0.00  0.00     0.000 C 
ATOM     12  C   UNL d   1      24.195 -18.005   0.001  0.00  0.00     0.000 C 
ATOM     13  C   UNL d   1      25.584 -18.199   0.605  0.00  0.00     0.006 C 
ENDBRANCH   4   7
ENDBRANCH   1   3
BRANCH   2  14
ATOM     14  C   UNL d   1      28.215 -13.264   4.754  0.00  0.00     0.011 A 
ATOM     15  C   UNL d   1      27.780 -11.969   4.521  0.00  0.00     0.102 A 
ATOM     16  N   UNL d   1      27.737 -11.298   5.724  0.00  0.00    -0.364 N 
ATOM     17  C   UNL d   1      28.241 -12.092   6.728  0.00  0.00     0.043 A 
ATOM     18  H   UNL d   1      27.413 -10.348   5.856  0.00  0.00     0.165 HD
ATOM     19  C   UNL d   1      28.461 -11.823   8.088  0.00  0.00     0.030 A 
ATOM     20  C   UNL d   1      28.537 -13.328   6.148  0.00  0.00     0.004 A 
ATOM     21  C   UNL d   1      29.038 -12.838   8.862  0.00  0.00     0.002 A 
ATOM     22  C   UNL d   1      29.352 -14.075   8.306  0.00  0.00     0.001 A 
ATOM     23  C   UNL d   1      29.095 -14.334   6.959  0.00  0.00     0.014 A 
ENDBRANCH   2  14
TORSDOF 3
ENDMDL
MODEL 3
REMARK VINA RESULT:    -6.732      5.211      9.797
REMARK INTER + INTRA:          -8.314
REMARK INTER:                  -7.627
REMARK INTRA:                  -0.687
REMARK CONF_INDEPENDENT:        0.895
REMARK UNBOUND:                -0.687
REMARK  3 active torsions:
REMARK  status: ('A' for Active; 'I' for Inactive)
REMARK       I    between atoms: C_2  and  N_3 
REMARK    1  A    between atoms: C_15  and  C_2 
REMARK    2  A    between atoms: N_3  and  N_4 
REMARK    3  A    between atoms: C_5  and  C_6 
ROOT
ATOM      1  N   UNL d   1      28.283 -15.575  -5.339  0.00  0.00    -0.184 NA
ATOM      2  C   UNL d   1      29.516 -15.904  -5.101  0.00  0.00     0.152 C 
ENDROOT
BRANCH   1   3
ATOM      3  N   UNL d   1      27.513 -15.091  -4.293  0.00  0.00    -0.247 N 
ATOM      4  C   UNL d   1      26.116 -15.200  -4.339  0.00  0.00     0.242 C 
ATOM      5  O   UNL d   1      25.518 -15.711  -5.282  0.00  0.00    -0.271 OA
ATOM      6  H   UNL d   1      27.973 -14.655  -3.504  0.00  0.00     0.192 HD
BRANCH   4   7
ATOM      7  C   UNL d   1      25.389 -14.633  -3.136  0.00  0.00     0.088 A 
ATOM      8  C   UNL d   1      25.904 -14.578  -1.698  0.00  0.00     0.004 A 
ATOM      9  C   UNL d   1      27.143 -15.198  -1.129  0.00  0.00     0.006 C 
ATOM     10  C   UNL d   1      24.716 -15.447  -2.021  0.00  0.00     0.004 A 
ATOM     11  C   UNL d   1      27.257 -16.700  -1.331  0.00  0.00     0.000 C 
ATOM     12  C   UNL d   1      25.955 -17.416  -1.007  0.00  0.00     0.000 C 
ATOM     13  C   UNL d   1      24.807 -16.939  -1.895  0.00  0.00     0.006 C 
ENDBRANCH   4   7
ENDBRANCH   1   3
BRANCH   2  14
ATOM     14  C   UNL d   1      30.343 -16.422  -6.188  0.00  0.00     0.011 A 
ATOM     15  C   UNL d   1      30.884 -15.689  -7.233  0.00  0.00     0.102 A 
ATOM     16  N   UNL d   1      31.635 -16.537  -8.019  0.00  0.00    -0.364 N 
ATOM     17  C   UNL d   1      31.509 -17.833  -7.574  0.00  0.00     0.043 A 
ATOM     18  H   UNL d   1      32.179 -16.262  -8.826  0.00  0.00     0.165 HD
ATOM     19  C   UNL d   1      32.023 -19.034  -8.087  0.00  0.00     0.030 A 
ATOM     20  C   UNL d   1      30.714 -17.784  -6.426  0.00  0.00     0.004 A 
ATOM     21  C   UNL d   1      31.678 -20.219  -7.426  0.00  0.00     0.002 A 
ATOM     22  C   UNL d   1      30.879 -20.199  -6.285  0.00  0.00     0.001 A 
ATOM     23  C   UNL d   1      30.405 -18.991  -5.772  0.00  0.00     0.014 A 
ENDBRANCH   2  14
TORSDOF 3
ENDMDL
MODEL 4
REMARK VINA RESULT:    -6.684      4.952      7.223
REMARK INTER + INTRA:          -8.119
REMARK INTER:                  -7.579
REMARK INTRA:                  -0.541
REMARK CONF_INDEPENDENT:        0.895
REMARK UNBOUND:                -0.541
REMARK  3 active torsions:
REMARK  status: ('A' for Active; 'I' for Inactive)
REMARK       I    between atoms: C_2  and  N_3 
REMARK    1  A    between atoms: C_15  and  C_2 
REMARK    2  A    between atoms: N_3  and  N_4 
REMARK    3  A    between atoms: C_5  and  C_6 
ROOT
ATOM      1  N   UNL d   1      27.806 -14.769   2.182  0.00  0.00    -0.184 NA
ATOM      2  C   UNL d   1      27.777 -15.799   1.392  0.00  0.00     0.152 C 
ENDROOT
BRANCH   1   3
ATOM      3  N   UNL d   1      28.613 -14.822   3.307  0.00  0.00    -0.247 N 
ATOM      4  C   UNL d   1      28.096 -14.462   4.561  0.00  0.00     0.242 C 
ATOM      5  O   UNL d   1      26.937 -14.089   4.722  0.00  0.00    -0.271 OA
ATOM      6  H   UNL d   1      29.576 -15.115   3.210  0.00  0.00     0.192 HD
BRANCH   4   7
ATOM      7  C   UNL d   1      29.078 -14.561   5.711  0.00  0.00     0.088 A 
ATOM      8  C   UNL d   1      29.044 -13.764   7.015  0.00  0.00     0.004 A 
ATOM      9  C   UNL d   1      28.150 -12.621   7.383  0.00  0.00     0.006 C 
ATOM     10  C   UNL d   1      30.179 -13.544   6.047  0.00  0.00     0.004 A 
ATOM     11  C   UNL d   1      28.192 -11.442   6.424  0.00  0.00     0.000 C 
ATOM     12  C   UNL d   1      29.617 -11.069   6.046  0.00  0.00     0.000 C 
ATOM     13  C   UNL d   1      30.344 -12.222   5.357  0.00  0.00     0.006 C 
ENDBRANCH   4   7
ENDBRANCH   1   3
BRANCH   2  14
ATOM     14  C   UNL d   1      26.928 -15.767   0.203  0.00  0.00     0.011 A 
ATOM     15  C   UNL d   1      26.905 -14.777  -0.767  0.00  0.00     0.102 A 
ATOM     16  N   UNL d   1      26.002 -15.142  -1.743  0.00  0.00    -0.364 N 
ATOM     17  C   UNL d   1      25.350 -16.297  -1.378  0.00  0.00     0.043 A 
ATOM     18  H   UNL d   1      25.815 -14.626  -2.593  0.00  0.00     0.165 HD
ATOM     19  C   UNL d   1      24.313 -17.004  -2.007  0.00  0.00     0.030 A 
ATOM     20  C   UNL d   1      25.918 -16.711  -0.171  0.00  0.00     0.004 A 
ATOM     21  C   UNL d   1      23.820 -18.142  -1.357  0.00  0.00     0.002 A 
ATOM     22  C   UNL d   1      24.362 -18.570  -0.147  0.00  0.00     0.001 A 
ATOM     23  C   UNL d   1      25.416 -17.872   0.445  0.00  0.00     0.014 A 
ENDBRANCH   2  14
TORSDOF 3
ENDMDL
MODEL 5
REMARK VINA RESULT:    -6.525      4.088      6.382
REMARK INTER + INTRA:          -8.059
REMARK INTER:                  -7.420
REMARK INTRA:                  -0.638
REMARK CONF_INDEPENDENT:        0.895
REMARK UNBOUND:                -0.638
REMARK  3 active torsions:
REMARK  status: ('A' for Active; 'I' for Inactive)
REMARK       I    between atoms: C_2  and  N_3 
REMARK    1  A    between atoms: C_15  and  C_2 
REMARK    2  A    between atoms: N_3  and  N_4 
REMARK    3  A    between atoms: C_5  and  C_6 
ROOT
ATOM      1  N   UNL d   1      28.076 -14.964   0.822  0.00  0.00    -0.184 NA
ATOM      2  C   UNL d   1      27.458 -16.103   0.742  0.00  0.00     0.152 C 
ENDROOT
BRANCH   1   3
ATOM      3  N   UNL d   1      28.912 -14.740   1.903  0.00  0.00    -0.247 N 
ATOM      4  C   UNL d   1      29.349 -13.439   2.196  0.00  0.00     0.242 C 
ATOM      5  O   UNL d   1      29.026 -12.461   1.527  0.00  0.00    -0.271 OA
ATOM      6  H   UNL d   1      29.206 -15.524   2.470  0.00  0.00     0.192 HD
BRANCH   4   7
ATOM      7  C   UNL d   1      30.260 -13.327   3.402  0.00  0.00     0.088 A 
ATOM      8  C   UNL d   1      30.202 -14.169   4.676  0.00  0.00     0.004 A 
ATOM      9  C   UNL d   1      29.161 -15.167   5.083  0.00  0.00     0.006 C 
ATOM     10  C   UNL d   1      29.894 -12.696   4.754  0.00  0.00     0.004 A 
ATOM     11  C   UNL d   1      27.741 -14.628   5.130  0.00  0.00     0.000 C 
ATOM     12  C   UNL d   1      27.670 -13.278   5.827  0.00  0.00     0.000 C 
ATOM     13  C   UNL d   1      28.517 -12.224   5.118  0.00  0.00     0.006 C 
ENDBRANCH   4   7
ENDBRANCH   1   3
BRANCH   2  14
ATOM     14  C   UNL d   1      26.566 -16.359  -0.387  0.00  0.00     0.011 A 
ATOM     15  C   UNL d   1      26.662 -15.806  -1.654  0.00  0.00     0.102 A 
ATOM     16  N   UNL d   1      25.661 -16.336  -2.440  0.00  0.00    -0.364 N 
ATOM     17  C   UNL d   1      24.841 -17.141  -1.683  0.00  0.00     0.043 A 
ATOM     18  H   UNL d   1      25.521 -16.143  -3.423  0.00  0.00     0.165 HD
ATOM     19  C   UNL d   1      23.667 -17.832  -2.021  0.00  0.00     0.030 A 
ATOM     20  C   UNL d   1      25.392 -17.178  -0.400  0.00  0.00     0.004 A 
ATOM     21  C   UNL d   1      23.021 -18.545  -1.004  0.00  0.00     0.002 A 
ATOM     22  C   UNL d   1      23.544 -18.590   0.286  0.00  0.00     0.001 A 
ATOM     23  C   UNL d   1      24.731 -17.924   0.594  0.00  0.00     0.014 A 
ENDBRANCH   2  14
TORSDOF 3
ENDMDL
MODEL 6
REMARK VINA RESULT:    -6.493      4.212      6.498
REMARK INTER + INTRA:          -7.989
REMARK INTER:                  -7.387
REMARK INTRA:                  -0.602
REMARK CONF_INDEPENDENT:        0.895
REMARK UNBOUND:                -0.602
REMARK  3 active torsions:
REMARK  status: ('A' for Active; 'I' for Inactive)
REMARK       I    between atoms: C_2  and  N_3 
REMARK    1  A    between atoms: C_15  and  C_2 
REMARK    2  A    between atoms: N_3  and  N_4 
REMARK    3  A    between atoms: C_5  and  C_6 
ROOT
ATOM      1  N   UNL d   1      25.227 -14.202  -3.858  0.00  0.00    -0.184 NA
ATOM      2  C   UNL d   1      25.202 -14.292  -2.563  0.00  0.00     0.152 C 
ENDROOT
BRANCH   1   3
ATOM      3  N   UNL d   1      25.026 -12.959  -4.438  0.00  0.00    -0.247 N 
ATOM      4  C   UNL d   1      25.857 -11.881  -4.098  0.00  0.00     0.242 C 
ATOM      5  O   UNL d   1      26.776 -11.978  -3.289  0.00  0.00    -0.271 OA
ATOM      6  H   UNL d   1      24.271 -12.841  -5.102  0.00  0.00     0.192 HD
BRANCH   4   7
ATOM      7  C   UNL d   1      25.534 -10.578  -4.799  0.00  0.00     0.088 A 
ATOM      8  C   UNL d   1      25.740 -10.259  -6.280  0.00  0.00     0.004 A 
ATOM      9  C   UNL d   1      26.436 -11.082  -7.320  0.00  0.00     0.006 C 
ATOM     10  C   UNL d   1      26.551  -9.518  -5.248  0.00  0.00     0.004 A 
ATOM     11  C   UNL d   1      27.872 -11.450  -6.988  0.00  0.00     0.000 C 
ATOM     12  C   UNL d   1      28.655 -10.259  -6.458  0.00  0.00     0.000 C 
ATOM     13  C   UNL d   1      28.039  -9.696  -5.178  0.00  0.00     0.006 C 
ENDBRANCH   4   7
ENDBRANCH   1   3
BRANCH   2  14
ATOM     14  C   UNL d   1      25.405 -15.593  -1.930  0.00  0.00     0.011 A 
ATOM     15  C   UNL d   1      26.595 -16.301  -1.866  0.00  0.00     0.102 A 
ATOM     16  N   UNL d   1      26.378 -17.457  -1.148  0.00  0.00    -0.364 N 
ATOM     17  C   UNL d   1      25.044 -17.577  -0.833  0.00  0.00     0.043 A 
ATOM     18  H   UNL d   1      27.084 -18.141  -0.908  0.00  0.00     0.165 HD
ATOM     19  C   UNL d   1      24.343 -18.603  -0.181  0.00  0.00     0.030 A 
ATOM     20  C   UNL d   1      24.418 -16.420  -1.304  0.00  0.00     0.004 A 
ATOM     21  C   UNL d   1      22.957 -18.454  -0.045  0.00  0.00     0.002 A 
ATOM     22  C   UNL d   1      22.308 -17.315  -0.514  0.00  0.00     0.001 A 
ATOM     23  C   UNL d   1      23.028 -16.291  -1.130  0.00  0.00     0.014 A 
ENDBRANCH   2  14
TORSDOF 3
ENDMDL
MODEL 7
REMARK VINA RESULT:    -6.286      4.629      9.111
REMARK INTER + INTRA:          -7.804
REMARK INTER:                  -7.181
REMARK INTRA:                  -0.623
REMARK CONF_INDEPENDENT:        0.895
REMARK UNBOUND:                -0.623
REMARK  3 active torsions:
REMARK  status: ('A' for Active; 'I' for Inactive)
REMARK       I    between atoms: C_2  and  N_3 
REMARK    1  A    between atoms: C_15  and  C_2 
REMARK    2  A    between atoms: N_3  and  N_4 
REMARK    3  A    between atoms: C_5  and  C_6 
ROOT
ATOM      1  N   UNL d   1      28.249 -13.973   2.182  0.00  0.00    -0.184 NA
ATOM      2  C   UNL d   1      27.755 -13.923   3.382  0.00  0.00     0.152 C 
ENDROOT
BRANCH   1   3
ATOM      3  N   UNL d   1      28.276 -15.194   1.528  0.00  0.00    -0.247 N 
ATOM      4  C   UNL d   1      27.229 -15.553   0.666  0.00  0.00     0.242 C 
ATOM      5  O   UNL d   1      26.261 -14.828   0.455  0.00  0.00    -0.271 OA
ATOM      6  H   UNL d   1      29.054 -15.821   1.686  0.00  0.00     0.192 HD
BRANCH   4   7
ATOM      7  C   UNL d   1      27.375 -16.913   0.014  0.00  0.00     0.088 A 
ATOM      8  C   UNL d   1      26.696 -17.390  -1.270  0.00  0.00     0.004 A 
ATOM      9  C   UNL d   1      25.636 -16.701  -2.073  0.00  0.00     0.006 C 
ATOM     10  C   UNL d   1      26.335 -18.043   0.039  0.00  0.00     0.004 A 
ATOM     11  C   UNL d   1      24.379 -16.342  -1.298  0.00  0.00     0.000 C 
ATOM     12  C   UNL d   1      23.902 -17.494  -0.427  0.00  0.00     0.000 C 
ATOM     13  C   UNL d   1      24.952 -17.903   0.604  0.00  0.00     0.006 C 
ENDBRANCH   4   7
ENDBRANCH   1   3
BRANCH   2  14
ATOM     14  C   UNL d   1      27.723 -12.647   4.092  0.00  0.00     0.011 A 
ATOM     15  C   UNL d   1      27.857 -12.461   5.459  0.00  0.00     0.102 A 
ATOM     16  N   UNL d   1      27.815 -11.109   5.723  0.00  0.00    -0.364 N 
ATOM     17  C   UNL d   1      27.544 -10.409   4.571  0.00  0.00     0.043 A 
ATOM     18  H   UNL d   1      27.934 -10.684   6.634  0.00  0.00     0.165 HD
ATOM     19  C   UNL d   1      27.340  -9.037   4.356  0.00  0.00     0.030 A 
ATOM     20  C   UNL d   1      27.491 -11.347   3.538  0.00  0.00     0.004 A 
ATOM     21  C   UNL d   1      27.034  -8.625   3.053  0.00  0.00     0.002 A 
ATOM     22  C   UNL d   1      26.965  -9.541   2.007  0.00  0.00     0.001 A 
ATOM     23  C   UNL d   1      27.204 -10.897   2.235  0.00  0.00     0.014 A 
ENDBRANCH   2  14
TORSDOF 3
ENDMDL
MODEL 8
REMARK VINA RESULT:    -6.228      3.337      5.948
REMARK INTER + INTRA:          -7.914
REMARK INTER:                  -7.123
REMARK INTRA:                  -0.791
REMARK CONF_INDEPENDENT:        0.895
REMARK UNBOUND:                -0.791
REMARK  3 active torsions:
REMARK  status: ('A' for Active; 'I' for Inactive)
REMARK       I    between atoms: C_2  and  N_3 
REMARK    1  A    between atoms: C_15  and  C_2 
REMARK    2  A    between atoms: N_3  and  N_4 
REMARK    3  A    between atoms: C_5  and  C_6 
ROOT
ATOM      1  N   UNL d   1      26.332 -15.072  -3.242  0.00  0.00    -0.184 NA
ATOM      2  C   UNL d   1      26.392 -14.946  -1.951  0.00  0.00     0.152 C 
ENDROOT
BRANCH   1   3
ATOM      3  N   UNL d   1      26.597 -13.962  -4.028  0.00  0.00    -0.247 N 
ATOM      4  C   UNL d   1      25.540 -13.207  -4.558  0.00  0.00     0.242 C 
ATOM      5  O   UNL d   1      24.360 -13.483  -4.361  0.00  0.00    -0.271 OA
ATOM      6  H   UNL d   1      27.559 -13.711  -4.219  0.00  0.00     0.192 HD
BRANCH   4   7
ATOM      7  C   UNL d   1      25.962 -12.020  -5.401  0.00  0.00     0.088 A 
ATOM      8  C   UNL d   1      27.232 -11.187  -5.239  0.00  0.00     0.004 A 
ATOM      9  C   UNL d   1      28.251 -11.248  -4.142  0.00  0.00     0.006 C 
ATOM     10  C   UNL d   1      25.894 -10.544  -4.980  0.00  0.00     0.004 A 
ATOM     11  C   UNL d   1      27.695 -11.047  -2.742  0.00  0.00     0.000 C 
ATOM     12  C   UNL d   1      26.727  -9.876  -2.678  0.00  0.00     0.000 C 
ATOM     13  C   UNL d   1      25.527 -10.077  -3.602  0.00  0.00     0.006 C 
ENDBRANCH   4   7
ENDBRANCH   1   3
BRANCH   2  14
ATOM     14  C   UNL d   1      26.110 -16.101  -1.103  0.00  0.00     0.011 A 
ATOM     15  C   UNL d   1      27.043 -16.886  -0.443  0.00  0.00     0.102 A 
ATOM     16  N   UNL d   1      26.371 -17.844   0.286  0.00  0.00    -0.364 N 
ATOM     17  C   UNL d   1      25.021 -17.774   0.030  0.00  0.00     0.043 A 
ATOM     18  H   UNL d   1      26.801 -18.525   0.898  0.00  0.00     0.165 HD
ATOM     19  C   UNL d   1      23.959 -18.575   0.478  0.00  0.00     0.030 A 
ATOM     20  C   UNL d   1      24.833 -16.687  -0.827  0.00  0.00     0.004 A 
ATOM     21  C   UNL d   1      22.677 -18.275   0.001  0.00  0.00     0.002 A 
ATOM     22  C   UNL d   1      22.465 -17.203  -0.862  0.00  0.00     0.001 A 
ATOM     23  C   UNL d   1      23.529 -16.398  -1.270  0.00  0.00     0.014 A 
ENDBRANCH   2  14
TORSDOF 3
ENDMDL
MODEL 9
REMARK VINA RESULT:    -5.978      3.078      5.635
REMARK INTER + INTRA:          -7.628
REMARK INTER:                  -6.873
REMARK INTRA:                  -0.754
REMARK CONF_INDEPENDENT:        0.895
REMARK UNBOUND:                -0.754
REMARK  3 active torsions:
REMARK  status: ('A' for Active; 'I' for Inactive)
REMARK       I    between atoms: C_2  and  N_3 
REMARK    1  A    between atoms: C_15  and  C_2 
REMARK    2  A    between atoms: N_3  and  N_4 
REMARK    3  A    between atoms: C_5  and  C_6 
ROOT
ATOM      1  N   UNL d   1      25.995 -14.194  -1.855  0.00  0.00    -0.184 NA
ATOM      2  C   UNL d   1      26.356 -15.419  -2.091  0.00  0.00     0.152 C 
ENDROOT
BRANCH   1   3
ATOM      3  N   UNL d   1      26.386 -13.206  -2.746  0.00  0.00    -0.247 N 
ATOM      4  C   UNL d   1      26.018 -13.293  -4.097  0.00  0.00     0.242 C 
ATOM      5  O   UNL d   1      25.354 -14.222  -4.549  0.00  0.00    -0.271 OA
ATOM      6  H   UNL d   1      26.942 -12.431  -2.409  0.00  0.00     0.192 HD
BRANCH   4   7
ATOM      7  C   UNL d   1      26.507 -12.153  -4.967  0.00  0.00     0.088 A 
ATOM      8  C   UNL d   1      27.410 -12.261  -6.196  0.00  0.00     0.004 A 
ATOM      9  C   UNL d   1      28.129 -13.467  -6.718  0.00  0.00     0.006 C 
ATOM     10  C   UNL d   1      27.924 -11.559  -4.965  0.00  0.00     0.004 A 
ATOM     11  C   UNL d   1      29.060 -14.137  -5.721  0.00  0.00     0.000 C 
ATOM     12  C   UNL d   1      29.920 -13.126  -4.979  0.00  0.00     0.000 C 
ATOM     13  C   UNL d   1      29.075 -12.129  -4.189  0.00  0.00     0.006 C 
ENDBRANCH   4   7
ENDBRANCH   1   3
BRANCH   2  14
ATOM     14  C   UNL d   1      25.960 -16.475  -1.162  0.00  0.00     0.011 A 
ATOM     15  C   UNL d   1      26.810 -17.315  -0.460  0.00  0.00     0.102 A 
ATOM     16  N   UNL d   1      26.047 -18.139   0.340  0.00  0.00    -0.364 N 
ATOM     17  C   UNL d   1      24.710 -17.933   0.095  0.00  0.00     0.043 A 
ATOM     18  H   UNL d   1      26.409 -18.823   0.993  0.00  0.00     0.165 HD
ATOM     19  C   UNL d   1      23.572 -18.576   0.608  0.00  0.00     0.030 A 
ATOM     20  C   UNL d   1      24.630 -16.891  -0.832  0.00  0.00     0.004 A 
ATOM     21  C   UNL d   1      22.324 -18.164   0.125  0.00  0.00     0.002 A 
ATOM     22  C   UNL d   1      22.218 -17.135  -0.807  0.00  0.00     0.001 A 
ATOM     23  C   UNL d   1      23.360 -16.486  -1.281  0.00  0.00     0.014 A 
ENDBRANCH   2  14
TORSDOF 3
ENDMDL
