MODEL 1
REMARK VINA RESULT:    -5.510      0.000      0.000
REMARK INTER + INTRA:         -11.174
REMARK INTER:                  -7.300
REMARK INTRA:                  -3.873
REMARK CONF_INDEPENDENT:        1.790
REMARK UNBOUND:                -3.873
REMARK  6 active torsions:
REMARK  status: ('A' for Active; 'I' for Inactive)
REMARK    1  A    between atoms: C_2  and  C_3 
REMARK       I    between atoms: C_2  and  N_13 
REMARK    2  A    between atoms: C_3  and  C_4 
REMARK    3  A    between atoms: C_9  and  N_10 
REMARK    4  A    between atoms: N_13  and  N_14 
REMARK       I    between atoms: N_14  and  C_15 
REMARK       I    between atoms: C_15  and  N_17 
REMARK    5  A    between atoms: N_17  and  C_18 
REMARK    6  A    between atoms: C_18  and  C_19 
ROOT
ATOM      1  O   UNL d   1      24.063 -13.892  -4.268  0.00  0.00    -0.272 OA
ATOM      2  C   UNL d   1      25.089 -14.342  -3.759  0.00  0.00     0.240 C 
ATOM      3  N   UNL d   1      26.073 -14.755  -4.615  0.00  0.00    -0.266 N 
ATOM      4  H   UNL d   1      25.870 -14.655  -5.611  0.00  0.00     0.190 HD
ENDROOT
BRANCH   2   5
ATOM      5  C   UNL d   1      25.343 -14.450  -2.259  0.00  0.00     0.145 C 
BRANCH   5   6
ATOM      6  C   UNL d   1      25.341 -15.828  -1.600  0.00  0.00    -0.016 C 
ATOM      7  C   UNL d   1      24.129 -16.473  -1.280  0.00  0.00     0.010 C 
ATOM      8  C   UNL d   1      24.080 -17.621  -0.493  0.00  0.00     0.001 C 
ATOM      9  C   UNL d   1      25.252 -18.260  -0.129  0.00  0.00     0.002 C 
ATOM     10  C   UNL d   1      26.477 -17.722  -0.521  0.00  0.00     0.037 C 
ATOM     11  C   UNL d   1      26.533 -16.512  -1.251  0.00  0.00     0.109 C 
BRANCH  11  12
ATOM     12  N   UNL d   1      27.880 -16.033  -1.651  0.00  0.00    -0.115 N 
ATOM     13  O   UNL d   1      28.571 -16.780  -2.357  0.00  0.00    -0.532 OA
ATOM     14  O   UNL d   1      28.249 -14.908  -1.284  0.00  0.00    -0.532 OA
ENDBRANCH  11  12
ENDBRANCH   5   6
ENDBRANCH   2   5
BRANCH   3  15
ATOM     15  N   UNL d   1      27.368 -15.165  -4.292  0.00  0.00    -0.249 N 
ATOM     16  C   UNL d   1      28.239 -15.373  -5.345  0.00  0.00     0.334 C 
ATOM     17  O   UNL d   1      27.908 -15.200  -6.519  0.00  0.00    -0.246 OA
ATOM     18  N   UNL d   1      29.482 -15.798  -4.964  0.00  0.00    -0.341 N 
ATOM     19  H   UNL d   1      29.712 -15.858  -3.986  0.00  0.00     0.164 HD
ATOM     20  H   UNL d   1      27.641 -15.289  -3.326  0.00  0.00     0.192 HD
BRANCH  18  21
ATOM     21  C   UNL d   1      30.503 -16.087  -5.950  0.00  0.00     0.129 C 
BRANCH  21  22
ATOM     22  C   UNL d   1      31.146 -17.430  -5.747  0.00  0.00     0.003 A 
ATOM     23  C   UNL d   1      30.412 -18.643  -5.219  0.00  0.00     0.007 A 
ATOM     24  C   UNL d   1      30.781 -18.574  -6.670  0.00  0.00     0.007 A 
ENDBRANCH  21  22
ENDBRANCH  18  21
ENDBRANCH   3  15
TORSDOF 6
ENDMDL
MODEL 2
REMARK VINA RESULT:    -5.034      2.207      6.577
REMARK INTER + INTRA:         -10.622
REMARK INTER:                  -6.823
REMARK INTRA:                  -3.799
REMARK CONF_INDEPENDENT:        1.790
REMARK UNBOUND:                -3.799
REMARK  6 active torsions:
REMARK  status: ('A' for Active; 'I' for Inactive)
REMARK    1  A    between atoms: C_2  and  C_3 
REMARK       I    between atoms: C_2  and  N_13 
REMARK    2  A    between atoms: C_3  and  C_4 
REMARK    3  A    between atoms: C_9  and  N_10 
REMARK    4  A    between atoms: N_13  and  N_14 
REMARK       I    between atoms: N_14  and  C_15 
REMARK       I    between atoms: C_15  and  N_17 
REMARK    5  A    between atoms: N_17  and  C_18 
REMARK    6  A    between atoms: C_18  and  C_19 
ROOT
ATOM      1  O   UNL d   1      30.245 -15.339  -3.383  0.00  0.00    -0.272 OA
ATOM      2  C   UNL d   1      29.057 -15.462  -3.680  0.00  0.00     0.240 C 
ATOM      3  N   UNL d   1      28.218 -15.908  -2.695  0.00  0.00    -0.266 N 
ATOM      4  H   UNL d   1      28.653 -16.103  -1.792  0.00  0.00     0.190 HD
ENDROOT
BRANCH   2   5
ATOM      5  C   UNL d   1      28.462 -15.137  -5.046  0.00  0.00     0.145 C 
BRANCH   5   6
ATOM      6  C   UNL d   1      27.808 -13.775  -5.269  0.00  0.00    -0.016 C 
ATOM      7  C   UNL d   1      28.566 -12.674  -5.713  0.00  0.00     0.010 C 
ATOM      8  C   UNL d   1      28.062 -11.375  -5.723  0.00  0.00     0.001 C 
ATOM      9  C   UNL d   1      26.725 -11.151  -5.443  0.00  0.00     0.002 C 
ATOM     10  C   UNL d   1      25.904 -12.227  -5.110  0.00  0.00     0.037 C 
ATOM     11  C   UNL d   1      26.431 -13.536  -5.019  0.00  0.00     0.109 C 
BRANCH  11  12
ATOM     12  N   UNL d   1      25.476 -14.622  -4.690  0.00  0.00    -0.115 N 
ATOM     13  O   UNL d   1      25.542 -15.668  -5.351  0.00  0.00    -0.532 OA
ATOM     14  O   UNL d   1      24.669 -14.451  -3.764  0.00  0.00    -0.532 OA
ENDBRANCH  11  12
ENDBRANCH   5   6
ENDBRANCH   2   5
BRANCH   3  15
ATOM     15  N   UNL d   1      26.825 -15.996  -2.738  0.00  0.00    -0.249 N 
ATOM     16  C   UNL d   1      26.182 -16.283  -1.549  0.00  0.00     0.334 C 
ATOM     17  O   UNL d   1      26.791 -16.447  -0.491  0.00  0.00    -0.246 OA
ATOM     18  N   UNL d   1      24.821 -16.381  -1.661  0.00  0.00    -0.341 N 
ATOM     19  H   UNL d   1      24.376 -16.172  -2.539  0.00  0.00     0.164 HD
ATOM     20  H   UNL d   1      26.327 -15.843  -3.604  0.00  0.00     0.192 HD
BRANCH  18  21
ATOM     21  C   UNL d   1      24.002 -16.703  -0.511  0.00  0.00     0.129 C 
BRANCH  21  22
ATOM     22  C   UNL d   1      22.779 -17.499  -0.872  0.00  0.00     0.003 A 
ATOM     23  C   UNL d   1      22.813 -18.954  -1.285  0.00  0.00     0.007 A 
ATOM     24  C   UNL d   1      22.293 -18.580   0.070  0.00  0.00     0.007 A 
ENDBRANCH  21  22
ENDBRANCH  18  21
ENDBRANCH   3  15
TORSDOF 6
ENDMDL
MODEL 3
REMARK VINA RESULT:    -4.968      2.329      6.664
REMARK INTER + INTRA:         -10.316
REMARK INTER:                  -6.757
REMARK INTRA:                  -3.559
REMARK CONF_INDEPENDENT:        1.790
REMARK UNBOUND:                -3.559
REMARK  6 active torsions:
REMARK  status: ('A' for Active; 'I' for Inactive)
REMARK    1  A    between atoms: C_2  and  C_3 
REMARK       I    between atoms: C_2  and  N_13 
REMARK    2  A    between atoms: C_3  and  C_4 
REMARK    3  A    between atoms: C_9  and  N_10 
REMARK    4  A    between atoms: N_13  and  N_14 
REMARK       I    between atoms: N_14  and  C_15 
REMARK       I    between atoms: C_15  and  N_17 
REMARK    5  A    between atoms: N_17  and  C_18 
REMARK    6  A    between atoms: C_18  and  C_19 
ROOT
ATOM      1  O   UNL d   1      29.510 -17.113  -0.821  0.00  0.00    -0.272 OA
ATOM      2  C   UNL d   1      28.558 -16.523  -1.331  0.00  0.00     0.240 C 
ATOM      3  N   UNL d   1      27.329 -17.112  -1.208  0.00  0.00    -0.266 N 
ATOM      4  H   UNL d   1      27.307 -17.999  -0.701  0.00  0.00     0.190 HD
ENDROOT
BRANCH   2   5
ATOM      5  C   UNL d   1      28.650 -15.188  -2.062  0.00  0.00     0.145 C 
BRANCH   5   6
ATOM      6  C   UNL d   1      28.395 -15.143  -3.567  0.00  0.00    -0.016 C 
ATOM      7  C   UNL d   1      29.401 -15.516  -4.481  0.00  0.00     0.010 C 
ATOM      8  C   UNL d   1      29.287 -15.289  -5.851  0.00  0.00     0.001 C 
ATOM      9  C   UNL d   1      28.093 -14.827  -6.377  0.00  0.00     0.002 C 
ATOM     10  C   UNL d   1      27.027 -14.553  -5.523  0.00  0.00     0.037 C 
ATOM     11  C   UNL d   1      27.166 -14.704  -4.124  0.00  0.00     0.109 C 
BRANCH  11  12
ATOM     12  N   UNL d   1      25.967 -14.419  -3.296  0.00  0.00    -0.115 N 
ATOM     13  O   UNL d   1      26.128 -13.769  -2.255  0.00  0.00    -0.532 OA
ATOM     14  O   UNL d   1      24.861 -14.823  -3.685  0.00  0.00    -0.532 OA
ENDBRANCH  11  12
ENDBRANCH   5   6
ENDBRANCH   2   5
BRANCH   3  15
ATOM     15  N   UNL d   1      26.089 -16.582  -1.570  0.00  0.00    -0.249 N 
ATOM     16  C   UNL d   1      25.005 -16.942  -0.791  0.00  0.00     0.334 C 
ATOM     17  O   UNL d   1      25.110 -17.686   0.184  0.00  0.00    -0.246 OA
ATOM     18  N   UNL d   1      23.816 -16.410  -1.213  0.00  0.00    -0.341 N 
ATOM     19  H   UNL d   1      23.804 -15.757  -1.978  0.00  0.00     0.164 HD
ATOM     20  H   UNL d   1      26.009 -15.957  -2.361  0.00  0.00     0.192 HD
BRANCH  18  21
ATOM     21  C   UNL d   1      22.580 -16.713  -0.520  0.00  0.00     0.129 C 
BRANCH  21  22
ATOM     22  C   UNL d   1      22.022 -18.059  -0.887  0.00  0.00     0.003 A 
ATOM     23  C   UNL d   1      22.689 -19.371  -0.538  0.00  0.00     0.007 A 
ATOM     24  C   UNL d   1      21.455 -18.947   0.200  0.00  0.00     0.007 A 
ENDBRANCH  21  22
ENDBRANCH  18  21
ENDBRANCH   3  15
TORSDOF 6
ENDMDL
MODEL 4
REMARK VINA RESULT:    -4.829      2.663      6.263
REMARK INTER + INTRA:         -10.486
REMARK INTER:                  -6.619
REMARK INTRA:                  -3.868
REMARK CONF_INDEPENDENT:        1.790
REMARK UNBOUND:                -3.868
REMARK  6 active torsions:
REMARK  status: ('A' for Active; 'I' for Inactive)
REMARK    1  A    between atoms: C_2  and  C_3 
REMARK       I    between atoms: C_2  and  N_13 
REMARK    2  A    between atoms: C_3  and  C_4 
REMARK    3  A    between atoms: C_9  and  N_10 
REMARK    4  A    between atoms: N_13  and  N_14 
REMARK       I    between atoms: N_14  and  C_15 
REMARK       I    between atoms: C_15  and  N_17 
REMARK    5  A    between atoms: N_17  and  C_18 
REMARK    6  A    between atoms: C_18  and  C_19 
ROOT
ATOM      1  O   UNL d   1      27.571 -11.253  -1.196  0.00  0.00    -0.272 OA
ATOM      2  C   UNL d   1      27.007 -12.166  -1.798  0.00  0.00     0.240 C 
ATOM      3  N   UNL d   1      26.761 -13.312  -1.090  0.00  0.00    -0.266 N 
ATOM      4  H   UNL d   1      27.070 -13.311  -0.117  0.00  0.00     0.190 HD
ENDROOT
BRANCH   2   5
ATOM      5  C   UNL d   1      26.551 -12.102  -3.252  0.00  0.00     0.145 C 
BRANCH   5   6
ATOM      6  C   UNL d   1      27.268 -12.954  -4.296  0.00  0.00    -0.016 C 
ATOM      7  C   UNL d   1      28.523 -12.567  -4.806  0.00  0.00     0.010 C 
ATOM      8  C   UNL d   1      29.109 -13.193  -5.904  0.00  0.00     0.001 C 
ATOM      9  C   UNL d   1      28.536 -14.335  -6.434  0.00  0.00     0.002 C 
ATOM     10  C   UNL d   1      27.351 -14.825  -5.888  0.00  0.00     0.037 C 
ATOM     11  C   UNL d   1      26.711 -14.146  -4.827  0.00  0.00     0.109 C 
BRANCH  11  12
ATOM     12  N   UNL d   1      25.471 -14.760  -4.289  0.00  0.00    -0.115 N 
ATOM     13  O   UNL d   1      25.531 -15.935  -3.902  0.00  0.00    -0.532 OA
ATOM     14  O   UNL d   1      24.439 -14.075  -4.231  0.00  0.00    -0.532 OA
ENDBRANCH  11  12
ENDBRANCH   5   6
ENDBRANCH   2   5
BRANCH   3  15
ATOM     15  N   UNL d   1      26.019 -14.422  -1.498  0.00  0.00    -0.249 N 
ATOM     16  C   UNL d   1      26.009 -15.512  -0.647  0.00  0.00     0.334 C 
ATOM     17  O   UNL d   1      26.612 -15.517   0.427  0.00  0.00    -0.246 OA
ATOM     18  N   UNL d   1      25.286 -16.576  -1.114  0.00  0.00    -0.341 N 
ATOM     19  H   UNL d   1      24.762 -16.488  -1.969  0.00  0.00     0.164 HD
ATOM     20  H   UNL d   1      25.511 -14.408  -2.372  0.00  0.00     0.192 HD
BRANCH  18  21
ATOM     21  C   UNL d   1      25.198 -17.806  -0.354  0.00  0.00     0.129 C 
BRANCH  21  22
ATOM     22  C   UNL d   1      23.782 -18.193  -0.034  0.00  0.00     0.003 A 
ATOM     23  C   UNL d   1      22.569 -17.531  -0.650  0.00  0.00     0.007 A 
ATOM     24  C   UNL d   1      22.957 -18.914  -1.079  0.00  0.00     0.007 A 
ENDBRANCH  21  22
ENDBRANCH  18  21
ENDBRANCH   3  15
TORSDOF 6
ENDMDL
MODEL 5
REMARK VINA RESULT:    -4.729      1.367      5.886
REMARK INTER + INTRA:         -10.356
REMARK INTER:                  -6.519
REMARK INTRA:                  -3.837
REMARK CONF_INDEPENDENT:        1.790
REMARK UNBOUND:                -3.837
REMARK  6 active torsions:
REMARK  status: ('A' for Active; 'I' for Inactive)
REMARK    1  A    between atoms: C_2  and  C_3 
REMARK       I    between atoms: C_2  and  N_13 
REMARK    2  A    between atoms: C_3  and  C_4 
REMARK    3  A    between atoms: C_9  and  N_10 
REMARK    4  A    between atoms: N_13  and  N_14 
REMARK       I    between atoms: N_14  and  C_15 
REMARK       I    between atoms: C_15  and  N_17 
REMARK    5  A    between atoms: N_17  and  C_18 
REMARK    6  A    between atoms: C_18  and  C_19 
ROOT
ATOM      1  O   UNL d   1      28.528 -13.991  -7.678  0.00  0.00    -0.272 OA
ATOM      2  C   UNL d   1      28.680 -14.422  -6.535  0.00  0.00     0.240 C 
ATOM      3  N   UNL d   1      27.560 -14.510  -5.754  0.00  0.00    -0.266 N 
ATOM      4  H   UNL d   1      26.687 -14.206  -6.190  0.00  0.00     0.190 HD
ENDROOT
BRANCH   2   5
ATOM      5  C   UNL d   1      30.011 -14.878  -5.945  0.00  0.00     0.145 C 
BRANCH   5   6
ATOM      6  C   UNL d   1      30.315 -16.372  -5.858  0.00  0.00    -0.016 C 
ATOM      7  C   UNL d   1      30.824 -17.070  -6.971  0.00  0.00     0.010 C 
ATOM      8  C   UNL d   1      30.913 -18.460  -7.004  0.00  0.00     0.001 C 
ATOM      9  C   UNL d   1      30.647 -19.196  -5.863  0.00  0.00     0.002 C 
ATOM     10  C   UNL d   1      30.250 -18.539  -4.699  0.00  0.00     0.037 C 
ATOM     11  C   UNL d   1      30.079 -17.136  -4.686  0.00  0.00     0.109 C 
BRANCH  11  12
ATOM     12  N   UNL d   1      29.685 -16.520  -3.394  0.00  0.00    -0.115 N 
ATOM     13  O   UNL d   1      30.238 -15.461  -3.068  0.00  0.00    -0.532 OA
ATOM     14  O   UNL d   1      28.814 -17.075  -2.707  0.00  0.00    -0.532 OA
ENDBRANCH  11  12
ENDBRANCH   5   6
ENDBRANCH   2   5
BRANCH   3  15
ATOM     15  N   UNL d   1      27.445 -15.090  -4.489  0.00  0.00    -0.249 N 
ATOM     16  C   UNL d   1      26.170 -15.204  -3.969  0.00  0.00     0.334 C 
ATOM     17  O   UNL d   1      25.170 -14.826  -4.581  0.00  0.00    -0.246 OA
ATOM     18  N   UNL d   1      26.127 -15.757  -2.717  0.00  0.00    -0.341 N 
ATOM     19  H   UNL d   1      26.972 -16.105  -2.295  0.00  0.00     0.164 HD
ATOM     20  H   UNL d   1      28.266 -15.415  -3.997  0.00  0.00     0.192 HD
BRANCH  18  21
ATOM     21  C   UNL d   1      24.868 -15.921  -2.020  0.00  0.00     0.129 C 
BRANCH  21  22
ATOM     22  C   UNL d   1      24.643 -17.330  -1.549  0.00  0.00     0.003 A 
ATOM     23  C   UNL d   1      25.021 -17.827  -0.171  0.00  0.00     0.007 A 
ATOM     24  C   UNL d   1      23.578 -17.601  -0.506  0.00  0.00     0.007 A 
ENDBRANCH  21  22
ENDBRANCH  18  21
ENDBRANCH   3  15
TORSDOF 6
ENDMDL
MODEL 6
REMARK VINA RESULT:    -4.504      2.966      5.418
REMARK INTER + INTRA:         -10.096
REMARK INTER:                  -6.294
REMARK INTRA:                  -3.802
REMARK CONF_INDEPENDENT:        1.790
REMARK UNBOUND:                -3.802
REMARK  6 active torsions:
REMARK  status: ('A' for Active; 'I' for Inactive)
REMARK    1  A    between atoms: C_2  and  C_3 
REMARK       I    between atoms: C_2  and  N_13 
REMARK    2  A    between atoms: C_3  and  C_4 
REMARK    3  A    between atoms: C_9  and  N_10 
REMARK    4  A    between atoms: N_13  and  N_14 
REMARK       I    between atoms: N_14  and  C_15 
REMARK       I    between atoms: C_15  and  N_17 
REMARK    5  A    between atoms: N_17  and  C_18 
REMARK    6  A    between atoms: C_18  and  C_19 
ROOT
ATOM      1  O   UNL d   1      29.551 -15.232  -0.652  0.00  0.00    -0.272 OA
ATOM      2  C   UNL d   1      28.538 -15.090  -1.336  0.00  0.00     0.240 C 
ATOM      3  N   UNL d   1      28.106 -13.808  -1.542  0.00  0.00    -0.266 N 
ATOM      4  H   UNL d   1      28.665 -13.073  -1.104  0.00  0.00     0.190 HD
ENDROOT
BRANCH   2   5
ATOM      5  C   UNL d   1      27.754 -16.229  -1.980  0.00  0.00     0.145 C 
BRANCH   5   6
ATOM      6  C   UNL d   1      26.372 -16.584  -1.436  0.00  0.00    -0.016 C 
ATOM      7  C   UNL d   1      26.234 -17.352  -0.263  0.00  0.00     0.010 C 
ATOM      8  C   UNL d   1      25.010 -17.876   0.147  0.00  0.00     0.001 C 
ATOM      9  C   UNL d   1      23.848 -17.516  -0.513  0.00  0.00     0.002 C 
ATOM     10  C   UNL d   1      23.921 -16.662  -1.613  0.00  0.00     0.037 C 
ATOM     11  C   UNL d   1      25.170 -16.194  -2.082  0.00  0.00     0.109 C 
BRANCH  11  12
ATOM     12  N   UNL d   1      25.147 -15.265  -3.239  0.00  0.00    -0.115 N 
ATOM     13  O   UNL d   1      25.813 -15.571  -4.237  0.00  0.00    -0.532 OA
ATOM     14  O   UNL d   1      24.454 -14.239  -3.169  0.00  0.00    -0.532 OA
ENDBRANCH  11  12
ENDBRANCH   5   6
ENDBRANCH   2   5
BRANCH   3  15
ATOM     15  N   UNL d   1      27.080 -13.378  -2.386  0.00  0.00    -0.249 N 
ATOM     16  C   UNL d   1      26.900 -12.013  -2.504  0.00  0.00     0.334 C 
ATOM     17  O   UNL d   1      27.607 -11.199  -1.909  0.00  0.00    -0.246 OA
ATOM     18  N   UNL d   1      25.864 -11.657  -3.324  0.00  0.00    -0.341 N 
ATOM     19  H   UNL d   1      25.363 -12.367  -3.834  0.00  0.00     0.164 HD
ATOM     20  H   UNL d   1      26.513 -14.049  -2.887  0.00  0.00     0.192 HD
BRANCH  18  21
ATOM     21  C   UNL d   1      25.526 -10.265  -3.534  0.00  0.00     0.129 C 
BRANCH  21  22
ATOM     22  C   UNL d   1      25.930  -9.765  -4.892  0.00  0.00     0.003 A 
ATOM     23  C   UNL d   1      25.572 -10.462  -6.186  0.00  0.00     0.007 A 
ATOM     24  C   UNL d   1      24.875  -9.189  -5.814  0.00  0.00     0.007 A 
ENDBRANCH  21  22
ENDBRANCH  18  21
ENDBRANCH   3  15
TORSDOF 6
ENDMDL
MODEL 7
REMARK VINA RESULT:    -4.499      2.167      3.746
REMARK INTER + INTRA:         -10.083
REMARK INTER:                  -6.289
REMARK INTRA:                  -3.794
REMARK CONF_INDEPENDENT:        1.790
REMARK UNBOUND:                -3.794
REMARK  6 active torsions:
REMARK  status: ('A' for Active; 'I' for Inactive)
REMARK    1  A    between atoms: C_2  and  C_3 
REMARK       I    between atoms: C_2  and  N_13 
REMARK    2  A    between atoms: C_3  and  C_4 
REMARK    3  A    between atoms: C_9  and  N_10 
REMARK    4  A    between atoms: N_13  and  N_14 
REMARK       I    between atoms: N_14  and  C_15 
REMARK       I    between atoms: C_15  and  N_17 
REMARK    5  A    between atoms: N_17  and  C_18 
REMARK    6  A    between atoms: C_18  and  C_19 
ROOT
ATOM      1  O   UNL d   1      29.428 -17.905  -0.536  0.00  0.00    -0.272 OA
ATOM      2  C   UNL d   1      28.701 -17.038  -1.022  0.00  0.00     0.240 C 
ATOM      3  N   UNL d   1      28.936 -16.695  -2.325  0.00  0.00    -0.266 N 
ATOM      4  H   UNL d   1      29.702 -17.189  -2.786  0.00  0.00     0.190 HD
ENDROOT
BRANCH   2   5
ATOM      5  C   UNL d   1      27.558 -16.346  -0.286  0.00  0.00     0.145 C 
BRANCH   5   6
ATOM      6  C   UNL d   1      26.135 -16.870  -0.458  0.00  0.00    -0.016 C 
ATOM      7  C   UNL d   1      25.651 -17.924   0.344  0.00  0.00     0.010 C 
ATOM      8  C   UNL d   1      24.446 -18.571   0.079  0.00  0.00     0.001 C 
ATOM      9  C   UNL d   1      23.600 -18.083  -0.901  0.00  0.00     0.002 C 
ATOM     10  C   UNL d   1      23.984 -16.969  -1.645  0.00  0.00     0.037 C 
ATOM     11  C   UNL d   1      25.242 -16.359  -1.435  0.00  0.00     0.109 C 
BRANCH  11  12
ATOM     12  N   UNL d   1      25.550 -15.159  -2.253  0.00  0.00    -0.115 N 
ATOM     13  O   UNL d   1      25.975 -14.155  -1.664  0.00  0.00    -0.532 OA
ATOM     14  O   UNL d   1      25.390 -15.213  -3.481  0.00  0.00    -0.532 OA
ENDBRANCH  11  12
ENDBRANCH   5   6
ENDBRANCH   2   5
BRANCH   3  15
ATOM     15  N   UNL d   1      28.172 -15.854  -3.136  0.00  0.00    -0.249 N 
ATOM     16  C   UNL d   1      28.600 -15.686  -4.440  0.00  0.00     0.334 C 
ATOM     17  O   UNL d   1      29.601 -16.250  -4.884  0.00  0.00    -0.246 OA
ATOM     18  N   UNL d   1      27.824 -14.831  -5.175  0.00  0.00    -0.341 N 
ATOM     19  H   UNL d   1      26.982 -14.451  -4.776  0.00  0.00     0.164 HD
ATOM     20  H   UNL d   1      27.341 -15.406  -2.774  0.00  0.00     0.192 HD
BRANCH  18  21
ATOM     21  C   UNL d   1      28.154 -14.526  -6.552  0.00  0.00     0.129 C 
BRANCH  21  22
ATOM     22  C   UNL d   1      29.078 -13.349  -6.683  0.00  0.00     0.003 A 
ATOM     23  C   UNL d   1      30.245 -13.297  -7.645  0.00  0.00     0.007 A 
ATOM     24  C   UNL d   1      29.014 -12.491  -7.929  0.00  0.00     0.007 A 
ENDBRANCH  21  22
ENDBRANCH  18  21
ENDBRANCH   3  15
TORSDOF 6
ENDMDL
MODEL 8
REMARK VINA RESULT:    -4.393      3.583      5.701
REMARK INTER + INTRA:         -10.099
REMARK INTER:                  -6.182
REMARK INTRA:                  -3.916
REMARK CONF_INDEPENDENT:        1.790
REMARK UNBOUND:                -3.916
REMARK  6 active torsions:
REMARK  status: ('A' for Active; 'I' for Inactive)
REMARK    1  A    between atoms: C_2  and  C_3 
REMARK       I    between atoms: C_2  and  N_13 
REMARK    2  A    between atoms: C_3  and  C_4 
REMARK    3  A    between atoms: C_9  and  N_10 
REMARK    4  A    between atoms: N_13  and  N_14 
REMARK       I    between atoms: N_14  and  C_15 
REMARK       I    between atoms: C_15  and  N_17 
REMARK    5  A    between atoms: N_17  and  C_18 
REMARK    6  A    between atoms: C_18  and  C_19 
ROOT
ATOM      1  O   UNL d   1      24.600 -14.073  -3.305  0.00  0.00    -0.272 OA
ATOM      2  C   UNL d   1      25.374 -14.674  -2.562  0.00  0.00     0.240 C 
ATOM      3  N   UNL d   1      26.020 -13.931  -1.612  0.00  0.00    -0.266 N 
ATOM      4  H   UNL d   1      25.803 -12.933  -1.602  0.00  0.00     0.190 HD
ENDROOT
BRANCH   2   5
ATOM      5  C   UNL d   1      25.643 -16.175  -2.614  0.00  0.00     0.145 C 
BRANCH   5   6
ATOM      6  C   UNL d   1      24.979 -17.087  -1.585  0.00  0.00    -0.016 C 
ATOM      7  C   UNL d   1      23.673 -17.576  -1.791  0.00  0.00     0.010 C 
ATOM      8  C   UNL d   1      22.954 -18.228  -0.792  0.00  0.00     0.001 C 
ATOM      9  C   UNL d   1      23.573 -18.560   0.401  0.00  0.00     0.002 C 
ATOM     10  C   UNL d   1      24.903 -18.199   0.606  0.00  0.00     0.037 C 
ATOM     11  C   UNL d   1      25.612 -17.465  -0.373  0.00  0.00     0.109 C 
BRANCH  11  12
ATOM     12  N   UNL d   1      27.033 -17.154  -0.079  0.00  0.00    -0.115 N 
ATOM     13  O   UNL d   1      27.863 -17.352  -0.977  0.00  0.00    -0.532 OA
ATOM     14  O   UNL d   1      27.328 -16.694   1.034  0.00  0.00    -0.532 OA
ENDBRANCH  11  12
ENDBRANCH   5   6
ENDBRANCH   2   5
BRANCH   3  15
ATOM     15  N   UNL d   1      26.829 -14.394  -0.572  0.00  0.00    -0.249 N 
ATOM     16  C   UNL d   1      27.056 -13.522   0.476  0.00  0.00     0.334 C 
ATOM     17  O   UNL d   1      26.569 -12.392   0.513  0.00  0.00    -0.246 OA
ATOM     18  N   UNL d   1      27.877 -14.025   1.450  0.00  0.00    -0.341 N 
ATOM     19  H   UNL d   1      28.191 -14.980   1.395  0.00  0.00     0.164 HD
ATOM     20  H   UNL d   1      27.213 -15.329  -0.597  0.00  0.00     0.192 HD
BRANCH  18  21
ATOM     21  C   UNL d   1      28.235 -13.227   2.604  0.00  0.00     0.129 C 
BRANCH  21  22
ATOM     22  C   UNL d   1      27.757 -13.824   3.897  0.00  0.00     0.003 A 
ATOM     23  C   UNL d   1      28.156 -15.198   4.389  0.00  0.00     0.007 A 
ATOM     24  C   UNL d   1      28.729 -13.980   5.047  0.00  0.00     0.007 A 
ENDBRANCH  21  22
ENDBRANCH  18  21
ENDBRANCH   3  15
TORSDOF 6
ENDMDL
