MODEL 1
REMARK VINA RESULT:   -10.570      0.000      0.000
REMARK INTER + INTRA:         -15.229
REMARK INTER:                 -13.254
REMARK INTRA:                  -1.974
REMARK CONF_INDEPENDENT:        2.685
REMARK UNBOUND:                -1.974
REMARK  9 active torsions:
REMARK  status: ('A' for Active; 'I' for Inactive)
REMARK    1  A    between atoms: C_3  and  C_2 
REMARK    2  A    between atoms: C_3  and  C_5 
REMARK    3  A    between atoms: C_8  and  N_9 
REMARK       I    between atoms: N_9  and  C_10 
REMARK    4  A    between atoms: C_10  and  C_12 
REMARK    5  A    between atoms: C_12  and  S_13 
REMARK    6  A    between atoms: S_13  and  C_14 
REMARK    7  A    between atoms: C_17  and  C_18 
REMARK    8  A    between atoms: C_20  and  C_21 
REMARK    9  A    between atoms: N_30  and  N_31 
ROOT
ATOM      1  C   UNL d   1      27.961 -14.391   0.645  0.00  0.00     0.206 A 
ATOM      2  N   UNL d   1      26.881 -13.781   1.074  0.00  0.00    -0.121 NA
ATOM      3  N   UNL d   1      26.986 -13.672   2.450  0.00  0.00    -0.125 NA
ATOM      4  C   UNL d   1      28.154 -14.174   2.812  0.00  0.00     0.199 A 
ATOM      5  N   UNL d   1      28.811 -14.639   1.693  0.00  0.00    -0.234 N 
ENDROOT
BRANCH   1   6
ATOM      6  S   UNL d   1      28.182 -15.069  -0.916  0.00  0.00    -0.080 SA
BRANCH   6   7
ATOM      7  C   UNL d   1      28.498 -16.862  -0.647  0.00  0.00     0.185 C 
BRANCH   7   8
ATOM      8  C   UNL d   1      27.135 -17.542  -0.453  0.00  0.00     0.231 C 
ATOM      9  N   UNL d   1      26.005 -16.856  -0.889  0.00  0.00    -0.327 N 
ATOM     10  H   UNL d   1      26.102 -15.918  -1.264  0.00  0.00     0.169 HD
ATOM     11  O   UNL d   1      27.085 -18.664   0.072  0.00  0.00    -0.272 OA
BRANCH   9  12
ATOM     12  C   UNL d   1      24.672 -17.338  -0.726  0.00  0.00     0.034 A 
ATOM     13  C   UNL d   1      24.442 -18.687  -0.463  0.00  0.00     0.030 A 
ATOM     14  C   UNL d   1      23.129 -19.190  -0.427  0.00  0.00     0.010 A 
ATOM     15  C   UNL d   1      22.010 -18.353  -0.569  0.00  0.00    -0.054 A 
ATOM     16  C   UNL d   1      22.252 -16.999  -0.779  0.00  0.00     0.010 A 
ATOM     17  C   UNL d   1      23.552 -16.512  -0.855  0.00  0.00     0.030 A 
BRANCH  15  18
ATOM     18  C   UNL d   1      20.559 -18.800  -0.449  0.00  0.00     0.014 C 
ATOM     19  C   UNL d   1      20.138 -19.700  -1.619  0.00  0.00     0.015 C 
BRANCH  18  20
ATOM     20  C   UNL d   1      20.203 -19.482   0.885  0.00  0.00     0.004 C 
ATOM     21  C   UNL d   1      19.696 -20.896   0.647  0.00  0.00     0.006 C 
ENDBRANCH  18  20
ENDBRANCH  15  18
ENDBRANCH   9  12
ENDBRANCH   7   8
ENDBRANCH   6   7
ENDBRANCH   1   6
BRANCH   5  22
ATOM     22  N   UNL d   1      30.149 -15.200   1.628  0.00  0.00    -0.239 NA
ATOM     23  H   UNL d   1      30.540 -15.386   2.553  0.00  0.00     0.143 HD
ATOM     24  H   UNL d   1      30.169 -16.080   1.111  0.00  0.00     0.143 HD
ENDBRANCH   5  22
BRANCH   4  25
ATOM     25  C   UNL d   1      28.719 -14.167   4.190  0.00  0.00     0.128 A 
ATOM     26  C   UNL d   1      28.124 -13.504   5.285  0.00  0.00     0.069 A 
ATOM     27  C   UNL d   1      28.959 -13.721   6.359  0.00  0.00     0.062 A 
ATOM     28  N   UNL d   1      29.987 -14.480   5.855  0.00  0.00    -0.277 N 
ATOM     29  N   UNL d   1      29.846 -14.792   4.552  0.00  0.00    -0.171 NA
ATOM     30  H   UNL d   1      30.782 -14.860   6.360  0.00  0.00     0.189 HD
BRANCH  27  31
ATOM     31  C   UNL d   1      28.788 -13.422   7.771  0.00  0.00    -0.008 A 
ATOM     32  C   UNL d   1      28.515 -12.126   8.224  0.00  0.00     0.015 A 
ATOM     33  C   UNL d   1      28.486 -11.857   9.597  0.00  0.00     0.024 A 
ATOM     34  C   UNL d   1      28.653 -12.894  10.515  0.00  0.00     0.034 A 
ATOM     35 CL   UNL d   1      28.539 -12.574  12.202  0.00  0.00    -0.084 Cl
ATOM     36  C   UNL d   1      28.883 -14.193  10.074  0.00  0.00     0.024 A 
ATOM     37  C   UNL d   1      28.949 -14.455   8.705  0.00  0.00     0.015 A 
ENDBRANCH  27  31
ENDBRANCH   4  25
TORSDOF 9
ENDMDL
MODEL 2
REMARK VINA RESULT:   -10.421      1.206      1.590
REMARK INTER + INTRA:         -15.760
REMARK INTER:                 -13.106
REMARK INTRA:                  -2.654
REMARK CONF_INDEPENDENT:        2.685
REMARK UNBOUND:                -2.654
REMARK  9 active torsions:
REMARK  status: ('A' for Active; 'I' for Inactive)
REMARK    1  A    between atoms: C_3  and  C_2 
REMARK    2  A    between atoms: C_3  and  C_5 
REMARK    3  A    between atoms: C_8  and  N_9 
REMARK       I    between atoms: N_9  and  C_10 
REMARK    4  A    between atoms: C_10  and  C_12 
REMARK    5  A    between atoms: C_12  and  S_13 
REMARK    6  A    between atoms: S_13  and  C_14 
REMARK    7  A    between atoms: C_17  and  C_18 
REMARK    8  A    between atoms: C_20  and  C_21 
REMARK    9  A    between atoms: N_30  and  N_31 
ROOT
ATOM      1  C   UNL d   1      28.219 -14.666   0.475  0.00  0.00     0.206 A 
ATOM      2  N   UNL d   1      27.081 -14.139   0.862  0.00  0.00    -0.121 NA
ATOM      3  N   UNL d   1      27.151 -13.963   2.233  0.00  0.00    -0.125 NA
ATOM      4  C   UNL d   1      28.353 -14.340   2.634  0.00  0.00     0.199 A 
ATOM      5  N   UNL d   1      29.070 -14.791   1.546  0.00  0.00    -0.234 N 
ENDROOT
BRANCH   1   6
ATOM      6  S   UNL d   1      28.529 -15.387  -1.051  0.00  0.00    -0.080 SA
BRANCH   6   7
ATOM      7  C   UNL d   1      27.333 -14.621  -2.222  0.00  0.00     0.185 C 
BRANCH   7   8
ATOM      8  C   UNL d   1      26.043 -15.451  -2.165  0.00  0.00     0.231 C 
ATOM      9  N   UNL d   1      25.689 -16.008  -0.940  0.00  0.00    -0.327 N 
ATOM     10  H   UNL d   1      26.309 -15.903  -0.144  0.00  0.00     0.169 HD
ATOM     11  O   UNL d   1      25.365 -15.593  -3.195  0.00  0.00    -0.272 OA
BRANCH   9  12
ATOM     12  C   UNL d   1      24.549 -16.846  -0.748  0.00  0.00     0.034 A 
ATOM     13  C   UNL d   1      23.270 -16.292  -0.721  0.00  0.00     0.030 A 
ATOM     14  C   UNL d   1      22.156 -17.093  -0.407  0.00  0.00     0.010 A 
ATOM     15  C   UNL d   1      22.274 -18.476  -0.193  0.00  0.00    -0.054 A 
ATOM     16  C   UNL d   1      23.550 -19.025  -0.275  0.00  0.00     0.010 A 
ATOM     17  C   UNL d   1      24.654 -18.225  -0.545  0.00  0.00     0.030 A 
BRANCH  15  18
ATOM     18  C   UNL d   1      21.111 -19.427   0.057  0.00  0.00     0.014 C 
ATOM     19  C   UNL d   1      20.589 -19.326   1.497  0.00  0.00     0.015 C 
BRANCH  18  20
ATOM     20  C   UNL d   1      19.940 -19.288  -0.932  0.00  0.00     0.004 C 
ATOM     21  C   UNL d   1      18.778 -20.176  -0.517  0.00  0.00     0.006 C 
ENDBRANCH  18  20
ENDBRANCH  15  18
ENDBRANCH   9  12
ENDBRANCH   7   8
ENDBRANCH   6   7
ENDBRANCH   1   6
BRANCH   5  22
ATOM     22  N   UNL d   1      30.453 -15.230   1.524  0.00  0.00    -0.239 NA
ATOM     23  H   UNL d   1      30.821 -15.408   2.460  0.00  0.00     0.143 HD
ATOM     24  H   UNL d   1      30.573 -16.089   0.987  0.00  0.00     0.143 HD
ENDBRANCH   5  22
BRANCH   4  25
ATOM     25  C   UNL d   1      28.890 -14.223   4.017  0.00  0.00     0.128 A 
ATOM     26  C   UNL d   1      28.184 -13.640   5.093  0.00  0.00     0.069 A 
ATOM     27  C   UNL d   1      29.027 -13.709   6.180  0.00  0.00     0.062 A 
ATOM     28  N   UNL d   1      30.166 -14.310   5.704  0.00  0.00    -0.277 N 
ATOM     29  N   UNL d   1      30.094 -14.662   4.405  0.00  0.00    -0.171 NA
ATOM     30  H   UNL d   1      31.002 -14.555   6.225  0.00  0.00     0.189 HD
BRANCH  27  31
ATOM     31  C   UNL d   1      28.792 -13.415   7.584  0.00  0.00    -0.008 A 
ATOM     32  C   UNL d   1      28.501 -12.121   8.030  0.00  0.00     0.015 A 
ATOM     33  C   UNL d   1      28.409 -11.858   9.402  0.00  0.00     0.024 A 
ATOM     34  C   UNL d   1      28.530 -12.899  10.321  0.00  0.00     0.034 A 
ATOM     35 CL   UNL d   1      28.340 -12.586  12.002  0.00  0.00    -0.084 Cl
ATOM     36  C   UNL d   1      28.778 -14.197   9.886  0.00  0.00     0.024 A 
ATOM     37  C   UNL d   1      28.906 -14.453   8.520  0.00  0.00     0.015 A 
ENDBRANCH  27  31
ENDBRANCH   4  25
TORSDOF 9
ENDMDL
MODEL 3
REMARK VINA RESULT:    -9.365      6.677      9.740
REMARK INTER + INTRA:         -14.407
REMARK INTER:                 -12.050
REMARK INTRA:                  -2.357
REMARK CONF_INDEPENDENT:        2.685
REMARK UNBOUND:                -2.357
REMARK  9 active torsions:
REMARK  status: ('A' for Active; 'I' for Inactive)
REMARK    1  A    between atoms: C_3  and  C_2 
REMARK    2  A    between atoms: C_3  and  C_5 
REMARK    3  A    between atoms: C_8  and  N_9 
REMARK       I    between atoms: N_9  and  C_10 
REMARK    4  A    between atoms: C_10  and  C_12 
REMARK    5  A    between atoms: C_12  and  S_13 
REMARK    6  A    between atoms: S_13  and  C_14 
REMARK    7  A    between atoms: C_17  and  C_18 
REMARK    8  A    between atoms: C_20  and  C_21 
REMARK    9  A    between atoms: N_30  and  N_31 
ROOT
ATOM      1  C   UNL d   1      26.397 -13.666  -2.278  0.00  0.00     0.206 A 
ATOM      2  N   UNL d   1      27.223 -13.868  -1.278  0.00  0.00    -0.121 NA
ATOM      3  N   UNL d   1      26.749 -14.952  -0.561  0.00  0.00    -0.125 NA
ATOM      4  C   UNL d   1      25.674 -15.412  -1.177  0.00  0.00     0.199 A 
ATOM      5  N   UNL d   1      25.415 -14.626  -2.279  0.00  0.00    -0.234 N 
ENDROOT
BRANCH   1   6
ATOM      6  S   UNL d   1      26.332 -12.263  -3.264  0.00  0.00    -0.080 SA
BRANCH   6   7
ATOM      7  C   UNL d   1      26.090 -12.868  -4.985  0.00  0.00     0.185 C 
BRANCH   7   8
ATOM      8  C   UNL d   1      26.797 -14.226  -5.096  0.00  0.00     0.231 C 
ATOM      9  N   UNL d   1      28.119 -14.300  -4.668  0.00  0.00    -0.327 N 
ATOM     10  H   UNL d   1      28.592 -13.460  -4.354  0.00  0.00     0.169 HD
ATOM     11  O   UNL d   1      26.177 -15.200  -5.551  0.00  0.00    -0.272 OA
BRANCH   9  12
ATOM     12  C   UNL d   1      28.919 -15.479  -4.760  0.00  0.00     0.034 A 
ATOM     13  C   UNL d   1      29.264 -16.183  -3.608  0.00  0.00     0.030 A 
ATOM     14  C   UNL d   1      30.154 -17.271  -3.679  0.00  0.00     0.010 A 
ATOM     15  C   UNL d   1      30.657 -17.737  -4.905  0.00  0.00    -0.054 A 
ATOM     16  C   UNL d   1      30.262 -17.058  -6.053  0.00  0.00     0.010 A 
ATOM     17  C   UNL d   1      29.416 -15.959  -5.975  0.00  0.00     0.030 A 
BRANCH  15  18
ATOM     18  C   UNL d   1      31.546 -18.961  -5.078  0.00  0.00     0.014 C 
ATOM     19  C   UNL d   1      31.089 -20.131  -4.196  0.00  0.00     0.015 C 
BRANCH  18  20
ATOM     20  C   UNL d   1      31.709 -19.440  -6.532  0.00  0.00     0.004 C 
ATOM     21  C   UNL d   1      30.403 -20.019  -7.056  0.00  0.00     0.006 C 
ENDBRANCH  18  20
ENDBRANCH  15  18
ENDBRANCH   9  12
ENDBRANCH   7   8
ENDBRANCH   6   7
ENDBRANCH   1   6
BRANCH   5  22
ATOM     22  N   UNL d   1      24.374 -14.818  -3.273  0.00  0.00    -0.239 NA
ATOM     23  H   UNL d   1      23.495 -14.370  -3.008  0.00  0.00     0.143 HD
ATOM     24  H   UNL d   1      24.640 -14.441  -4.183  0.00  0.00     0.143 HD
ENDBRANCH   5  22
BRANCH   4  25
ATOM     25  C   UNL d   1      24.906 -16.631  -0.802  0.00  0.00     0.128 A 
ATOM     26  C   UNL d   1      23.504 -16.662  -0.634  0.00  0.00     0.069 A 
ATOM     27  C   UNL d   1      23.194 -17.955  -0.272  0.00  0.00     0.062 A 
ATOM     28  N   UNL d   1      24.401 -18.608  -0.239  0.00  0.00    -0.277 N 
ATOM     29  N   UNL d   1      25.449 -17.837  -0.589  0.00  0.00    -0.171 NA
ATOM     30  H   UNL d   1      24.569 -19.589  -0.038  0.00  0.00     0.189 HD
BRANCH  27  31
ATOM     31  C   UNL d   1      21.908 -18.617  -0.124  0.00  0.00    -0.008 A 
ATOM     32  C   UNL d   1      21.388 -18.947   1.132  0.00  0.00     0.015 A 
ATOM     33  C   UNL d   1      20.211 -19.698   1.227  0.00  0.00     0.024 A 
ATOM     34  C   UNL d   1      19.515 -20.051   0.071  0.00  0.00     0.034 A 
ATOM     35 CL   UNL d   1      18.027 -20.908   0.193  0.00  0.00    -0.084 Cl
ATOM     36  C   UNL d   1      20.002 -19.692  -1.181  0.00  0.00     0.024 A 
ATOM     37  C   UNL d   1      21.196 -18.975  -1.276  0.00  0.00     0.015 A 
ENDBRANCH  27  31
ENDBRANCH   4  25
TORSDOF 9
ENDMDL
MODEL 4
REMARK VINA RESULT:    -9.303      7.064      9.942
REMARK INTER + INTRA:         -14.404
REMARK INTER:                 -11.988
REMARK INTRA:                  -2.416
REMARK CONF_INDEPENDENT:        2.685
REMARK UNBOUND:                -2.416
REMARK  9 active torsions:
REMARK  status: ('A' for Active; 'I' for Inactive)
REMARK    1  A    between atoms: C_3  and  C_2 
REMARK    2  A    between atoms: C_3  and  C_5 
REMARK    3  A    between atoms: C_8  and  N_9 
REMARK       I    between atoms: N_9  and  C_10 
REMARK    4  A    between atoms: C_10  and  C_12 
REMARK    5  A    between atoms: C_12  and  S_13 
REMARK    6  A    between atoms: S_13  and  C_14 
REMARK    7  A    between atoms: C_17  and  C_18 
REMARK    8  A    between atoms: C_20  and  C_21 
REMARK    9  A    between atoms: N_30  and  N_31 
ROOT
ATOM      1  C   UNL d   1      26.536 -13.568  -3.466  0.00  0.00     0.206 A 
ATOM      2  N   UNL d   1      26.931 -13.230  -2.262  0.00  0.00    -0.121 NA
ATOM      3  N   UNL d   1      26.399 -14.153  -1.377  0.00  0.00    -0.125 NA
ATOM      4  C   UNL d   1      25.737 -15.057  -2.078  0.00  0.00     0.199 A 
ATOM      5  N   UNL d   1      25.802 -14.727  -3.416  0.00  0.00    -0.234 N 
ENDROOT
BRANCH   1   6
ATOM      6  S   UNL d   1      26.631 -12.585  -4.870  0.00  0.00    -0.080 SA
BRANCH   6   7
ATOM      7  C   UNL d   1      28.266 -12.952  -5.633  0.00  0.00     0.185 C 
BRANCH   7   8
ATOM      8  C   UNL d   1      28.419 -14.479  -5.671  0.00  0.00     0.231 C 
ATOM      9  N   UNL d   1      29.707 -14.999  -5.588  0.00  0.00    -0.327 N 
ATOM     10  H   UNL d   1      30.501 -14.369  -5.562  0.00  0.00     0.169 HD
ATOM     11  O   UNL d   1      27.407 -15.190  -5.769  0.00  0.00    -0.272 OA
BRANCH   9  12
ATOM     12  C   UNL d   1      30.007 -16.393  -5.664  0.00  0.00     0.034 A 
ATOM     13  C   UNL d   1      29.941 -17.187  -4.521  0.00  0.00     0.030 A 
ATOM     14  C   UNL d   1      30.357 -18.531  -4.564  0.00  0.00     0.010 A 
ATOM     15  C   UNL d   1      30.770 -19.140  -5.761  0.00  0.00    -0.054 A 
ATOM     16  C   UNL d   1      30.782 -18.350  -6.905  0.00  0.00     0.010 A 
ATOM     17  C   UNL d   1      30.410 -17.012  -6.851  0.00  0.00     0.030 A 
BRANCH  15  18
ATOM     18  C   UNL d   1      31.144 -20.609  -5.912  0.00  0.00     0.014 C 
ATOM     19  C   UNL d   1      31.346 -20.999  -7.383  0.00  0.00     0.015 C 
BRANCH  18  20
ATOM     20  C   UNL d   1      32.363 -21.053  -5.084  0.00  0.00     0.004 C 
ATOM     21  C   UNL d   1      32.118 -20.821  -3.600  0.00  0.00     0.006 C 
ENDBRANCH  18  20
ENDBRANCH  15  18
ENDBRANCH   9  12
ENDBRANCH   7   8
ENDBRANCH   6   7
ENDBRANCH   1   6
BRANCH   5  22
ATOM     22  N   UNL d   1      25.274 -15.485  -4.536  0.00  0.00    -0.239 NA
ATOM     23  H   UNL d   1      25.252 -14.940  -5.399  0.00  0.00     0.143 HD
ATOM     24  H   UNL d   1      25.826 -16.322  -4.725  0.00  0.00     0.143 HD
ENDBRANCH   5  22
BRANCH   4  25
ATOM     25  C   UNL d   1      25.094 -16.285  -1.536  0.00  0.00     0.128 A 
ATOM     26  C   UNL d   1      23.706 -16.414  -1.303  0.00  0.00     0.069 A 
ATOM     27  C   UNL d   1      23.525 -17.677  -0.785  0.00  0.00     0.062 A 
ATOM     28  N   UNL d   1      24.786 -18.219  -0.733  0.00  0.00    -0.277 N 
ATOM     29  N   UNL d   1      25.748 -17.408  -1.214  0.00  0.00    -0.171 NA
ATOM     30  H   UNL d   1      25.047 -19.153  -0.431  0.00  0.00     0.189 HD
BRANCH  27  31
ATOM     31  C   UNL d   1      22.309 -18.423  -0.505  0.00  0.00    -0.008 A 
ATOM     32  C   UNL d   1      21.513 -18.950  -1.529  0.00  0.00     0.015 A 
ATOM     33  C   UNL d   1      20.286 -19.549  -1.223  0.00  0.00     0.024 A 
ATOM     34  C   UNL d   1      19.890 -19.689   0.107  0.00  0.00     0.034 A 
ATOM     35 CL   UNL d   1      18.417 -20.494   0.484  0.00  0.00    -0.084 Cl
ATOM     36  C   UNL d   1      20.694 -19.205   1.134  0.00  0.00     0.024 A 
ATOM     37  C   UNL d   1      21.901 -18.576   0.827  0.00  0.00     0.015 A 
ENDBRANCH  27  31
ENDBRANCH   4  25
TORSDOF 9
ENDMDL
MODEL 5
REMARK VINA RESULT:    -9.083      1.721      2.644
REMARK INTER + INTRA:         -14.227
REMARK INTER:                 -11.768
REMARK INTRA:                  -2.459
REMARK CONF_INDEPENDENT:        2.685
REMARK UNBOUND:                -2.459
REMARK  9 active torsions:
REMARK  status: ('A' for Active; 'I' for Inactive)
REMARK    1  A    between atoms: C_3  and  C_2 
REMARK    2  A    between atoms: C_3  and  C_5 
REMARK    3  A    between atoms: C_8  and  N_9 
REMARK       I    between atoms: N_9  and  C_10 
REMARK    4  A    between atoms: C_10  and  C_12 
REMARK    5  A    between atoms: C_12  and  S_13 
REMARK    6  A    between atoms: S_13  and  C_14 
REMARK    7  A    between atoms: C_17  and  C_18 
REMARK    8  A    between atoms: C_20  and  C_21 
REMARK    9  A    between atoms: N_30  and  N_31 
ROOT
ATOM      1  C   UNL d   1      30.630 -14.165  -0.410  0.00  0.00     0.206 A 
ATOM      2  N   UNL d   1      29.860 -13.162  -0.762  0.00  0.00    -0.121 NA
ATOM      3  N   UNL d   1      28.980 -12.929   0.281  0.00  0.00    -0.125 NA
ATOM      4  C   UNL d   1      29.276 -13.766   1.260  0.00  0.00     0.199 A 
ATOM      5  N   UNL d   1      30.324 -14.570   0.866  0.00  0.00    -0.234 N 
ENDROOT
BRANCH   1   6
ATOM      6  S   UNL d   1      31.653 -15.064  -1.454  0.00  0.00    -0.080 SA
BRANCH   6   7
ATOM      7  C   UNL d   1      31.229 -16.833  -1.176  0.00  0.00     0.185 C 
BRANCH   7   8
ATOM      8  C   UNL d   1      29.705 -16.964  -1.309  0.00  0.00     0.231 C 
ATOM      9  N   UNL d   1      28.947 -16.863  -0.146  0.00  0.00    -0.327 N 
ATOM     10  H   UNL d   1      29.413 -16.766   0.749  0.00  0.00     0.169 HD
ATOM     11  O   UNL d   1      29.206 -17.146  -2.430  0.00  0.00    -0.272 OA
BRANCH   9  12
ATOM     12  C   UNL d   1      27.528 -17.018  -0.108  0.00  0.00     0.034 A 
ATOM     13  C   UNL d   1      26.958 -18.070   0.606  0.00  0.00     0.030 A 
ATOM     14  C   UNL d   1      25.571 -18.301   0.544  0.00  0.00     0.010 A 
ATOM     15  C   UNL d   1      24.708 -17.446  -0.161  0.00  0.00    -0.054 A 
ATOM     16  C   UNL d   1      25.284 -16.369  -0.826  0.00  0.00     0.010 A 
ATOM     17  C   UNL d   1      26.659 -16.167  -0.797  0.00  0.00     0.030 A 
BRANCH  15  18
ATOM     18  C   UNL d   1      23.190 -17.570  -0.200  0.00  0.00     0.014 C 
ATOM     19  C   UNL d   1      22.530 -16.327  -0.812  0.00  0.00     0.015 C 
BRANCH  18  20
ATOM     20  C   UNL d   1      22.665 -18.837  -0.899  0.00  0.00     0.004 C 
ATOM     21  C   UNL d   1      21.146 -18.894  -0.835  0.00  0.00     0.006 C 
ENDBRANCH  18  20
ENDBRANCH  15  18
ENDBRANCH   9  12
ENDBRANCH   7   8
ENDBRANCH   6   7
ENDBRANCH   1   6
BRANCH   5  22
ATOM     22  N   UNL d   1      31.010 -15.575   1.658  0.00  0.00    -0.239 NA
ATOM     23  H   UNL d   1      30.779 -15.513   2.651  0.00  0.00     0.143 HD
ATOM     24  H   UNL d   1      30.780 -16.522   1.355  0.00  0.00     0.143 HD
ENDBRANCH   5  22
BRANCH   4  25
ATOM     25  C   UNL d   1      28.645 -13.793   2.609  0.00  0.00     0.128 A 
ATOM     26  C   UNL d   1      29.339 -13.536   3.812  0.00  0.00     0.069 A 
ATOM     27  C   UNL d   1      28.412 -13.680   4.821  0.00  0.00     0.062 A 
ATOM     28  N   UNL d   1      27.244 -14.012   4.181  0.00  0.00    -0.277 N 
ATOM     29  N   UNL d   1      27.351 -14.053   2.838  0.00  0.00    -0.171 NA
ATOM     30  H   UNL d   1      26.332 -14.170   4.597  0.00  0.00     0.189 HD
BRANCH  27  31
ATOM     31  C   UNL d   1      28.504 -13.386   6.242  0.00  0.00    -0.008 A 
ATOM     32  C   UNL d   1      28.111 -12.149   6.767  0.00  0.00     0.015 A 
ATOM     33  C   UNL d   1      28.335 -11.861   8.118  0.00  0.00     0.024 A 
ATOM     34  C   UNL d   1      28.879 -12.832   8.958  0.00  0.00     0.034 A 
ATOM     35 CL   UNL d   1      29.082 -12.501  10.634  0.00  0.00    -0.084 Cl
ATOM     36  C   UNL d   1      29.234 -14.079   8.454  0.00  0.00     0.024 A 
ATOM     37  C   UNL d   1      29.045 -14.354   7.099  0.00  0.00     0.015 A 
ENDBRANCH  27  31
ENDBRANCH   4  25
TORSDOF 9
ENDMDL
MODEL 6
REMARK VINA RESULT:    -9.005      3.978      9.799
REMARK INTER + INTRA:         -13.989
REMARK INTER:                 -11.690
REMARK INTRA:                  -2.299
REMARK CONF_INDEPENDENT:        2.685
REMARK UNBOUND:                -2.299
REMARK  9 active torsions:
REMARK  status: ('A' for Active; 'I' for Inactive)
REMARK    1  A    between atoms: C_3  and  C_2 
REMARK    2  A    between atoms: C_3  and  C_5 
REMARK    3  A    between atoms: C_8  and  N_9 
REMARK       I    between atoms: N_9  and  C_10 
REMARK    4  A    between atoms: C_10  and  C_12 
REMARK    5  A    between atoms: C_12  and  S_13 
REMARK    6  A    between atoms: S_13  and  C_14 
REMARK    7  A    between atoms: C_17  and  C_18 
REMARK    8  A    between atoms: C_20  and  C_21 
REMARK    9  A    between atoms: N_30  and  N_31 
ROOT
ATOM      1  C   UNL d   1      27.464 -16.004  -1.766  0.00  0.00     0.206 A 
ATOM      2  N   UNL d   1      27.707 -16.828  -0.774  0.00  0.00    -0.121 NA
ATOM      3  N   UNL d   1      26.486 -17.243  -0.272  0.00  0.00    -0.125 NA
ATOM      4  C   UNL d   1      25.533 -16.699  -1.010  0.00  0.00     0.199 A 
ATOM      5  N   UNL d   1      26.111 -15.905  -1.978  0.00  0.00    -0.234 N 
ENDROOT
BRANCH   1   6
ATOM      6  S   UNL d   1      28.603 -14.956  -2.507  0.00  0.00    -0.080 SA
BRANCH   6   7
ATOM      7  C   UNL d   1      27.873 -13.269  -2.411  0.00  0.00     0.185 C 
BRANCH   7   8
ATOM      8  C   UNL d   1      27.706 -12.928  -0.923  0.00  0.00     0.231 C 
ATOM      9  N   UNL d   1      28.062 -13.901   0.004  0.00  0.00    -0.327 N 
ATOM     10  H   UNL d   1      28.362 -14.814  -0.318  0.00  0.00     0.169 HD
ATOM     11  O   UNL d   1      27.271 -11.811  -0.601  0.00  0.00    -0.272 OA
BRANCH   9  12
ATOM     12  C   UNL d   1      27.911 -13.747   1.416  0.00  0.00     0.034 A 
ATOM     13  C   UNL d   1      27.470 -12.534   1.944  0.00  0.00     0.030 A 
ATOM     14  C   UNL d   1      27.440 -12.335   3.337  0.00  0.00     0.010 A 
ATOM     15  C   UNL d   1      27.768 -13.361   4.239  0.00  0.00    -0.054 A 
ATOM     16  C   UNL d   1      28.156 -14.583   3.699  0.00  0.00     0.010 A 
ATOM     17  C   UNL d   1      28.225 -14.763   2.322  0.00  0.00     0.030 A 
BRANCH  15  18
ATOM     18  C   UNL d   1      27.671 -13.258   5.755  0.00  0.00     0.014 C 
ATOM     19  C   UNL d   1      28.683 -14.173   6.457  0.00  0.00     0.015 C 
BRANCH  18  20
ATOM     20  C   UNL d   1      27.788 -11.828   6.314  0.00  0.00     0.004 C 
ATOM     21  C   UNL d   1      29.003 -11.122   5.731  0.00  0.00     0.006 C 
ENDBRANCH  18  20
ENDBRANCH  15  18
ENDBRANCH   9  12
ENDBRANCH   7   8
ENDBRANCH   6   7
ENDBRANCH   1   6
BRANCH   5  22
ATOM     22  N   UNL d   1      25.437 -15.182  -3.041  0.00  0.00    -0.239 NA
ATOM     23  H   UNL d   1      24.497 -14.884  -2.775  0.00  0.00     0.143 HD
ATOM     24  H   UNL d   1      25.950 -14.344  -3.318  0.00  0.00     0.143 HD
ENDBRANCH   5  22
BRANCH   4  25
ATOM     25  C   UNL d   1      24.073 -16.959  -0.884  0.00  0.00     0.128 A 
ATOM     26  C   UNL d   1      23.519 -18.214  -0.548  0.00  0.00     0.069 A 
ATOM     27  C   UNL d   1      22.153 -18.040  -0.556  0.00  0.00     0.062 A 
ATOM     28  N   UNL d   1      21.969 -16.722  -0.895  0.00  0.00    -0.277 N 
ATOM     29  N   UNL d   1      23.118 -16.038  -1.065  0.00  0.00    -0.171 NA
ATOM     30  H   UNL d   1      21.092 -16.219  -0.973  0.00  0.00     0.189 HD
BRANCH  27  31
ATOM     31  C   UNL d   1      21.080 -18.926  -0.136  0.00  0.00    -0.008 A 
ATOM     32  C   UNL d   1      20.083 -19.352  -1.021  0.00  0.00     0.015 A 
ATOM     33  C   UNL d   1      18.999 -20.099  -0.547  0.00  0.00     0.024 A 
ATOM     34  C   UNL d   1      18.950 -20.484   0.792  0.00  0.00     0.034 A 
ATOM     35 CL   UNL d   1      17.655 -21.467   1.355  0.00  0.00    -0.084 Cl
ATOM     36  C   UNL d   1      19.957 -20.101   1.672  0.00  0.00     0.024 A 
ATOM     37  C   UNL d   1      21.020 -19.325   1.206  0.00  0.00     0.015 A 
ENDBRANCH  27  31
ENDBRANCH   4  25
TORSDOF 9
ENDMDL
MODEL 7
REMARK VINA RESULT:    -8.970      3.561     10.183
REMARK INTER + INTRA:         -14.036
REMARK INTER:                 -11.654
REMARK INTRA:                  -2.382
REMARK CONF_INDEPENDENT:        2.685
REMARK UNBOUND:                -2.382
REMARK  9 active torsions:
REMARK  status: ('A' for Active; 'I' for Inactive)
REMARK    1  A    between atoms: C_3  and  C_2 
REMARK    2  A    between atoms: C_3  and  C_5 
REMARK    3  A    between atoms: C_8  and  N_9 
REMARK       I    between atoms: N_9  and  C_10 
REMARK    4  A    between atoms: C_10  and  C_12 
REMARK    5  A    between atoms: C_12  and  S_13 
REMARK    6  A    between atoms: S_13  and  C_14 
REMARK    7  A    between atoms: C_17  and  C_18 
REMARK    8  A    between atoms: C_20  and  C_21 
REMARK    9  A    between atoms: N_30  and  N_31 
ROOT
ATOM      1  C   UNL d   1      27.911 -16.066  -0.801  0.00  0.00     0.206 A 
ATOM      2  N   UNL d   1      28.071 -17.364  -0.703  0.00  0.00    -0.121 NA
ATOM      3  N   UNL d   1      26.819 -17.924  -0.520  0.00  0.00    -0.125 NA
ATOM      4  C   UNL d   1      25.925 -16.951  -0.564  0.00  0.00     0.199 A 
ATOM      5  N   UNL d   1      26.576 -15.749  -0.747  0.00  0.00    -0.234 N 
ENDROOT
BRANCH   1   6
ATOM      6  S   UNL d   1      29.154 -14.886  -0.701  0.00  0.00    -0.080 SA
BRANCH   6   7
ATOM      7  C   UNL d   1      28.332 -13.333  -0.154  0.00  0.00     0.185 C 
BRANCH   7   8
ATOM      8  C   UNL d   1      28.116 -13.440   1.362  0.00  0.00     0.231 C 
ATOM      9  N   UNL d   1      29.243 -13.582   2.165  0.00  0.00    -0.327 N 
ATOM     10  H   UNL d   1      30.157 -13.667   1.734  0.00  0.00     0.169 HD
ATOM     11  O   UNL d   1      26.962 -13.392   1.817  0.00  0.00    -0.272 OA
BRANCH   9  12
ATOM     12  C   UNL d   1      29.194 -13.747   3.582  0.00  0.00     0.034 A 
ATOM     13  C   UNL d   1      28.298 -14.650   4.151  0.00  0.00     0.030 A 
ATOM     14  C   UNL d   1      28.156 -14.725   5.549  0.00  0.00     0.010 A 
ATOM     15  C   UNL d   1      28.958 -13.966   6.417  0.00  0.00    -0.054 A 
ATOM     16  C   UNL d   1      29.886 -13.107   5.837  0.00  0.00     0.010 A 
ATOM     17  C   UNL d   1      29.995 -13.005   4.455  0.00  0.00     0.030 A 
BRANCH  15  18
ATOM     18  C   UNL d   1      28.935 -14.058   7.937  0.00  0.00     0.014 C 
ATOM     19  C   UNL d   1      30.339 -14.267   8.520  0.00  0.00     0.015 C 
BRANCH  18  20
ATOM     20  C   UNL d   1      28.250 -12.874   8.644  0.00  0.00     0.004 C 
ATOM     21  C   UNL d   1      28.160 -13.122  10.142  0.00  0.00     0.006 C 
ENDBRANCH  18  20
ENDBRANCH  15  18
ENDBRANCH   9  12
ENDBRANCH   7   8
ENDBRANCH   6   7
ENDBRANCH   1   6
BRANCH   5  22
ATOM     22  N   UNL d   1      25.974 -14.440  -0.923  0.00  0.00    -0.239 NA
ATOM     23  H   UNL d   1      24.973 -14.494  -1.117  0.00  0.00     0.143 HD
ATOM     24  H   UNL d   1      26.087 -13.853  -0.097  0.00  0.00     0.143 HD
ENDBRANCH   5  22
BRANCH   4  25
ATOM     25  C   UNL d   1      24.446 -17.119  -0.513  0.00  0.00     0.128 A 
ATOM     26  C   UNL d   1      23.796 -18.364  -0.370  0.00  0.00     0.069 A 
ATOM     27  C   UNL d   1      22.446 -18.091  -0.389  0.00  0.00     0.062 A 
ATOM     28  N   UNL d   1      22.366 -16.729  -0.545  0.00  0.00    -0.277 N 
ATOM     29  N   UNL d   1      23.565 -16.114  -0.588  0.00  0.00    -0.171 NA
ATOM     30  H   UNL d   1      21.528 -16.157  -0.575  0.00  0.00     0.189 HD
BRANCH  27  31
ATOM     31  C   UNL d   1      21.301 -18.946  -0.125  0.00  0.00    -0.008 A 
ATOM     32  C   UNL d   1      20.437 -19.361  -1.145  0.00  0.00     0.015 A 
ATOM     33  C   UNL d   1      19.275 -20.075  -0.830  0.00  0.00     0.024 A 
ATOM     34  C   UNL d   1      19.017 -20.440   0.491  0.00  0.00     0.034 A 
ATOM     35 CL   UNL d   1      17.629 -21.385   0.864  0.00  0.00    -0.084 Cl
ATOM     36  C   UNL d   1      19.892 -20.068   1.507  0.00  0.00     0.024 A 
ATOM     37  C   UNL d   1      21.031 -19.324   1.198  0.00  0.00     0.015 A 
ENDBRANCH  27  31
ENDBRANCH   4  25
TORSDOF 9
ENDMDL
MODEL 8
REMARK VINA RESULT:    -8.923      4.133      9.641
REMARK INTER + INTRA:         -14.368
REMARK INTER:                 -11.608
REMARK INTRA:                  -2.760
REMARK CONF_INDEPENDENT:        2.685
REMARK UNBOUND:                -2.760
REMARK  9 active torsions:
REMARK  status: ('A' for Active; 'I' for Inactive)
REMARK    1  A    between atoms: C_3  and  C_2 
REMARK    2  A    between atoms: C_3  and  C_5 
REMARK    3  A    between atoms: C_8  and  N_9 
REMARK       I    between atoms: N_9  and  C_10 
REMARK    4  A    between atoms: C_10  and  C_12 
REMARK    5  A    between atoms: C_12  and  S_13 
REMARK    6  A    between atoms: S_13  and  C_14 
REMARK    7  A    between atoms: C_17  and  C_18 
REMARK    8  A    between atoms: C_20  and  C_21 
REMARK    9  A    between atoms: N_30  and  N_31 
ROOT
ATOM      1  C   UNL d   1      26.271 -14.202  -2.635  0.00  0.00     0.206 A 
ATOM      2  N   UNL d   1      25.098 -13.820  -3.083  0.00  0.00    -0.121 NA
ATOM      3  N   UNL d   1      24.170 -14.758  -2.666  0.00  0.00    -0.125 NA
ATOM      4  C   UNL d   1      24.799 -15.658  -1.931  0.00  0.00     0.199 A 
ATOM      5  N   UNL d   1      26.140 -15.340  -1.880  0.00  0.00    -0.234 N 
ENDROOT
BRANCH   1   6
ATOM      6  S   UNL d   1      27.791 -13.589  -3.142  0.00  0.00    -0.080 SA
BRANCH   6   7
ATOM      7  C   UNL d   1      27.844 -11.838  -2.575  0.00  0.00     0.185 C 
BRANCH   7   8
ATOM      8  C   UNL d   1      28.012 -11.858  -1.049  0.00  0.00     0.231 C 
ATOM      9  N   UNL d   1      27.943 -13.092  -0.409  0.00  0.00    -0.327 N 
ATOM     10  H   UNL d   1      27.731 -13.925  -0.948  0.00  0.00     0.169 HD
ATOM     11  O   UNL d   1      28.205 -10.792  -0.444  0.00  0.00    -0.272 OA
BRANCH   9  12
ATOM     12  C   UNL d   1      28.027 -13.259   1.006  0.00  0.00     0.034 A 
ATOM     13  C   UNL d   1      29.236 -13.620   1.598  0.00  0.00     0.030 A 
ATOM     14  C   UNL d   1      29.295 -13.908   2.974  0.00  0.00     0.010 A 
ATOM     15  C   UNL d   1      28.174 -13.766   3.810  0.00  0.00    -0.054 A 
ATOM     16  C   UNL d   1      26.986 -13.355   3.215  0.00  0.00     0.010 A 
ATOM     17  C   UNL d   1      26.921 -13.111   1.848  0.00  0.00     0.030 A 
BRANCH  15  18
ATOM     18  C   UNL d   1      28.176 -13.966   5.319  0.00  0.00     0.014 C 
ATOM     19  C   UNL d   1      29.363 -14.822   5.782  0.00  0.00     0.015 C 
BRANCH  18  20
ATOM     20  C   UNL d   1      28.121 -12.666   6.142  0.00  0.00     0.004 C 
ATOM     21  C   UNL d   1      28.535 -12.924   7.583  0.00  0.00     0.006 C 
ENDBRANCH  18  20
ENDBRANCH  15  18
ENDBRANCH   9  12
ENDBRANCH   7   8
ENDBRANCH   6   7
ENDBRANCH   1   6
BRANCH   5  22
ATOM     22  N   UNL d   1      27.177 -16.020  -1.125  0.00  0.00    -0.239 NA
ATOM     23  H   UNL d   1      27.688 -15.387  -0.507  0.00  0.00     0.143 HD
ATOM     24  H   UNL d   1      26.798 -16.767  -0.542  0.00  0.00     0.143 HD
ENDBRANCH   5  22
BRANCH   4  25
ATOM     25  C   UNL d   1      24.164 -16.788  -1.199  0.00  0.00     0.128 A 
ATOM     26  C   UNL d   1      22.776 -16.896  -0.961  0.00  0.00     0.069 A 
ATOM     27  C   UNL d   1      22.604 -18.059  -0.243  0.00  0.00     0.062 A 
ATOM     28  N   UNL d   1      23.870 -18.568  -0.091  0.00  0.00    -0.277 N 
ATOM     29  N   UNL d   1      24.828 -17.834  -0.691  0.00  0.00    -0.171 NA
ATOM     30  H   UNL d   1      24.139 -19.435   0.363  0.00  0.00     0.189 HD
BRANCH  27  31
ATOM     31  C   UNL d   1      21.394 -18.765   0.144  0.00  0.00    -0.008 A 
ATOM     32  C   UNL d   1      21.044 -18.950   1.486  0.00  0.00     0.015 A 
ATOM     33  C   UNL d   1      19.941 -19.745   1.819  0.00  0.00     0.024 A 
ATOM     34  C   UNL d   1      19.146 -20.292   0.811  0.00  0.00     0.034 A 
ATOM     35 CL   UNL d   1      17.747 -21.205   1.222  0.00  0.00    -0.084 Cl
ATOM     36  C   UNL d   1      19.463 -20.079  -0.527  0.00  0.00     0.024 A 
ATOM     37  C   UNL d   1      20.583 -19.316  -0.858  0.00  0.00     0.015 A 
ENDBRANCH  27  31
ENDBRANCH   4  25
TORSDOF 9
ENDMDL
MODEL 9
REMARK VINA RESULT:    -7.859      3.195      4.633
REMARK INTER + INTRA:         -14.156
REMARK INTER:                 -10.544
REMARK INTRA:                  -3.612
REMARK CONF_INDEPENDENT:        2.685
REMARK UNBOUND:                -3.612
REMARK  9 active torsions:
REMARK  status: ('A' for Active; 'I' for Inactive)
REMARK    1  A    between atoms: C_3  and  C_2 
REMARK    2  A    between atoms: C_3  and  C_5 
REMARK    3  A    between atoms: C_8  and  N_9 
REMARK       I    between atoms: N_9  and  C_10 
REMARK    4  A    between atoms: C_10  and  C_12 
REMARK    5  A    between atoms: C_12  and  S_13 
REMARK    6  A    between atoms: S_13  and  C_14 
REMARK    7  A    between atoms: C_17  and  C_18 
REMARK    8  A    between atoms: C_20  and  C_21 
REMARK    9  A    between atoms: N_30  and  N_31 
ROOT
ATOM      1  C   UNL d   1      28.505 -12.104  -3.445  0.00  0.00     0.206 A 
ATOM      2  N   UNL d   1      27.492 -11.473  -2.899  0.00  0.00    -0.121 NA
ATOM      3  N   UNL d   1      27.355 -11.950  -1.607  0.00  0.00    -0.125 NA
ATOM      4  C   UNL d   1      28.324 -12.822  -1.387  0.00  0.00     0.199 A 
ATOM      5  N   UNL d   1      29.085 -12.948  -2.530  0.00  0.00    -0.234 N 
ENDROOT
BRANCH   1   6
ATOM      6  S   UNL d   1      28.889 -12.136  -5.117  0.00  0.00    -0.080 SA
BRANCH   6   7
ATOM      7  C   UNL d   1      27.408 -12.831  -5.961  0.00  0.00     0.185 C 
BRANCH   7   8
ATOM      8  C   UNL d   1      26.989 -14.088  -5.186  0.00  0.00     0.231 C 
ATOM      9  N   UNL d   1      26.515 -13.917  -3.889  0.00  0.00    -0.327 N 
ATOM     10  H   UNL d   1      26.512 -12.991  -3.475  0.00  0.00     0.169 HD
ATOM     11  O   UNL d   1      27.080 -15.198  -5.733  0.00  0.00    -0.272 OA
BRANCH   9  12
ATOM     12  C   UNL d   1      26.140 -14.995  -3.032  0.00  0.00     0.034 A 
ATOM     13  C   UNL d   1      24.812 -15.147  -2.637  0.00  0.00     0.030 A 
ATOM     14  C   UNL d   1      24.459 -16.129  -1.694  0.00  0.00     0.010 A 
ATOM     15  C   UNL d   1      25.401 -17.038  -1.182  0.00  0.00    -0.054 A 
ATOM     16  C   UNL d   1      26.713 -16.909  -1.625  0.00  0.00     0.010 A 
ATOM     17  C   UNL d   1      27.067 -15.910  -2.525  0.00  0.00     0.030 A 
BRANCH  15  18
ATOM     18  C   UNL d   1      25.085 -18.186  -0.234  0.00  0.00     0.014 C 
ATOM     19  C   UNL d   1      26.021 -18.200   0.982  0.00  0.00     0.015 C 
BRANCH  18  20
ATOM     20  C   UNL d   1      23.621 -18.250   0.237  0.00  0.00     0.004 C 
ATOM     21  C   UNL d   1      22.732 -18.834  -0.851  0.00  0.00     0.006 C 
ENDBRANCH  18  20
ENDBRANCH  15  18
ENDBRANCH   9  12
ENDBRANCH   7   8
ENDBRANCH   6   7
ENDBRANCH   1   6
BRANCH   5  22
ATOM     22  N   UNL d   1      30.287 -13.742  -2.704  0.00  0.00    -0.239 NA
ATOM     23  H   UNL d   1      30.364 -14.490  -2.012  0.00  0.00     0.143 HD
ATOM     24  H   UNL d   1      30.325 -14.181  -3.624  0.00  0.00     0.143 HD
ENDBRANCH   5  22
BRANCH   4  25
ATOM     25  C   UNL d   1      28.612 -13.501  -0.094  0.00  0.00     0.128 A 
ATOM     26  C   UNL d   1      28.504 -12.877   1.169  0.00  0.00     0.069 A 
ATOM     27  C   UNL d   1      28.874 -13.828   2.094  0.00  0.00     0.062 A 
ATOM     28  N   UNL d   1      29.182 -14.941   1.350  0.00  0.00    -0.277 N 
ATOM     29  N   UNL d   1      28.998 -14.778   0.024  0.00  0.00    -0.171 NA
ATOM     30  H   UNL d   1      29.469 -15.853   1.689  0.00  0.00     0.189 HD
BRANCH  27  31
ATOM     31  C   UNL d   1      28.807 -13.817   3.546  0.00  0.00    -0.008 A 
ATOM     32  C   UNL d   1      27.827 -13.094   4.235  0.00  0.00     0.015 A 
ATOM     33  C   UNL d   1      27.875 -13.004   5.631  0.00  0.00     0.024 A 
ATOM     34  C   UNL d   1      28.856 -13.698   6.340  0.00  0.00     0.034 A 
ATOM     35 CL   UNL d   1      28.866 -13.648   8.060  0.00  0.00    -0.084 Cl
ATOM     36  C   UNL d   1      29.810 -14.453   5.667  0.00  0.00     0.024 A 
ATOM     37  C   UNL d   1      29.784 -14.512   4.273  0.00  0.00     0.015 A 
ENDBRANCH  27  31
ENDBRANCH   4  25
TORSDOF 9
ENDMDL
