MODEL 1
REMARK VINA RESULT:    -8.278      0.000      0.000
REMARK INTER + INTRA:         -12.884
REMARK INTER:                 -10.962
REMARK INTRA:                  -1.922
REMARK CONF_INDEPENDENT:        2.685
REMARK UNBOUND:                -1.922
REMARK  9 active torsions:
REMARK  status: ('A' for Active; 'I' for Inactive)
REMARK    1  A    between atoms: C_2  and  C_3 
REMARK       I    between atoms: C_2  and  N_21 
REMARK    2  A    between atoms: C_3  and  C_4 
REMARK    3  A    between atoms: C_4  and  N_5 
REMARK       I    between atoms: N_5  and  C_6 
REMARK       I    between atoms: C_6  and  N_8 
REMARK    4  A    between atoms: N_8  and  C_9 
REMARK    5  A    between atoms: C_9  and  C_10 
REMARK    6  A    between atoms: C_10  and  N_11 
REMARK    7  A    between atoms: N_11  and  C_12 
REMARK    8  A    between atoms: C_15  and  N_16 
REMARK    9  A    between atoms: N_21  and  C_22 
ROOT
ATOM      1  N   UNL d   1      28.338 -14.715   2.582  0.00  0.00    -0.343 N 
ATOM      2  C   UNL d   1      27.869 -14.945   1.310  0.00  0.00     0.316 C 
ATOM      3  O   UNL d   1      26.941 -14.307   0.816  0.00  0.00    -0.247 OA
ATOM      4  N   UNL d   1      28.511 -15.954   0.632  0.00  0.00    -0.342 N 
ATOM      5  H   UNL d   1      29.121 -15.244   2.934  0.00  0.00     0.164 HD
ATOM      6  H   UNL d   1      29.279 -16.442   1.067  0.00  0.00     0.164 HD
ENDROOT
BRANCH   1   7
ATOM      7  C   UNL d   1      27.733 -13.662   3.415  0.00  0.00     0.133 C 
BRANCH   7   8
ATOM      8  C   UNL d   1      27.664 -14.007   4.902  0.00  0.00     0.122 C 
BRANCH   8   9
ATOM      9  C   UNL d   1      28.968 -14.573   5.459  0.00  0.00     0.219 C 
ATOM     10  O   UNL d   1      29.695 -15.328   4.817  0.00  0.00    -0.274 OA
ATOM     11  N   UNL d   1      29.339 -14.223   6.737  0.00  0.00    -0.356 N 
ATOM     12  H   UNL d   1      30.227 -14.627   7.024  0.00  0.00     0.162 HD
BRANCH  11  13
ATOM     13  C   UNL d   1      28.629 -13.358   7.663  0.00  0.00     0.084 C 
ATOM     14  C   UNL d   1      28.703 -13.857   9.102  0.00  0.00     0.025 C 
ATOM     15  C   UNL d   1      28.282 -12.669   9.940  0.00  0.00     0.002 C 
ATOM     16  C   UNL d   1      28.730 -11.443   9.157  0.00  0.00     0.002 C 
ATOM     17  C   UNL d   1      29.226 -11.953   7.800  0.00  0.00     0.025 C 
ENDBRANCH  11  13
ENDBRANCH   8   9
ENDBRANCH   7   8
ENDBRANCH   1   7
BRANCH   4  18
ATOM     18  C   UNL d   1      28.111 -16.301  -0.742  0.00  0.00     0.144 C 
BRANCH  18  19
ATOM     19  C   UNL d   1      26.875 -17.222  -0.836  0.00  0.00     0.139 C 
BRANCH  19  20
ATOM     20  N   UNL d   1      25.641 -16.594  -0.347  0.00  0.00    -0.388 N 
ATOM     21  H   UNL d   1      25.713 -16.055   0.515  0.00  0.00     0.159 HD
BRANCH  20  22
ATOM     22  C   UNL d   1      24.391 -17.186  -0.526  0.00  0.00     0.028 A 
ATOM     23  C   UNL d   1      23.275 -16.364  -0.760  0.00  0.00     0.031 A 
ATOM     24  C   UNL d   1      21.982 -16.894  -0.895  0.00  0.00     0.038 A 
ATOM     25  C   UNL d   1      21.801 -18.278  -0.864  0.00  0.00     0.103 A 
ATOM     26  C   UNL d   1      22.894 -19.120  -0.642  0.00  0.00     0.038 A 
ATOM     27  C   UNL d   1      24.173 -18.569  -0.481  0.00  0.00     0.031 A 
BRANCH  25  28
ATOM     28  N   UNL d   1      20.476 -18.858  -1.121  0.00  0.00    -0.116 N 
ATOM     29  O   UNL d   1      19.525 -18.456  -0.434  0.00  0.00    -0.532 OA
ATOM     30  O   UNL d   1      20.381 -19.700  -2.026  0.00  0.00    -0.532 OA
ENDBRANCH  25  28
ENDBRANCH  20  22
ENDBRANCH  19  20
ENDBRANCH  18  19
ENDBRANCH   4  18
TORSDOF 9
ENDMDL
MODEL 2
REMARK VINA RESULT:    -8.238      1.547      2.047
REMARK INTER + INTRA:         -11.603
REMARK INTER:                 -10.922
REMARK INTRA:                  -0.681
REMARK CONF_INDEPENDENT:        2.685
REMARK UNBOUND:                -0.681
REMARK  9 active torsions:
REMARK  status: ('A' for Active; 'I' for Inactive)
REMARK    1  A    between atoms: C_2  and  C_3 
REMARK       I    between atoms: C_2  and  N_21 
REMARK    2  A    between atoms: C_3  and  C_4 
REMARK    3  A    between atoms: C_4  and  N_5 
REMARK       I    between atoms: N_5  and  C_6 
REMARK       I    between atoms: C_6  and  N_8 
REMARK    4  A    between atoms: N_8  and  C_9 
REMARK    5  A    between atoms: C_9  and  C_10 
REMARK    6  A    between atoms: C_10  and  N_11 
REMARK    7  A    between atoms: N_11  and  C_12 
REMARK    8  A    between atoms: C_15  and  N_16 
REMARK    9  A    between atoms: N_21  and  C_22 
ROOT
ATOM      1  N   UNL d   1      28.453 -14.877   3.941  0.00  0.00    -0.343 N 
ATOM      2  C   UNL d   1      27.914 -14.466   2.743  0.00  0.00     0.316 C 
ATOM      3  O   UNL d   1      27.110 -13.540   2.657  0.00  0.00    -0.247 OA
ATOM      4  N   UNL d   1      28.337 -15.178   1.646  0.00  0.00    -0.342 N 
ATOM      5  H   UNL d   1      29.131 -15.623   3.959  0.00  0.00     0.164 HD
ATOM      6  H   UNL d   1      29.010 -15.920   1.758  0.00  0.00     0.164 HD
ENDROOT
BRANCH   1   7
ATOM      7  C   UNL d   1      28.079 -14.197   5.192  0.00  0.00     0.133 C 
BRANCH   7   8
ATOM      8  C   UNL d   1      29.039 -13.083   5.606  0.00  0.00     0.122 C 
BRANCH   8   9
ATOM      9  C   UNL d   1      28.422 -12.068   6.564  0.00  0.00     0.219 C 
ATOM     10  O   UNL d   1      28.021 -10.964   6.199  0.00  0.00    -0.274 OA
ATOM     11  N   UNL d   1      28.317 -12.403   7.894  0.00  0.00    -0.356 N 
ATOM     12  H   UNL d   1      27.879 -11.681   8.460  0.00  0.00     0.162 HD
BRANCH  11  13
ATOM     13  C   UNL d   1      28.732 -13.640   8.534  0.00  0.00     0.084 C 
ATOM     14  C   UNL d   1      30.237 -13.700   8.770  0.00  0.00     0.025 C 
ATOM     15  C   UNL d   1      30.423 -14.820   9.770  0.00  0.00     0.002 C 
ATOM     16  C   UNL d   1      29.158 -14.821  10.617  0.00  0.00     0.002 C 
ATOM     17  C   UNL d   1      28.196 -13.826   9.958  0.00  0.00     0.025 C 
ENDBRANCH  11  13
ENDBRANCH   8   9
ENDBRANCH   7   8
ENDBRANCH   1   7
BRANCH   4  18
ATOM     18  C   UNL d   1      27.842 -14.840   0.302  0.00  0.00     0.144 C 
BRANCH  18  19
ATOM     19  C   UNL d   1      26.355 -15.181   0.061  0.00  0.00     0.139 C 
BRANCH  19  20
ATOM     20  N   UNL d   1      26.145 -16.539  -0.456  0.00  0.00    -0.388 N 
ATOM     21  H   UNL d   1      26.798 -16.862  -1.168  0.00  0.00     0.159 HD
BRANCH  20  22
ATOM     22  C   UNL d   1      24.870 -17.090  -0.584  0.00  0.00     0.028 A 
ATOM     23  C   UNL d   1      23.775 -16.231  -0.785  0.00  0.00     0.031 A 
ATOM     24  C   UNL d   1      22.460 -16.717  -0.868  0.00  0.00     0.038 A 
ATOM     25  C   UNL d   1      22.233 -18.095  -0.816  0.00  0.00     0.103 A 
ATOM     26  C   UNL d   1      23.304 -18.971  -0.626  0.00  0.00     0.038 A 
ATOM     27  C   UNL d   1      24.606 -18.464  -0.517  0.00  0.00     0.031 A 
BRANCH  25  28
ATOM     28  N   UNL d   1      20.880 -18.630  -1.019  0.00  0.00    -0.116 N 
ATOM     29  O   UNL d   1      20.768 -19.838  -1.273  0.00  0.00    -0.532 OA
ATOM     30  O   UNL d   1      19.927 -17.846  -0.902  0.00  0.00    -0.532 OA
ENDBRANCH  25  28
ENDBRANCH  20  22
ENDBRANCH  19  20
ENDBRANCH  18  19
ENDBRANCH   4  18
TORSDOF 9
ENDMDL
MODEL 3
REMARK VINA RESULT:    -7.984      1.752      2.644
REMARK INTER + INTRA:         -12.161
REMARK INTER:                 -10.669
REMARK INTRA:                  -1.492
REMARK CONF_INDEPENDENT:        2.685
REMARK UNBOUND:                -1.492
REMARK  9 active torsions:
REMARK  status: ('A' for Active; 'I' for Inactive)
REMARK    1  A    between atoms: C_2  and  C_3 
REMARK       I    between atoms: C_2  and  N_21 
REMARK    2  A    between atoms: C_3  and  C_4 
REMARK    3  A    between atoms: C_4  and  N_5 
REMARK       I    between atoms: N_5  and  C_6 
REMARK       I    between atoms: C_6  and  N_8 
REMARK    4  A    between atoms: N_8  and  C_9 
REMARK    5  A    between atoms: C_9  and  C_10 
REMARK    6  A    between atoms: C_10  and  N_11 
REMARK    7  A    between atoms: N_11  and  C_12 
REMARK    8  A    between atoms: C_15  and  N_16 
REMARK    9  A    between atoms: N_21  and  C_22 
ROOT
ATOM      1  N   UNL d   1      28.108 -13.474   1.910  0.00  0.00    -0.343 N 
ATOM      2  C   UNL d   1      27.763 -14.386   0.939  0.00  0.00     0.316 C 
ATOM      3  O   UNL d   1      26.918 -14.154   0.077  0.00  0.00    -0.247 OA
ATOM      4  N   UNL d   1      28.430 -15.586   1.012  0.00  0.00    -0.342 N 
ATOM      5  H   UNL d   1      28.828 -13.698   2.579  0.00  0.00     0.164 HD
ATOM      6  H   UNL d   1      29.128 -15.729   1.726  0.00  0.00     0.164 HD
ENDROOT
BRANCH   1   7
ATOM      7  C   UNL d   1      27.463 -12.150   1.943  0.00  0.00     0.133 C 
BRANCH   7   8
ATOM      8  C   UNL d   1      28.211 -11.115   2.782  0.00  0.00     0.122 C 
BRANCH   8   9
ATOM      9  C   UNL d   1      27.414 -10.608   3.982  0.00  0.00     0.219 C 
ATOM     10  O   UNL d   1      26.655  -9.643   3.918  0.00  0.00    -0.274 OA
ATOM     11  N   UNL d   1      27.560 -11.258   5.185  0.00  0.00    -0.356 N 
ATOM     12  H   UNL d   1      26.982 -10.870   5.926  0.00  0.00     0.162 HD
BRANCH  11  13
ATOM     13  C   UNL d   1      28.402 -12.404   5.480  0.00  0.00     0.084 C 
ATOM     14  C   UNL d   1      28.558 -12.646   6.978  0.00  0.00     0.025 C 
ATOM     15  C   UNL d   1      29.100 -14.055   7.083  0.00  0.00     0.002 C 
ATOM     16  C   UNL d   1      28.529 -14.799   5.884  0.00  0.00     0.002 C 
ATOM     17  C   UNL d   1      27.829 -13.748   5.016  0.00  0.00     0.025 C 
ENDBRANCH  11  13
ENDBRANCH   8   9
ENDBRANCH   7   8
ENDBRANCH   1   7
BRANCH   4  18
ATOM     18  C   UNL d   1      28.160 -16.650   0.031  0.00  0.00     0.144 C 
BRANCH  18  19
ATOM     19  C   UNL d   1      26.810 -17.373   0.226  0.00  0.00     0.139 C 
BRANCH  19  20
ATOM     20  N   UNL d   1      25.665 -16.624  -0.309  0.00  0.00    -0.388 N 
ATOM     21  H   UNL d   1      25.629 -15.629  -0.092  0.00  0.00     0.159 HD
BRANCH  20  22
ATOM     22  C   UNL d   1      24.405 -17.206  -0.451  0.00  0.00     0.028 A 
ATOM     23  C   UNL d   1      24.279 -18.599  -0.310  0.00  0.00     0.031 A 
ATOM     24  C   UNL d   1      23.050 -19.252  -0.493  0.00  0.00     0.038 A 
ATOM     25  C   UNL d   1      21.904 -18.497  -0.757  0.00  0.00     0.103 A 
ATOM     26  C   UNL d   1      21.999 -17.110  -0.894  0.00  0.00     0.038 A 
ATOM     27  C   UNL d   1      23.241 -16.480  -0.736  0.00  0.00     0.031 A 
BRANCH  25  28
ATOM     28  N   UNL d   1      20.590 -19.149  -0.835  0.00  0.00    -0.116 N 
ATOM     29  O   UNL d   1      19.853 -19.087   0.160  0.00  0.00    -0.532 OA
ATOM     30  O   UNL d   1      20.285 -19.704  -1.901  0.00  0.00    -0.532 OA
ENDBRANCH  25  28
ENDBRANCH  20  22
ENDBRANCH  19  20
ENDBRANCH  18  19
ENDBRANCH   4  18
TORSDOF 9
ENDMDL
MODEL 4
REMARK VINA RESULT:    -7.838      4.158      9.639
REMARK INTER + INTRA:         -11.814
REMARK INTER:                 -10.523
REMARK INTRA:                  -1.291
REMARK CONF_INDEPENDENT:        2.685
REMARK UNBOUND:                -1.291
REMARK  9 active torsions:
REMARK  status: ('A' for Active; 'I' for Inactive)
REMARK    1  A    between atoms: C_2  and  C_3 
REMARK       I    between atoms: C_2  and  N_21 
REMARK    2  A    between atoms: C_3  and  C_4 
REMARK    3  A    between atoms: C_4  and  N_5 
REMARK       I    between atoms: N_5  and  C_6 
REMARK       I    between atoms: C_6  and  N_8 
REMARK    4  A    between atoms: N_8  and  C_9 
REMARK    5  A    between atoms: C_9  and  C_10 
REMARK    6  A    between atoms: C_10  and  N_11 
REMARK    7  A    between atoms: N_11  and  C_12 
REMARK    8  A    between atoms: C_15  and  N_16 
REMARK    9  A    between atoms: N_21  and  C_22 
ROOT
ATOM      1  N   UNL d   1      25.902 -16.427  -0.325  0.00  0.00    -0.343 N 
ATOM      2  C   UNL d   1      26.593 -15.343   0.167  0.00  0.00     0.316 C 
ATOM      3  O   UNL d   1      26.247 -14.182  -0.042  0.00  0.00    -0.247 OA
ATOM      4  N   UNL d   1      27.709 -15.657   0.906  0.00  0.00    -0.342 N 
ATOM      5  H   UNL d   1      26.207 -17.362  -0.102  0.00  0.00     0.164 HD
ATOM      6  H   UNL d   1      27.948 -16.624   1.068  0.00  0.00     0.164 HD
ENDROOT
BRANCH   1   7
ATOM      7  C   UNL d   1      24.689 -16.225  -1.135  0.00  0.00     0.133 C 
BRANCH   7   8
ATOM      8  C   UNL d   1      23.479 -17.024  -0.653  0.00  0.00     0.122 C 
BRANCH   8   9
ATOM      9  C   UNL d   1      23.806 -18.472  -0.294  0.00  0.00     0.219 C 
ATOM     10  O   UNL d   1      24.954 -18.913  -0.283  0.00  0.00    -0.274 OA
ATOM     11  N   UNL d   1      22.768 -19.316   0.026  0.00  0.00    -0.356 N 
ATOM     12  H   UNL d   1      23.073 -20.255   0.270  0.00  0.00     0.162 HD
BRANCH  11  13
ATOM     13  C   UNL d   1      21.350 -19.005   0.068  0.00  0.00     0.084 C 
ATOM     14  C   UNL d   1      20.643 -19.324  -1.245  0.00  0.00     0.025 C 
ATOM     15  C   UNL d   1      19.171 -19.325  -0.895  0.00  0.00     0.002 C 
ATOM     16  C   UNL d   1      19.099 -19.787   0.554  0.00  0.00     0.002 C 
ATOM     17  C   UNL d   1      20.545 -19.854   1.058  0.00  0.00     0.025 C 
ENDBRANCH  11  13
ENDBRANCH   8   9
ENDBRANCH   7   8
ENDBRANCH   1   7
BRANCH   4  18
ATOM     18  C   UNL d   1      28.537 -14.592   1.495  0.00  0.00     0.144 C 
BRANCH  18  19
ATOM     19  C   UNL d   1      29.386 -13.803   0.476  0.00  0.00     0.139 C 
BRANCH  19  20
ATOM     20  N   UNL d   1      28.635 -12.747  -0.216  0.00  0.00    -0.388 N 
ATOM     21  H   UNL d   1      28.956 -12.497  -1.151  0.00  0.00     0.159 HD
BRANCH  20  22
ATOM     22  C   UNL d   1      28.056 -11.682   0.473  0.00  0.00     0.028 A 
ATOM     23  C   UNL d   1      28.386 -10.368   0.097  0.00  0.00     0.031 A 
ATOM     24  C   UNL d   1      27.879  -9.254   0.784  0.00  0.00     0.038 A 
ATOM     25  C   UNL d   1      26.970  -9.446   1.828  0.00  0.00     0.103 A 
ATOM     26  C   UNL d   1      26.617 -10.740   2.216  0.00  0.00     0.038 A 
ATOM     27  C   UNL d   1      27.157 -11.841   1.536  0.00  0.00     0.031 A 
BRANCH  25  28
ATOM     28  N   UNL d   1      26.338  -8.291   2.481  0.00  0.00    -0.116 N 
ATOM     29  O   UNL d   1      26.657  -8.043   3.653  0.00  0.00    -0.532 OA
ATOM     30  O   UNL d   1      25.538  -7.618   1.813  0.00  0.00    -0.532 OA
ENDBRANCH  25  28
ENDBRANCH  20  22
ENDBRANCH  19  20
ENDBRANCH  18  19
ENDBRANCH   4  18
TORSDOF 9
ENDMDL
MODEL 5
REMARK VINA RESULT:    -7.638      2.372      3.421
REMARK INTER + INTRA:         -11.698
REMARK INTER:                 -10.323
REMARK INTRA:                  -1.376
REMARK CONF_INDEPENDENT:        2.685
REMARK UNBOUND:                -1.376
REMARK  9 active torsions:
REMARK  status: ('A' for Active; 'I' for Inactive)
REMARK    1  A    between atoms: C_2  and  C_3 
REMARK       I    between atoms: C_2  and  N_21 
REMARK    2  A    between atoms: C_3  and  C_4 
REMARK    3  A    between atoms: C_4  and  N_5 
REMARK       I    between atoms: N_5  and  C_6 
REMARK       I    between atoms: C_6  and  N_8 
REMARK    4  A    between atoms: N_8  and  C_9 
REMARK    5  A    between atoms: C_9  and  C_10 
REMARK    6  A    between atoms: C_10  and  N_11 
REMARK    7  A    between atoms: N_11  and  C_12 
REMARK    8  A    between atoms: C_15  and  N_16 
REMARK    9  A    between atoms: N_21  and  C_22 
ROOT
ATOM      1  N   UNL d   1      28.312 -14.869   2.654  0.00  0.00    -0.343 N 
ATOM      2  C   UNL d   1      27.809 -15.138   1.402  0.00  0.00     0.316 C 
ATOM      3  O   UNL d   1      26.809 -14.580   0.952  0.00  0.00    -0.247 OA
ATOM      4  N   UNL d   1      28.504 -16.088   0.692  0.00  0.00    -0.342 N 
ATOM      5  H   UNL d   1      29.151 -15.330   2.969  0.00  0.00     0.164 HD
ATOM      6  H   UNL d   1      29.328 -16.509   1.092  0.00  0.00     0.164 HD
ENDROOT
BRANCH   1   7
ATOM      7  C   UNL d   1      27.656 -13.872   3.517  0.00  0.00     0.133 C 
BRANCH   7   8
ATOM      8  C   UNL d   1      28.629 -12.969   4.274  0.00  0.00     0.122 C 
BRANCH   8   9
ATOM      9  C   UNL d   1      27.950 -12.053   5.290  0.00  0.00     0.219 C 
ATOM     10  O   UNL d   1      27.772 -12.375   6.463  0.00  0.00    -0.274 OA
ATOM     11  N   UNL d   1      27.514 -10.819   4.867  0.00  0.00    -0.356 N 
ATOM     12  H   UNL d   1      27.091 -10.265   5.608  0.00  0.00     0.162 HD
BRANCH  11  13
ATOM     13  C   UNL d   1      27.615 -10.248   3.535  0.00  0.00     0.084 C 
ATOM     14  C   UNL d   1      26.261 -10.130   2.845  0.00  0.00     0.025 C 
ATOM     15  C   UNL d   1      26.501  -9.180   1.692  0.00  0.00     0.002 C 
ATOM     16  C   UNL d   1      27.601  -8.240   2.165  0.00  0.00     0.002 C 
ATOM     17  C   UNL d   1      28.098  -8.793   3.505  0.00  0.00     0.025 C 
ENDBRANCH  11  13
ENDBRANCH   8   9
ENDBRANCH   7   8
ENDBRANCH   1   7
BRANCH   4  18
ATOM     18  C   UNL d   1      28.075 -16.466  -0.664  0.00  0.00     0.144 C 
BRANCH  18  19
ATOM     19  C   UNL d   1      26.848 -17.402  -0.711  0.00  0.00     0.139 C 
BRANCH  19  20
ATOM     20  N   UNL d   1      25.618 -16.776  -0.206  0.00  0.00    -0.388 N 
ATOM     21  H   UNL d   1      25.691 -16.274   0.678  0.00  0.00     0.159 HD
BRANCH  20  22
ATOM     22  C   UNL d   1      24.362 -17.344  -0.418  0.00  0.00     0.028 A 
ATOM     23  C   UNL d   1      23.276 -16.502  -0.714  0.00  0.00     0.031 A 
ATOM     24  C   UNL d   1      21.976 -17.004  -0.885  0.00  0.00     0.038 A 
ATOM     25  C   UNL d   1      21.761 -18.383  -0.827  0.00  0.00     0.103 A 
ATOM     26  C   UNL d   1      22.823 -19.244  -0.544  0.00  0.00     0.038 A 
ATOM     27  C   UNL d   1      24.109 -18.720  -0.347  0.00  0.00     0.031 A 
BRANCH  25  28
ATOM     28  N   UNL d   1      20.432 -18.938  -1.120  0.00  0.00    -0.116 N 
ATOM     29  O   UNL d   1      19.489 -18.596  -0.393  0.00  0.00    -0.532 OA
ATOM     30  O   UNL d   1      20.328 -19.699  -2.094  0.00  0.00    -0.532 OA
ENDBRANCH  25  28
ENDBRANCH  20  22
ENDBRANCH  19  20
ENDBRANCH  18  19
ENDBRANCH   4  18
TORSDOF 9
ENDMDL
MODEL 6
REMARK VINA RESULT:    -7.557      3.221      9.121
REMARK INTER + INTRA:         -11.664
REMARK INTER:                 -10.242
REMARK INTRA:                  -1.422
REMARK CONF_INDEPENDENT:        2.685
REMARK UNBOUND:                -1.422
REMARK  9 active torsions:
REMARK  status: ('A' for Active; 'I' for Inactive)
REMARK    1  A    between atoms: C_2  and  C_3 
REMARK       I    between atoms: C_2  and  N_21 
REMARK    2  A    between atoms: C_3  and  C_4 
REMARK    3  A    between atoms: C_4  and  N_5 
REMARK       I    between atoms: N_5  and  C_6 
REMARK       I    between atoms: C_6  and  N_8 
REMARK    4  A    between atoms: N_8  and  C_9 
REMARK    5  A    between atoms: C_9  and  C_10 
REMARK    6  A    between atoms: C_10  and  N_11 
REMARK    7  A    between atoms: N_11  and  C_12 
REMARK    8  A    between atoms: C_15  and  N_16 
REMARK    9  A    between atoms: N_21  and  C_22 
ROOT
ATOM      1  N   UNL d   1      28.136 -14.925   1.648  0.00  0.00    -0.343 N 
ATOM      2  C   UNL d   1      27.777 -14.355   2.848  0.00  0.00     0.316 C 
ATOM      3  O   UNL d   1      26.919 -13.479   2.939  0.00  0.00    -0.247 OA
ATOM      4  N   UNL d   1      28.461 -14.832   3.941  0.00  0.00    -0.342 N 
ATOM      5  H   UNL d   1      28.825 -15.661   1.626  0.00  0.00     0.164 HD
ATOM      6  H   UNL d   1      29.146 -15.562   3.824  0.00  0.00     0.164 HD
ENDROOT
BRANCH   1   7
ATOM      7  C   UNL d   1      27.480 -14.499   0.400  0.00  0.00     0.133 C 
BRANCH   7   8
ATOM      8  C   UNL d   1      26.436 -15.485  -0.121  0.00  0.00     0.122 C 
BRANCH   8   9
ATOM      9  C   UNL d   1      26.808 -16.948   0.107  0.00  0.00     0.219 C 
ATOM     10  O   UNL d   1      27.886 -17.294   0.585  0.00  0.00    -0.274 OA
ATOM     11  N   UNL d   1      25.896 -17.916  -0.244  0.00  0.00    -0.356 N 
ATOM     12  H   UNL d   1      26.214 -18.861  -0.043  0.00  0.00     0.162 HD
BRANCH  11  13
ATOM     13  C   UNL d   1      24.579 -17.728  -0.827  0.00  0.00     0.084 C 
ATOM     14  C   UNL d   1      23.652 -18.912  -0.573  0.00  0.00     0.025 C 
ATOM     15  C   UNL d   1      22.267 -18.385  -0.879  0.00  0.00     0.002 C 
ATOM     16  C   UNL d   1      22.310 -16.905  -0.528  0.00  0.00     0.002 C 
ATOM     17  C   UNL d   1      23.773 -16.578  -0.211  0.00  0.00     0.025 C 
ENDBRANCH  11  13
ENDBRANCH   8   9
ENDBRANCH   7   8
ENDBRANCH   1   7
BRANCH   4  18
ATOM     18  C   UNL d   1      28.171 -14.310   5.286  0.00  0.00     0.144 C 
BRANCH  18  19
ATOM     19  C   UNL d   1      29.090 -13.154   5.737  0.00  0.00     0.139 C 
BRANCH  19  20
ATOM     20  N   UNL d   1      29.533 -12.296   4.630  0.00  0.00    -0.388 N 
ATOM     21  H   UNL d   1      30.516 -12.025   4.629  0.00  0.00     0.159 HD
BRANCH  20  22
ATOM     22  C   UNL d   1      28.695 -11.340   4.057  0.00  0.00     0.028 A 
ATOM     23  C   UNL d   1      27.776 -10.662   4.877  0.00  0.00     0.031 A 
ATOM     24  C   UNL d   1      26.868  -9.728   4.353  0.00  0.00     0.038 A 
ATOM     25  C   UNL d   1      26.918  -9.410   2.993  0.00  0.00     0.103 A 
ATOM     26  C   UNL d   1      27.827 -10.063   2.158  0.00  0.00     0.038 A 
ATOM     27  C   UNL d   1      28.706 -11.013   2.695  0.00  0.00     0.031 A 
BRANCH  25  28
ATOM     28  N   UNL d   1      26.057  -8.351   2.448  0.00  0.00    -0.116 N 
ATOM     29  O   UNL d   1      25.154  -8.684   1.667  0.00  0.00    -0.532 OA
ATOM     30  O   UNL d   1      26.271  -7.188   2.820  0.00  0.00    -0.532 OA
ENDBRANCH  25  28
ENDBRANCH  20  22
ENDBRANCH  19  20
ENDBRANCH  18  19
ENDBRANCH   4  18
TORSDOF 9
ENDMDL
MODEL 7
REMARK VINA RESULT:    -7.165      4.614      8.601
REMARK INTER + INTRA:         -11.575
REMARK INTER:                  -9.850
REMARK INTRA:                  -1.725
REMARK CONF_INDEPENDENT:        2.685
REMARK UNBOUND:                -1.725
REMARK  9 active torsions:
REMARK  status: ('A' for Active; 'I' for Inactive)
REMARK    1  A    between atoms: C_2  and  C_3 
REMARK       I    between atoms: C_2  and  N_21 
REMARK    2  A    between atoms: C_3  and  C_4 
REMARK    3  A    between atoms: C_4  and  N_5 
REMARK       I    between atoms: N_5  and  C_6 
REMARK       I    between atoms: C_6  and  N_8 
REMARK    4  A    between atoms: N_8  and  C_9 
REMARK    5  A    between atoms: C_9  and  C_10 
REMARK    6  A    between atoms: C_10  and  N_11 
REMARK    7  A    between atoms: N_11  and  C_12 
REMARK    8  A    between atoms: C_15  and  N_16 
REMARK    9  A    between atoms: N_21  and  C_22 
ROOT
ATOM      1  N   UNL d   1      25.862 -16.613  -1.200  0.00  0.00    -0.343 N 
ATOM      2  C   UNL d   1      26.454 -15.792  -0.268  0.00  0.00     0.316 C 
ATOM      3  O   UNL d   1      25.900 -14.793   0.188  0.00  0.00    -0.247 OA
ATOM      4  N   UNL d   1      27.721 -16.168   0.110  0.00  0.00    -0.342 N 
ATOM      5  H   UNL d   1      26.343 -17.438  -1.523  0.00  0.00     0.164 HD
ATOM      6  H   UNL d   1      28.132 -17.004  -0.276  0.00  0.00     0.164 HD
ENDROOT
BRANCH   1   7
ATOM      7  C   UNL d   1      24.505 -16.318  -1.690  0.00  0.00     0.133 C 
BRANCH   7   8
ATOM      8  C   UNL d   1      23.397 -17.039  -0.923  0.00  0.00     0.122 C 
BRANCH   8   9
ATOM      9  C   UNL d   1      23.776 -18.450  -0.481  0.00  0.00     0.219 C 
ATOM     10  O   UNL d   1      24.934 -18.864  -0.495  0.00  0.00    -0.274 OA
ATOM     11  N   UNL d   1      22.776 -19.293  -0.055  0.00  0.00    -0.356 N 
ATOM     12  H   UNL d   1      23.115 -20.205   0.238  0.00  0.00     0.162 HD
BRANCH  11  13
ATOM     13  C   UNL d   1      21.353 -19.011   0.032  0.00  0.00     0.084 C 
ATOM     14  C   UNL d   1      20.621 -19.286  -1.277  0.00  0.00     0.025 C 
ATOM     15  C   UNL d   1      19.158 -19.331  -0.895  0.00  0.00     0.002 C 
ATOM     16  C   UNL d   1      19.129 -19.857   0.533  0.00  0.00     0.002 C 
ATOM     17  C   UNL d   1      20.587 -19.918   1.001  0.00  0.00     0.025 C 
ENDBRANCH  11  13
ENDBRANCH   8   9
ENDBRANCH   7   8
ENDBRANCH   1   7
BRANCH   4  18
ATOM     18  C   UNL d   1      28.467 -15.380   1.104  0.00  0.00     0.144 C 
BRANCH  18  19
ATOM     19  C   UNL d   1      29.868 -14.924   0.640  0.00  0.00     0.139 C 
BRANCH  19  20
ATOM     20  N   UNL d   1      29.838 -14.066  -0.551  0.00  0.00    -0.388 N 
ATOM     21  H   UNL d   1      29.905 -13.062  -0.392  0.00  0.00     0.159 HD
BRANCH  20  22
ATOM     22  C   UNL d   1      29.090 -14.398  -1.681  0.00  0.00     0.028 A 
ATOM     23  C   UNL d   1      28.097 -13.508  -2.125  0.00  0.00     0.031 A 
ATOM     24  C   UNL d   1      27.275 -13.807  -3.223  0.00  0.00     0.038 A 
ATOM     25  C   UNL d   1      27.486 -14.988  -3.938  0.00  0.00     0.103 A 
ATOM     26  C   UNL d   1      28.471 -15.887  -3.523  0.00  0.00     0.038 A 
ATOM     27  C   UNL d   1      29.263 -15.583  -2.407  0.00  0.00     0.031 A 
BRANCH  25  28
ATOM     28  N   UNL d   1      26.715 -15.263  -5.158  0.00  0.00    -0.116 N 
ATOM     29  O   UNL d   1      27.309 -15.198  -6.244  0.00  0.00    -0.532 OA
ATOM     30  O   UNL d   1      25.520 -15.567  -5.028  0.00  0.00    -0.532 OA
ENDBRANCH  25  28
ENDBRANCH  20  22
ENDBRANCH  19  20
ENDBRANCH  18  19
ENDBRANCH   4  18
TORSDOF 9
ENDMDL
MODEL 8
REMARK VINA RESULT:    -7.149      4.743      7.133
REMARK INTER + INTRA:         -11.919
REMARK INTER:                  -9.833
REMARK INTRA:                  -2.086
REMARK CONF_INDEPENDENT:        2.685
REMARK UNBOUND:                -2.086
REMARK  9 active torsions:
REMARK  status: ('A' for Active; 'I' for Inactive)
REMARK    1  A    between atoms: C_2  and  C_3 
REMARK       I    between atoms: C_2  and  N_21 
REMARK    2  A    between atoms: C_3  and  C_4 
REMARK    3  A    between atoms: C_4  and  N_5 
REMARK       I    between atoms: N_5  and  C_6 
REMARK       I    between atoms: C_6  and  N_8 
REMARK    4  A    between atoms: N_8  and  C_9 
REMARK    5  A    between atoms: C_9  and  C_10 
REMARK    6  A    between atoms: C_10  and  N_11 
REMARK    7  A    between atoms: N_11  and  C_12 
REMARK    8  A    between atoms: C_15  and  N_16 
REMARK    9  A    between atoms: N_21  and  C_22 
ROOT
ATOM      1  N   UNL d   1      28.382 -13.439  -1.178  0.00  0.00    -0.343 N 
ATOM      2  C   UNL d   1      27.836 -14.391  -0.348  0.00  0.00     0.316 C 
ATOM      3  O   UNL d   1      26.782 -14.218   0.262  0.00  0.00    -0.247 OA
ATOM      4  N   UNL d   1      28.564 -15.552  -0.244  0.00  0.00    -0.342 N 
ATOM      5  H   UNL d   1      29.233 -13.637  -1.681  0.00  0.00     0.164 HD
ATOM      6  H   UNL d   1      29.415 -15.660  -0.774  0.00  0.00     0.164 HD
ENDROOT
BRANCH   1   7
ATOM      7  C   UNL d   1      27.699 -12.149  -1.374  0.00  0.00     0.133 C 
BRANCH   7   8
ATOM      8  C   UNL d   1      27.589 -11.719  -2.836  0.00  0.00     0.122 C 
BRANCH   8   9
ATOM      9  C   UNL d   1      26.275 -11.016  -3.170  0.00  0.00     0.219 C 
ATOM     10  O   UNL d   1      26.108  -9.808  -3.015  0.00  0.00    -0.274 OA
ATOM     11  N   UNL d   1      25.236 -11.772  -3.659  0.00  0.00    -0.356 N 
ATOM     12  H   UNL d   1      24.405 -11.226  -3.873  0.00  0.00     0.162 HD
BRANCH  11  13
ATOM     13  C   UNL d   1      25.217 -13.203  -3.908  0.00  0.00     0.084 C 
ATOM     14  C   UNL d   1      26.370 -13.658  -4.796  0.00  0.00     0.025 C 
ATOM     15  C   UNL d   1      26.424 -15.159  -4.614  0.00  0.00     0.002 C 
ATOM     16  C   UNL d   1      25.940 -15.412  -3.193  0.00  0.00     0.002 C 
ATOM     17  C   UNL d   1      25.439 -14.065  -2.660  0.00  0.00     0.025 C 
ENDBRANCH  11  13
ENDBRANCH   8   9
ENDBRANCH   7   8
ENDBRANCH   1   7
BRANCH   4  18
ATOM     18  C   UNL d   1      28.091 -16.655   0.608  0.00  0.00     0.144 C 
BRANCH  18  19
ATOM     19  C   UNL d   1      26.922 -17.469   0.012  0.00  0.00     0.139 C 
BRANCH  19  20
ATOM     20  N   UNL d   1      25.759 -16.645  -0.345  0.00  0.00    -0.388 N 
ATOM     21  H   UNL d   1      25.735 -15.700   0.037  0.00  0.00     0.159 HD
BRANCH  20  22
ATOM     22  C   UNL d   1      24.493 -17.198  -0.533  0.00  0.00     0.028 A 
ATOM     23  C   UNL d   1      23.401 -16.340  -0.749  0.00  0.00     0.031 A 
ATOM     24  C   UNL d   1      22.093 -16.830  -0.892  0.00  0.00     0.038 A 
ATOM     25  C   UNL d   1      21.872 -18.210  -0.886  0.00  0.00     0.103 A 
ATOM     26  C   UNL d   1      22.941 -19.086  -0.682  0.00  0.00     0.038 A 
ATOM     27  C   UNL d   1      24.235 -18.575  -0.513  0.00  0.00     0.031 A 
BRANCH  25  28
ATOM     28  N   UNL d   1      20.531 -18.746  -1.151  0.00  0.00    -0.116 N 
ATOM     29  O   UNL d   1      20.435 -19.710  -1.924  0.00  0.00    -0.532 OA
ATOM     30  O   UNL d   1      19.573 -18.216  -0.568  0.00  0.00    -0.532 OA
ENDBRANCH  25  28
ENDBRANCH  20  22
ENDBRANCH  19  20
ENDBRANCH  18  19
ENDBRANCH   4  18
TORSDOF 9
ENDMDL
MODEL 9
REMARK VINA RESULT:    -6.877      3.984      8.862
REMARK INTER + INTRA:         -11.551
REMARK INTER:                  -9.562
REMARK INTRA:                  -1.990
REMARK CONF_INDEPENDENT:        2.685
REMARK UNBOUND:                -1.990
REMARK  9 active torsions:
REMARK  status: ('A' for Active; 'I' for Inactive)
REMARK    1  A    between atoms: C_2  and  C_3 
REMARK       I    between atoms: C_2  and  N_21 
REMARK    2  A    between atoms: C_3  and  C_4 
REMARK    3  A    between atoms: C_4  and  N_5 
REMARK       I    between atoms: N_5  and  C_6 
REMARK       I    between atoms: C_6  and  N_8 
REMARK    4  A    between atoms: N_8  and  C_9 
REMARK    5  A    between atoms: C_9  and  C_10 
REMARK    6  A    between atoms: C_10  and  N_11 
REMARK    7  A    between atoms: N_11  and  C_12 
REMARK    8  A    between atoms: C_15  and  N_16 
REMARK    9  A    between atoms: N_21  and  C_22 
ROOT
ATOM      1  N   UNL d   1      29.374 -16.568   0.141  0.00  0.00    -0.343 N 
ATOM      2  C   UNL d   1      29.665 -15.269   0.489  0.00  0.00     0.316 C 
ATOM      3  O   UNL d   1      29.253 -14.301  -0.148  0.00  0.00    -0.247 OA
ATOM      4  N   UNL d   1      30.462 -15.134   1.600  0.00  0.00    -0.342 N 
ATOM      5  H   UNL d   1      29.710 -17.329   0.710  0.00  0.00     0.164 HD
ATOM      6  H   UNL d   1      30.765 -15.954   2.102  0.00  0.00     0.164 HD
ENDROOT
BRANCH   1   7
ATOM      7  C   UNL d   1      28.530 -16.848  -1.034  0.00  0.00     0.133 C 
BRANCH   7   8
ATOM      8  C   UNL d   1      27.084 -17.200  -0.690  0.00  0.00     0.122 C 
BRANCH   8   9
ATOM      9  C   UNL d   1      26.298 -16.039  -0.085  0.00  0.00     0.219 C 
ATOM     10  O   UNL d   1      26.841 -15.085   0.469  0.00  0.00    -0.274 OA
ATOM     11  N   UNL d   1      24.925 -16.068  -0.161  0.00  0.00    -0.356 N 
ATOM     12  H   UNL d   1      24.481 -15.251   0.248  0.00  0.00     0.162 HD
BRANCH  11  13
ATOM     13  C   UNL d   1      24.090 -17.095  -0.760  0.00  0.00     0.084 C 
ATOM     14  C   UNL d   1      24.198 -18.433  -0.036  0.00  0.00     0.025 C 
ATOM     15  C   UNL d   1      23.004 -19.226  -0.521  0.00  0.00     0.002 C 
ATOM     16  C   UNL d   1      21.922 -18.195  -0.809  0.00  0.00     0.002 C 
ATOM     17  C   UNL d   1      22.585 -16.821  -0.665  0.00  0.00     0.025 C 
ENDBRANCH  11  13
ENDBRANCH   8   9
ENDBRANCH   7   8
ENDBRANCH   1   7
BRANCH   4  18
ATOM     18  C   UNL d   1      30.846 -13.798   2.084  0.00  0.00     0.144 C 
BRANCH  18  19
ATOM     19  C   UNL d   1      29.804 -13.127   3.004  0.00  0.00     0.139 C 
BRANCH  19  20
ATOM     20  N   UNL d   1      28.467 -13.036   2.403  0.00  0.00    -0.388 N 
ATOM     21  H   UNL d   1      28.268 -13.676   1.636  0.00  0.00     0.159 HD
BRANCH  20  22
ATOM     22  C   UNL d   1      27.783 -11.825   2.306  0.00  0.00     0.028 A 
ATOM     23  C   UNL d   1      27.675 -11.204   1.049  0.00  0.00     0.031 A 
ATOM     24  C   UNL d   1      27.046  -9.959   0.891  0.00  0.00     0.038 A 
ATOM     25  C   UNL d   1      26.452  -9.345   1.997  0.00  0.00     0.103 A 
ATOM     26  C   UNL d   1      26.536  -9.944   3.256  0.00  0.00     0.038 A 
ATOM     27  C   UNL d   1      27.194 -11.174   3.397  0.00  0.00     0.031 A 
BRANCH  25  28
ATOM     28  N   UNL d   1      25.688  -8.101   1.831  0.00  0.00    -0.116 N 
ATOM     29  O   UNL d   1      24.781  -8.087   0.986  0.00  0.00    -0.532 OA
ATOM     30  O   UNL d   1      25.980  -7.144   2.564  0.00  0.00    -0.532 OA
ENDBRANCH  25  28
ENDBRANCH  20  22
ENDBRANCH  19  20
ENDBRANCH  18  19
ENDBRANCH   4  18
TORSDOF 9
ENDMDL
