MODEL 1
REMARK VINA RESULT:    -8.984      0.000      0.000
REMARK INTER + INTRA:         -13.925
REMARK INTER:                 -11.669
REMARK INTRA:                  -2.257
REMARK CONF_INDEPENDENT:        2.685
REMARK UNBOUND:                -2.257
REMARK  9 active torsions:
REMARK  status: ('A' for Active; 'I' for Inactive)
REMARK    1  A    between atoms: CA_4  and  C_2 
REMARK    2  A    between atoms: CA_4  and  N_15 
REMARK    3  A    between atoms: CA_4  and  CB_5 
REMARK    4  A    between atoms: CB_5  and  CG_6 
REMARK       I    between atoms: N_15  and  C_16 
REMARK    5  A    between atoms: C_16  and  C_18 
REMARK    6  A    between atoms: C_18  and  C_19 
REMARK    7  A    between atoms: C_18  and  N_26 
REMARK    8  A    between atoms: C_19  and  C_20 
REMARK    9  A    between atoms: C_36  and  O_37 
ROOT
ATOM      1  C   UNK d   0      25.622 -15.746  -1.892  0.00  0.00     0.188 C 
ENDROOT
BRANCH   1   2
ATOM      2  C   UNK d   0      26.275 -15.450  -0.505  0.00  0.00     0.241 C 
ATOM      3  N   TRP d   1      26.740 -14.164  -0.265  0.00  0.00    -0.344 N 
ATOM      4  H   TRP d   1      26.866 -13.488  -1.002  0.00  0.00     0.163 HD
ATOM      5  O   UNK d   0      26.471 -16.360   0.300  0.00  0.00    -0.271 OA
BRANCH   3   6
ATOM      6  CA  TRP d   1      27.281 -13.802   1.076  0.00  0.00     0.190 C 
BRANCH   6   7
ATOM      7  CB  TRP d   1      28.418 -14.760   1.517  0.00  0.00     0.077 C 
BRANCH   7   8
ATOM      8  CG  TRP d   1      29.298 -14.285   2.652  0.00  0.00    -0.028 A 
ATOM      9  CD1 TRP d   1      30.676 -14.216   2.712  0.00  0.00     0.096 A 
ATOM     10  NE1 TRP d   1      31.039 -13.736   3.941  0.00  0.00    -0.365 N 
ATOM     11  CE2 TRP d   1      29.927 -13.539   4.724  0.00  0.00     0.042 A 
ATOM     12  HE1 TRP d   1      31.993 -13.592   4.238  0.00  0.00     0.165 HD
ATOM     13  CZ2 TRP d   1      29.816 -13.122   6.056  0.00  0.00     0.030 A 
ATOM     14  CD2 TRP d   1      28.821 -13.865   3.940  0.00  0.00    -0.002 A 
ATOM     15  CH2 TRP d   1      28.531 -13.056   6.607  0.00  0.00     0.002 A 
ATOM     16  CZ3 TRP d   1      27.405 -13.370   5.849  0.00  0.00     0.001 A 
ATOM     17  CE3 TRP d   1      27.537 -13.763   4.513  0.00  0.00     0.014 A 
ENDBRANCH   7   8
ENDBRANCH   6   7
BRANCH   6  18
ATOM     18  C   TRP d   1      27.740 -12.290   1.143  0.00  0.00     0.197 C 
ATOM     19  O   TRP d   1      27.700 -11.743   2.284  0.00  0.00    -0.646 OA
ATOM     20  OXT TRP d   1      28.050 -11.740   0.047  0.00  0.00    -0.646 OA
ENDBRANCH   6  18
ENDBRANCH   3   6
ENDBRANCH   1   2
BRANCH   1  21
ATOM     21  C   UNK d   0      24.080 -15.710  -1.646  0.00  0.00     0.073 C 
BRANCH  21  22
ATOM     22  C   UNK d   0      23.444 -17.000  -1.171  0.00  0.00    -0.056 A 
ATOM     23  C   UNK d   0      22.069 -17.064  -0.895  0.00  0.00     0.007 A 
ATOM     24  C   UNK d   0      21.506 -18.231  -0.383  0.00  0.00     0.001 A 
ATOM     25  C   UNK d   0      22.296 -19.363  -0.201  0.00  0.00     0.000 A 
ATOM     26  C   UNK d   0      23.653 -19.327  -0.520  0.00  0.00     0.001 A 
ATOM     27  C   UNK d   0      24.227 -18.150  -0.999  0.00  0.00     0.007 A 
ENDBRANCH  21  22
ENDBRANCH   1  21
BRANCH   1  28
ATOM     28  N   UNK d   0      26.042 -14.849  -3.044  0.00  0.00    -0.290 N 
ATOM     29  C   UNK d   0      27.264 -15.065  -3.663  0.00  0.00     0.260 C 
ATOM     30  O   UNK d   0      28.144 -15.811  -3.265  0.00  0.00    -0.267 OA
ATOM     31  C   UNK d   0      27.525 -14.286  -4.881  0.00  0.00     0.058 C 
ATOM     32  C   UNK d   0      28.238 -14.825  -5.945  0.00  0.00     0.019 C 
ATOM     33  C   UNK d   0      27.008 -12.996  -4.921  0.00  0.00     0.047 C 
ATOM     34  C   UNK d   0      28.546 -14.011  -7.029  0.00  0.00     0.001 C 
ATOM     35  C   UNK d   0      28.154 -12.669  -7.023  0.00  0.00     0.002 C 
ATOM     36  C   UNK d   0      27.417 -12.145  -5.950  0.00  0.00     0.030 C 
ATOM     37  N   UNK d   0      25.977 -12.653  -4.044  0.00  0.00    -0.346 N 
ATOM     38  C   UNK d   0      25.185 -13.785  -3.541  0.00  0.00     0.332 C 
ATOM     39  H   UNK d   0      26.211 -11.965  -3.334  0.00  0.00     0.164 HD
BRANCH  38  40
ATOM     40  O   UNK d   0      24.449 -14.293  -4.635  0.00  0.00    -0.359 OA
ATOM     41  H   UNK d   0      24.013 -13.522  -5.021  0.00  0.00     0.214 HD
ENDBRANCH  38  40
ENDBRANCH   1  28
TORSDOF 9
ENDMDL
MODEL 2
REMARK VINA RESULT:    -8.528      3.347      8.671
REMARK INTER + INTRA:         -14.035
REMARK INTER:                 -11.212
REMARK INTRA:                  -2.823
REMARK CONF_INDEPENDENT:        2.685
REMARK UNBOUND:                -2.823
REMARK  9 active torsions:
REMARK  status: ('A' for Active; 'I' for Inactive)
REMARK    1  A    between atoms: CA_4  and  C_2 
REMARK    2  A    between atoms: CA_4  and  N_15 
REMARK    3  A    between atoms: CA_4  and  CB_5 
REMARK    4  A    between atoms: CB_5  and  CG_6 
REMARK       I    between atoms: N_15  and  C_16 
REMARK    5  A    between atoms: C_16  and  C_18 
REMARK    6  A    between atoms: C_18  and  C_19 
REMARK    7  A    between atoms: C_18  and  N_26 
REMARK    8  A    between atoms: C_19  and  C_20 
REMARK    9  A    between atoms: C_36  and  O_37 
ROOT
ATOM      1  C   UNK d   0      27.961 -12.912   2.534  0.00  0.00     0.188 C 
ENDROOT
BRANCH   1   2
ATOM      2  C   UNK d   0      28.126 -11.424   2.093  0.00  0.00     0.241 C 
ATOM      3  N   TRP d   1      26.983 -10.639   2.007  0.00  0.00    -0.344 N 
ATOM      4  H   TRP d   1      26.055 -11.033   2.009  0.00  0.00     0.163 HD
ATOM      5  O   UNK d   0      29.220 -10.999   1.724  0.00  0.00    -0.271 OA
BRANCH   3   6
ATOM      6  CA  TRP d   1      27.094  -9.187   1.688  0.00  0.00     0.190 C 
BRANCH   6   7
ATOM      7  CB  TRP d   1      27.811  -8.948   0.334  0.00  0.00     0.077 C 
BRANCH   7   8
ATOM      8  CG  TRP d   1      26.949  -9.015  -0.907  0.00  0.00    -0.028 A 
ATOM      9  CD1 TRP d   1      26.034  -8.094  -1.380  0.00  0.00     0.096 A 
ATOM     10  NE1 TRP d   1      25.478  -8.579  -2.532  0.00  0.00    -0.365 N 
ATOM     11  CE2 TRP d   1      25.962  -9.836  -2.804  0.00  0.00     0.042 A 
ATOM     12  HE1 TRP d   1      24.778  -8.096  -3.075  0.00  0.00     0.165 HD
ATOM     13  CZ2 TRP d   1      25.639 -10.733  -3.830  0.00  0.00     0.030 A 
ATOM     14  CD2 TRP d   1      26.894 -10.132  -1.809  0.00  0.00    -0.002 A 
ATOM     15  CH2 TRP d   1      26.276 -11.979  -3.823  0.00  0.00     0.002 A 
ATOM     16  CZ3 TRP d   1      27.215 -12.303  -2.847  0.00  0.00     0.001 A 
ATOM     17  CE3 TRP d   1      27.540 -11.384  -1.843  0.00  0.00     0.014 A 
ENDBRANCH   7   8
ENDBRANCH   6   7
BRANCH   6  18
ATOM     18  C   TRP d   1      25.691  -8.460   1.736  0.00  0.00     0.197 C 
ATOM     19  O   TRP d   1      25.718  -7.194   1.750  0.00  0.00    -0.646 OA
ATOM     20  OXT TRP d   1      24.669  -9.199   1.818  0.00  0.00    -0.646 OA
ENDBRANCH   6  18
ENDBRANCH   3   6
ENDBRANCH   1   2
BRANCH   1  21
ATOM     21  C   UNK d   0      28.591 -13.762   1.385  0.00  0.00     0.073 C 
BRANCH  21  22
ATOM     22  C   UNK d   0      27.668 -14.740   0.687  0.00  0.00    -0.056 A 
ATOM     23  C   UNK d   0      26.686 -14.286  -0.208  0.00  0.00     0.007 A 
ATOM     24  C   UNK d   0      25.789 -15.183  -0.785  0.00  0.00     0.001 A 
ATOM     25  C   UNK d   0      25.904 -16.547  -0.524  0.00  0.00     0.000 A 
ATOM     26  C   UNK d   0      26.908 -17.014   0.324  0.00  0.00     0.001 A 
ATOM     27  C   UNK d   0      27.784 -16.115   0.930  0.00  0.00     0.007 A 
ENDBRANCH  21  22
ENDBRANCH   1  21
BRANCH   1  28
ATOM     28  N   UNK d   0      28.520 -13.281   3.897  0.00  0.00    -0.290 N 
ATOM     29  C   UNK d   0      28.353 -12.407   4.960  0.00  0.00     0.260 C 
ATOM     30  O   UNK d   0      27.941 -11.261   4.885  0.00  0.00    -0.267 OA
ATOM     31  C   UNK d   0      28.754 -12.905   6.283  0.00  0.00     0.058 C 
ATOM     32  C   UNK d   0      28.054 -12.552   7.431  0.00  0.00     0.019 C 
ATOM     33  C   UNK d   0      29.851 -13.758   6.325  0.00  0.00     0.047 C 
ATOM     34  C   UNK d   0      28.537 -12.965   8.667  0.00  0.00     0.001 C 
ATOM     35  C   UNK d   0      29.720 -13.708   8.737  0.00  0.00     0.002 C 
ATOM     36  C   UNK d   0      30.403 -14.074   7.568  0.00  0.00     0.030 C 
ATOM     37  N   UNK d   0      30.250 -14.402   5.153  0.00  0.00    -0.346 N 
ATOM     38  C   UNK d   0      29.203 -14.544   4.131  0.00  0.00     0.332 C 
ATOM     39  H   UNK d   0      31.154 -14.124   4.781  0.00  0.00     0.164 HD
BRANCH  38  40
ATOM     40  O   UNK d   0      28.256 -15.465   4.633  0.00  0.00    -0.359 OA
ATOM     41  H   UNK d   0      28.351 -16.248   4.076  0.00  0.00     0.214 HD
ENDBRANCH  38  40
ENDBRANCH   1  28
TORSDOF 9
ENDMDL
MODEL 3
REMARK VINA RESULT:    -7.818      3.125      8.449
REMARK INTER + INTRA:         -14.143
REMARK INTER:                 -10.503
REMARK INTRA:                  -3.640
REMARK CONF_INDEPENDENT:        2.685
REMARK UNBOUND:                -3.640
REMARK  9 active torsions:
REMARK  status: ('A' for Active; 'I' for Inactive)
REMARK    1  A    between atoms: CA_4  and  C_2 
REMARK    2  A    between atoms: CA_4  and  N_15 
REMARK    3  A    between atoms: CA_4  and  CB_5 
REMARK    4  A    between atoms: CB_5  and  CG_6 
REMARK       I    between atoms: N_15  and  C_16 
REMARK    5  A    between atoms: C_16  and  C_18 
REMARK    6  A    between atoms: C_18  and  C_19 
REMARK    7  A    between atoms: C_18  and  N_26 
REMARK    8  A    between atoms: C_19  and  C_20 
REMARK    9  A    between atoms: C_36  and  O_37 
ROOT
ATOM      1  C   UNK d   0      29.441 -14.965  -0.839  0.00  0.00     0.188 C 
ENDROOT
BRANCH   1   2
ATOM      2  C   UNK d   0      29.845 -14.773  -2.335  0.00  0.00     0.241 C 
ATOM      3  N   TRP d   1      28.891 -15.040  -3.307  0.00  0.00    -0.344 N 
ATOM      4  H   TRP d   1      28.041 -15.544  -3.107  0.00  0.00     0.163 HD
ATOM      5  O   UNK d   0      31.006 -14.504  -2.639  0.00  0.00    -0.271 OA
BRANCH   3   6
ATOM      6  CA  TRP d   1      29.191 -14.779  -4.744  0.00  0.00     0.190 C 
BRANCH   6   7
ATOM      7  CB  TRP d   1      30.489 -15.495  -5.200  0.00  0.00     0.077 C 
BRANCH   7   8
ATOM      8  CG  TRP d   1      30.506 -17.003  -5.078  0.00  0.00    -0.028 A 
ATOM      9  CD1 TRP d   1      30.401 -17.784  -3.944  0.00  0.00     0.096 A 
ATOM     10  NE1 TRP d   1      30.481 -19.100  -4.307  0.00  0.00    -0.365 N 
ATOM     11  CE2 TRP d   1      30.696 -19.210  -5.660  0.00  0.00     0.042 A 
ATOM     12  HE1 TRP d   1      30.431 -19.875  -3.662  0.00  0.00     0.165 HD
ATOM     13  CZ2 TRP d   1      30.901 -20.341  -6.460  0.00  0.00     0.030 A 
ATOM     14  CD2 TRP d   1      30.707 -17.912  -6.172  0.00  0.00    -0.002 A 
ATOM     15  CH2 TRP d   1      31.144 -20.134  -7.822  0.00  0.00     0.002 A 
ATOM     16  CZ3 TRP d   1      31.155 -18.851  -8.365  0.00  0.00     0.001 A 
ATOM     17  CE3 TRP d   1      30.927 -17.735  -7.553  0.00  0.00     0.014 A 
ENDBRANCH   7   8
ENDBRANCH   6   7
BRANCH   6  18
ATOM     18  C   TRP d   1      27.970 -15.141  -5.681  0.00  0.00     0.197 C 
ATOM     19  O   TRP d   1      26.930 -15.574  -5.103  0.00  0.00    -0.646 OA
ATOM     20  OXT TRP d   1      28.155 -15.025  -6.927  0.00  0.00    -0.646 OA
ENDBRANCH   6  18
ENDBRANCH   3   6
ENDBRANCH   1   2
BRANCH   1  21
ATOM     21  C   UNK d   0      29.198 -13.526  -0.283  0.00  0.00     0.073 C 
BRANCH  21  22
ATOM     22  C   UNK d   0      28.557 -13.434   1.087  0.00  0.00    -0.056 A 
ATOM     23  C   UNK d   0      29.243 -13.870   2.232  0.00  0.00     0.007 A 
ATOM     24  C   UNK d   0      28.617 -13.856   3.476  0.00  0.00     0.001 A 
ATOM     25  C   UNK d   0      27.326 -13.348   3.600  0.00  0.00     0.000 A 
ATOM     26  C   UNK d   0      26.654 -12.865   2.478  0.00  0.00     0.001 A 
ATOM     27  C   UNK d   0      27.264 -12.910   1.225  0.00  0.00     0.007 A 
ENDBRANCH  21  22
ENDBRANCH   1  21
BRANCH   1  28
ATOM     28  N   UNK d   0      28.269 -15.892  -0.567  0.00  0.00    -0.290 N 
ATOM     29  C   UNK d   0      27.029 -15.601  -1.117  0.00  0.00     0.260 C 
ATOM     30  O   UNK d   0      26.722 -14.560  -1.674  0.00  0.00    -0.267 OA
ATOM     31  C   UNK d   0      25.992 -16.631  -0.967  0.00  0.00     0.058 C 
ATOM     32  C   UNK d   0      25.052 -16.861  -1.966  0.00  0.00     0.019 C 
ATOM     33  C   UNK d   0      26.011 -17.373   0.208  0.00  0.00     0.047 C 
ATOM     34  C   UNK d   0      24.030 -17.773  -1.730  0.00  0.00     0.001 C 
ATOM     35  C   UNK d   0      23.954 -18.427  -0.496  0.00  0.00     0.002 C 
ATOM     36  C   UNK d   0      24.922 -18.199   0.493  0.00  0.00     0.030 C 
ATOM     37  N   UNK d   0      27.181 -17.402   0.970  0.00  0.00    -0.346 N 
ATOM     38  C   UNK d   0      28.415 -17.100   0.230  0.00  0.00     0.332 C 
ATOM     39  H   UNK d   0      27.126 -16.955   1.881  0.00  0.00     0.164 HD
BRANCH  38  40
ATOM     40  O   UNK d   0      28.642 -18.180  -0.652  0.00  0.00    -0.359 OA
ATOM     41  H   UNK d   0      29.056 -18.863  -0.108  0.00  0.00     0.214 HD
ENDBRANCH  38  40
ENDBRANCH   1  28
TORSDOF 9
ENDMDL
MODEL 4
REMARK VINA RESULT:    -7.291      2.224      7.916
REMARK INTER + INTRA:         -13.954
REMARK INTER:                  -9.976
REMARK INTRA:                  -3.978
REMARK CONF_INDEPENDENT:        2.685
REMARK UNBOUND:                -3.978
REMARK  9 active torsions:
REMARK  status: ('A' for Active; 'I' for Inactive)
REMARK    1  A    between atoms: CA_4  and  C_2 
REMARK    2  A    between atoms: CA_4  and  N_15 
REMARK    3  A    between atoms: CA_4  and  CB_5 
REMARK    4  A    between atoms: CB_5  and  CG_6 
REMARK       I    between atoms: N_15  and  C_16 
REMARK    5  A    between atoms: C_16  and  C_18 
REMARK    6  A    between atoms: C_18  and  C_19 
REMARK    7  A    between atoms: C_18  and  N_26 
REMARK    8  A    between atoms: C_19  and  C_20 
REMARK    9  A    between atoms: C_36  and  O_37 
ROOT
ATOM      1  C   UNK d   0      28.627 -12.140  -0.286  0.00  0.00     0.188 C 
ENDROOT
BRANCH   1   2
ATOM      2  C   UNK d   0      28.471 -12.972  -1.598  0.00  0.00     0.241 C 
ATOM      3  N   TRP d   1      27.192 -13.359  -1.976  0.00  0.00    -0.344 N 
ATOM      4  H   TRP d   1      26.405 -13.313  -1.348  0.00  0.00     0.163 HD
ATOM      5  O   UNK d   0      29.463 -13.366  -2.209  0.00  0.00    -0.271 OA
BRANCH   3   6
ATOM      6  CA  TRP d   1      26.976 -14.069  -3.269  0.00  0.00     0.190 C 
BRANCH   6   7
ATOM      7  CB  TRP d   1      27.694 -15.443  -3.299  0.00  0.00     0.077 C 
BRANCH   7   8
ATOM      8  CG  TRP d   1      27.704 -16.227  -2.005  0.00  0.00    -0.028 A 
ATOM      9  CD1 TRP d   1      28.780 -16.610  -1.229  0.00  0.00     0.096 A 
ATOM     10  NE1 TRP d   1      28.317 -17.316  -0.153  0.00  0.00    -0.365 N 
ATOM     11  CE2 TRP d   1      26.953 -17.463  -0.229  0.00  0.00     0.042 A 
ATOM     12  HE1 TRP d   1      28.905 -17.709   0.567  0.00  0.00     0.165 HD
ATOM     13  CZ2 TRP d   1      26.065 -18.153   0.605  0.00  0.00     0.030 A 
ATOM     14  CD2 TRP d   1      26.539 -16.782  -1.374  0.00  0.00    -0.002 A 
ATOM     15  CH2 TRP d   1      24.713 -18.163   0.243  0.00  0.00     0.002 A 
ATOM     16  CZ3 TRP d   1      24.267 -17.488  -0.891  0.00  0.00     0.001 A 
ATOM     17  CE3 TRP d   1      25.167 -16.785  -1.699  0.00  0.00     0.014 A 
ENDBRANCH   7   8
ENDBRANCH   6   7
BRANCH   6  18
ATOM     18  C   TRP d   1      25.441 -14.209  -3.620  0.00  0.00     0.197 C 
ATOM     19  O   TRP d   1      24.628 -13.742  -2.770  0.00  0.00    -0.646 OA
ATOM     20  OXT TRP d   1      25.155 -14.826  -4.686  0.00  0.00    -0.646 OA
ENDBRANCH   6  18
ENDBRANCH   3   6
ENDBRANCH   1   2
BRANCH   1  21
ATOM     21  C   UNK d   0      27.648 -10.933  -0.436  0.00  0.00     0.073 C 
BRANCH  21  22
ATOM     22  C   UNK d   0      27.410 -10.101   0.807  0.00  0.00    -0.056 A 
ATOM     23  C   UNK d   0      28.135  -8.920   1.032  0.00  0.00     0.007 A 
ATOM     24  C   UNK d   0      27.966  -8.203   2.214  0.00  0.00     0.001 A 
ATOM     25  C   UNK d   0      27.029  -8.623   3.155  0.00  0.00     0.000 A 
ATOM     26  C   UNK d   0      26.267  -9.767   2.920  0.00  0.00     0.001 A 
ATOM     27  C   UNK d   0      26.458 -10.506   1.754  0.00  0.00     0.007 A 
ENDBRANCH  21  22
ENDBRANCH   1  21
BRANCH   1  28
ATOM     28  N   UNK d   0      28.421 -12.889   1.020  0.00  0.00    -0.290 N 
ATOM     29  C   UNK d   0      29.005 -12.405   2.181  0.00  0.00     0.260 C 
ATOM     30  O   UNK d   0      29.832 -11.509   2.245  0.00  0.00    -0.267 OA
ATOM     31  C   UNK d   0      28.616 -13.069   3.432  0.00  0.00     0.058 C 
ATOM     32  C   UNK d   0      28.486 -12.357   4.619  0.00  0.00     0.019 C 
ATOM     33  C   UNK d   0      28.366 -14.435   3.365  0.00  0.00     0.047 C 
ATOM     34  C   UNK d   0      28.219 -13.050   5.794  0.00  0.00     0.001 C 
ATOM     35  C   UNK d   0      28.103 -14.443   5.767  0.00  0.00     0.002 C 
ATOM     36  C   UNK d   0      28.217 -15.146   4.558  0.00  0.00     0.030 C 
ATOM     37  N   UNK d   0      28.104 -15.013   2.121  0.00  0.00    -0.346 N 
ATOM     38  C   UNK d   0      27.600 -14.087   1.097  0.00  0.00     0.332 C 
ATOM     39  H   UNK d   0      28.805 -15.665   1.780  0.00  0.00     0.164 HD
BRANCH  38  40
ATOM     40  O   UNK d   0      26.300 -13.700   1.493  0.00  0.00    -0.359 OA
ATOM     41  H   UNK d   0      25.715 -14.063   0.815  0.00  0.00     0.214 HD
ENDBRANCH  38  40
ENDBRANCH   1  28
TORSDOF 9
ENDMDL
MODEL 5
REMARK VINA RESULT:    -7.250      3.100      7.461
REMARK INTER + INTRA:         -14.043
REMARK INTER:                  -9.935
REMARK INTRA:                  -4.108
REMARK CONF_INDEPENDENT:        2.685
REMARK UNBOUND:                -4.108
REMARK  9 active torsions:
REMARK  status: ('A' for Active; 'I' for Inactive)
REMARK    1  A    between atoms: CA_4  and  C_2 
REMARK    2  A    between atoms: CA_4  and  N_15 
REMARK    3  A    between atoms: CA_4  and  CB_5 
REMARK    4  A    between atoms: CB_5  and  CG_6 
REMARK       I    between atoms: N_15  and  C_16 
REMARK    5  A    between atoms: C_16  and  C_18 
REMARK    6  A    between atoms: C_18  and  C_19 
REMARK    7  A    between atoms: C_18  and  N_26 
REMARK    8  A    between atoms: C_19  and  C_20 
REMARK    9  A    between atoms: C_36  and  O_37 
ROOT
ATOM      1  C   UNK d   0      28.443 -12.868   2.717  0.00  0.00     0.188 C 
ENDROOT
BRANCH   1   2
ATOM      2  C   UNK d   0      28.446 -11.344   2.378  0.00  0.00     0.241 C 
ATOM      3  N   TRP d   1      27.223 -10.713   2.202  0.00  0.00    -0.344 N 
ATOM      4  H   TRP d   1      26.363 -11.224   2.075  0.00  0.00     0.163 HD
ATOM      5  O   UNK d   0      29.505 -10.755   2.162  0.00  0.00    -0.271 OA
BRANCH   3   6
ATOM      6  CA  TRP d   1      27.165  -9.240   1.975  0.00  0.00     0.190 C 
BRANCH   6   7
ATOM      7  CB  TRP d   1      27.853  -8.835   0.646  0.00  0.00     0.077 C 
BRANCH   7   8
ATOM      8  CG  TRP d   1      27.041  -9.020  -0.617  0.00  0.00    -0.028 A 
ATOM      9  CD1 TRP d   1      25.982  -8.267  -1.088  0.00  0.00     0.096 A 
ATOM     10  NE1 TRP d   1      25.546  -8.810  -2.265  0.00  0.00    -0.365 N 
ATOM     11  CE2 TRP d   1      26.257  -9.949  -2.558  0.00  0.00     0.042 A 
ATOM     12  HE1 TRP d   1      24.780  -8.446  -2.812  0.00  0.00     0.165 HD
ATOM     13  CZ2 TRP d   1      26.122 -10.859  -3.615  0.00  0.00     0.030 A 
ATOM     14  CD2 TRP d   1      27.208 -10.100  -1.549  0.00  0.00    -0.002 A 
ATOM     15  CH2 TRP d   1      26.975 -11.968  -3.625  0.00  0.00     0.002 A 
ATOM     16  CZ3 TRP d   1      27.939 -12.144  -2.635  0.00  0.00     0.001 A 
ATOM     17  CE3 TRP d   1      28.072 -11.213  -1.600  0.00  0.00     0.014 A 
ENDBRANCH   7   8
ENDBRANCH   6   7
BRANCH   6  18
ATOM     18  C   TRP d   1      25.687  -8.684   2.056  0.00  0.00     0.197 C 
ATOM     19  O   TRP d   1      24.780  -9.538   2.283  0.00  0.00    -0.646 OA
ATOM     20  OXT TRP d   1      25.530  -7.450   1.828  0.00  0.00    -0.646 OA
ENDBRANCH   6  18
ENDBRANCH   3   6
ENDBRANCH   1   2
BRANCH   1  21
ATOM     21  C   UNK d   0      27.430 -13.033   3.894  0.00  0.00     0.073 C 
BRANCH  21  22
ATOM     22  C   UNK d   0      28.012 -13.003   5.292  0.00  0.00    -0.056 A 
ATOM     23  C   UNK d   0      27.871 -11.868   6.105  0.00  0.00     0.007 A 
ATOM     24  C   UNK d   0      28.477 -11.818   7.358  0.00  0.00     0.001 A 
ATOM     25  C   UNK d   0      29.177 -12.923   7.838  0.00  0.00     0.000 A 
ATOM     26  C   UNK d   0      29.281 -14.075   7.059  0.00  0.00     0.001 A 
ATOM     27  C   UNK d   0      28.705 -14.115   5.790  0.00  0.00     0.007 A 
ENDBRANCH  21  22
ENDBRANCH   1  21
BRANCH   1  28
ATOM     28  N   UNK d   0      28.150 -13.817   1.567  0.00  0.00    -0.290 N 
ATOM     29  C   UNK d   0      26.890 -13.813   0.986  0.00  0.00     0.260 C 
ATOM     30  O   UNK d   0      25.907 -13.233   1.416  0.00  0.00    -0.267 OA
ATOM     31  C   UNK d   0      26.732 -14.619  -0.233  0.00  0.00     0.058 C 
ATOM     32  C   UNK d   0      25.905 -14.205  -1.270  0.00  0.00     0.019 C 
ATOM     33  C   UNK d   0      27.463 -15.799  -0.302  0.00  0.00     0.047 C 
ATOM     34  C   UNK d   0      25.709 -15.054  -2.354  0.00  0.00     0.001 C 
ATOM     35  C   UNK d   0      26.329 -16.307  -2.374  0.00  0.00     0.002 C 
ATOM     36  C   UNK d   0      27.176 -16.702  -1.328  0.00  0.00     0.030 C 
ATOM     37  N   UNK d   0      28.564 -15.963   0.542  0.00  0.00    -0.346 N 
ATOM     38  C   UNK d   0      29.163 -14.714   1.034  0.00  0.00     0.332 C 
ATOM     39  H   UNK d   0      28.474 -16.685   1.250  0.00  0.00     0.164 HD
BRANCH  38  40
ATOM     40  O   UNK d   0      29.766 -14.079  -0.075  0.00  0.00    -0.359 OA
ATOM     41  H   UNK d   0      30.456 -13.519   0.304  0.00  0.00     0.214 HD
ENDBRANCH  38  40
ENDBRANCH   1  28
TORSDOF 9
ENDMDL
MODEL 6
REMARK VINA RESULT:    -6.851      3.222      5.775
REMARK INTER + INTRA:         -13.893
REMARK INTER:                  -9.535
REMARK INTRA:                  -4.358
REMARK CONF_INDEPENDENT:        2.685
REMARK UNBOUND:                -4.358
REMARK  9 active torsions:
REMARK  status: ('A' for Active; 'I' for Inactive)
REMARK    1  A    between atoms: CA_4  and  C_2 
REMARK    2  A    between atoms: CA_4  and  N_15 
REMARK    3  A    between atoms: CA_4  and  CB_5 
REMARK    4  A    between atoms: CB_5  and  CG_6 
REMARK       I    between atoms: N_15  and  C_16 
REMARK    5  A    between atoms: C_16  and  C_18 
REMARK    6  A    between atoms: C_18  and  C_19 
REMARK    7  A    between atoms: C_18  and  N_26 
REMARK    8  A    between atoms: C_19  and  C_20 
REMARK    9  A    between atoms: C_36  and  O_37 
ROOT
ATOM      1  C   UNK d   0      29.310 -13.013   1.113  0.00  0.00     0.188 C 
ENDROOT
BRANCH   1   2
ATOM      2  C   UNK d   0      28.966 -11.724   1.923  0.00  0.00     0.241 C 
ATOM      3  N   TRP d   1      27.924 -11.788   2.837  0.00  0.00    -0.344 N 
ATOM      4  H   TRP d   1      27.258 -12.546   2.847  0.00  0.00     0.163 HD
ATOM      5  O   UNK d   0      29.529 -10.659   1.672  0.00  0.00    -0.271 OA
BRANCH   3   6
ATOM      6  CA  TRP d   1      27.617 -10.617   3.707  0.00  0.00     0.190 C 
BRANCH   6   7
ATOM      7  CB  TRP d   1      28.905  -9.879   4.156  0.00  0.00     0.077 C 
BRANCH   7   8
ATOM      8  CG  TRP d   1      29.897 -10.685   4.966  0.00  0.00    -0.028 A 
ATOM      9  CD1 TRP d   1      31.181 -11.071   4.633  0.00  0.00     0.096 A 
ATOM     10  NE1 TRP d   1      31.702 -11.800   5.667  0.00  0.00    -0.365 N 
ATOM     11  CE2 TRP d   1      30.766 -11.959   6.659  0.00  0.00     0.042 A 
ATOM     12  HE1 TRP d   1      32.629 -12.200   5.672  0.00  0.00     0.165 HD
ATOM     13  CZ2 TRP d   1      30.828 -12.673   7.863  0.00  0.00     0.030 A 
ATOM     14  CD2 TRP d   1      29.627 -11.262   6.253  0.00  0.00    -0.002 A 
ATOM     15  CH2 TRP d   1      29.681 -12.689   8.665  0.00  0.00     0.002 A 
ATOM     16  CZ3 TRP d   1      28.531 -11.999   8.290  0.00  0.00     0.001 A 
ATOM     17  CE3 TRP d   1      28.496 -11.274   7.094  0.00  0.00     0.014 A 
ENDBRANCH   7   8
ENDBRANCH   6   7
BRANCH   6  18
ATOM     18  C   TRP d   1      26.589  -9.626   3.029  0.00  0.00     0.197 C 
ATOM     19  O   TRP d   1      26.655  -8.415   3.393  0.00  0.00    -0.646 OA
ATOM     20  OXT TRP d   1      25.751 -10.134   2.229  0.00  0.00    -0.646 OA
ENDBRANCH   6  18
ENDBRANCH   3   6
ENDBRANCH   1   2
BRANCH   1  21
ATOM     21  C   UNK d   0      30.205 -13.876   2.058  0.00  0.00     0.073 C 
BRANCH  21  22
ATOM     22  C   UNK d   0      29.590 -14.284   3.381  0.00  0.00    -0.056 A 
ATOM     23  C   UNK d   0      28.202 -14.455   3.505  0.00  0.00     0.007 A 
ATOM     24  C   UNK d   0      27.637 -14.752   4.743  0.00  0.00     0.001 A 
ATOM     25  C   UNK d   0      28.455 -14.943   5.854  0.00  0.00     0.000 A 
ATOM     26  C   UNK d   0      29.839 -14.825   5.732  0.00  0.00     0.001 A 
ATOM     27  C   UNK d   0      30.405 -14.493   4.502  0.00  0.00     0.007 A 
ENDBRANCH  21  22
ENDBRANCH   1  21
BRANCH   1  28
ATOM     28  N   UNK d   0      28.135 -13.799   0.558  0.00  0.00    -0.290 N 
ATOM     29  C   UNK d   0      28.240 -15.175   0.422  0.00  0.00     0.260 C 
ATOM     30  O   UNK d   0      29.263 -15.829   0.544  0.00  0.00    -0.267 OA
ATOM     31  C   UNK d   0      27.009 -15.890   0.055  0.00  0.00     0.058 C 
ATOM     32  C   UNK d   0      26.733 -17.157   0.556  0.00  0.00     0.019 C 
ATOM     33  C   UNK d   0      26.132 -15.229  -0.798  0.00  0.00     0.047 C 
ATOM     34  C   UNK d   0      25.608 -17.831   0.095  0.00  0.00     0.001 C 
ATOM     35  C   UNK d   0      24.789 -17.236  -0.870  0.00  0.00     0.002 C 
ATOM     36  C   UNK d   0      25.070 -15.949  -1.350  0.00  0.00     0.030 C 
ATOM     37  N   UNK d   0      26.238 -13.844  -0.935  0.00  0.00    -0.346 N 
ATOM     38  C   UNK d   0      26.884 -13.153   0.191  0.00  0.00     0.332 C 
ATOM     39  H   UNK d   0      26.535 -13.512  -1.848  0.00  0.00     0.164 HD
BRANCH  38  40
ATOM     40  O   UNK d   0      26.005 -13.247   1.293  0.00  0.00    -0.359 OA
ATOM     41  H   UNK d   0      25.870 -12.335   1.581  0.00  0.00     0.214 HD
ENDBRANCH  38  40
ENDBRANCH   1  28
TORSDOF 9
ENDMDL
MODEL 7
REMARK VINA RESULT:    -6.705      2.927      7.368
REMARK INTER + INTRA:         -13.975
REMARK INTER:                  -9.390
REMARK INTRA:                  -4.585
REMARK CONF_INDEPENDENT:        2.685
REMARK UNBOUND:                -4.585
REMARK  9 active torsions:
REMARK  status: ('A' for Active; 'I' for Inactive)
REMARK    1  A    between atoms: CA_4  and  C_2 
REMARK    2  A    between atoms: CA_4  and  N_15 
REMARK    3  A    between atoms: CA_4  and  CB_5 
REMARK    4  A    between atoms: CB_5  and  CG_6 
REMARK       I    between atoms: N_15  and  C_16 
REMARK    5  A    between atoms: C_16  and  C_18 
REMARK    6  A    between atoms: C_18  and  C_19 
REMARK    7  A    between atoms: C_18  and  N_26 
REMARK    8  A    between atoms: C_19  and  C_20 
REMARK    9  A    between atoms: C_36  and  O_37 
ROOT
ATOM      1  C   UNK d   0      28.475 -12.220   2.499  0.00  0.00     0.188 C 
ENDROOT
BRANCH   1   2
ATOM      2  C   UNK d   0      28.383 -10.786   1.887  0.00  0.00     0.241 C 
ATOM      3  N   TRP d   1      27.147 -10.354   1.425  0.00  0.00    -0.344 N 
ATOM      4  H   TRP d   1      26.375 -10.984   1.275  0.00  0.00     0.163 HD
ATOM      5  O   UNK d   0      29.398 -10.113   1.718  0.00  0.00    -0.271 OA
BRANCH   3   6
ATOM      6  CA  TRP d   1      26.981  -8.960   0.923  0.00  0.00     0.190 C 
BRANCH   6   7
ATOM      7  CB  TRP d   1      27.197  -8.870  -0.610  0.00  0.00     0.077 C 
BRANCH   7   8
ATOM      8  CG  TRP d   1      27.701 -10.121  -1.294  0.00  0.00    -0.028 A 
ATOM      9  CD1 TRP d   1      28.861 -10.833  -1.061  0.00  0.00     0.096 A 
ATOM     10  NE1 TRP d   1      28.911 -11.891  -1.927  0.00  0.00    -0.365 N 
ATOM     11  CE2 TRP d   1      27.831 -11.863  -2.776  0.00  0.00     0.042 A 
ATOM     12  HE1 TRP d   1      29.660 -12.566  -1.962  0.00  0.00     0.165 HD
ATOM     13  CZ2 TRP d   1      27.497 -12.697  -3.851  0.00  0.00     0.030 A 
ATOM     14  CD2 TRP d   1      27.049 -10.772  -2.397  0.00  0.00    -0.002 A 
ATOM     15  CH2 TRP d   1      26.337 -12.390  -4.571  0.00  0.00     0.002 A 
ATOM     16  CZ3 TRP d   1      25.533 -11.310  -4.215  0.00  0.00     0.001 A 
ATOM     17  CE3 TRP d   1      25.872 -10.502  -3.124  0.00  0.00     0.014 A 
ENDBRANCH   7   8
ENDBRANCH   6   7
BRANCH   6  18
ATOM     18  C   TRP d   1      25.593  -8.336   1.350  0.00  0.00     0.197 C 
ATOM     19  O   TRP d   1      25.518  -7.072   1.331  0.00  0.00    -0.646 OA
ATOM     20  OXT TRP d   1      24.698  -9.144   1.730  0.00  0.00    -0.646 OA
ENDBRANCH   6  18
ENDBRANCH   3   6
ENDBRANCH   1   2
BRANCH   1  21
ATOM     21  C   UNK d   0      27.468 -12.232   3.692  0.00  0.00     0.073 C 
BRANCH  21  22
ATOM     22  C   UNK d   0      27.954 -12.874   4.976  0.00  0.00    -0.056 A 
ATOM     23  C   UNK d   0      28.102 -12.115   6.147  0.00  0.00     0.007 A 
ATOM     24  C   UNK d   0      28.624 -12.694   7.302  0.00  0.00     0.001 A 
ATOM     25  C   UNK d   0      28.945 -14.049   7.316  0.00  0.00     0.000 A 
ATOM     26  C   UNK d   0      28.755 -14.825   6.173  0.00  0.00     0.001 A 
ATOM     27  C   UNK d   0      28.265 -14.240   5.006  0.00  0.00     0.007 A 
ENDBRANCH  21  22
ENDBRANCH   1  21
BRANCH   1  28
ATOM     28  N   UNK d   0      28.251 -13.380   1.544  0.00  0.00    -0.290 N 
ATOM     29  C   UNK d   0      26.977 -13.615   1.046  0.00  0.00     0.260 C 
ATOM     30  O   UNK d   0      25.950 -13.081   1.432  0.00  0.00    -0.267 OA
ATOM     31  C   UNK d   0      26.867 -14.632  -0.009  0.00  0.00     0.058 C 
ATOM     32  C   UNK d   0      25.956 -14.497  -1.050  0.00  0.00     0.019 C 
ATOM     33  C   UNK d   0      27.729 -15.719   0.077  0.00  0.00     0.047 C 
ATOM     34  C   UNK d   0      25.818 -15.537  -1.962  0.00  0.00     0.001 C 
ATOM     35  C   UNK d   0      26.581 -16.699  -1.809  0.00  0.00     0.002 C 
ATOM     36  C   UNK d   0      27.511 -16.811  -0.765  0.00  0.00     0.030 C 
ATOM     37  N   UNK d   0      28.874 -15.612   0.868  0.00  0.00    -0.346 N 
ATOM     38  C   UNK d   0      29.341 -14.238   1.108  0.00  0.00     0.332 C 
ATOM     39  H   UNK d   0      28.899 -16.206   1.692  0.00  0.00     0.164 HD
BRANCH  38  40
ATOM     40  O   UNK d   0      29.820 -13.743  -0.126  0.00  0.00    -0.359 OA
ATOM     41  H   UNK d   0      29.757 -12.782  -0.048  0.00  0.00     0.214 HD
ENDBRANCH  38  40
ENDBRANCH   1  28
TORSDOF 9
ENDMDL
MODEL 8
REMARK VINA RESULT:    -6.557      2.562      7.087
REMARK INTER + INTRA:         -14.199
REMARK INTER:                  -9.241
REMARK INTRA:                  -4.958
REMARK CONF_INDEPENDENT:        2.685
REMARK UNBOUND:                -4.958
REMARK  9 active torsions:
REMARK  status: ('A' for Active; 'I' for Inactive)
REMARK    1  A    between atoms: CA_4  and  C_2 
REMARK    2  A    between atoms: CA_4  and  N_15 
REMARK    3  A    between atoms: CA_4  and  CB_5 
REMARK    4  A    between atoms: CB_5  and  CG_6 
REMARK       I    between atoms: N_15  and  C_16 
REMARK    5  A    between atoms: C_16  and  C_18 
REMARK    6  A    between atoms: C_18  and  C_19 
REMARK    7  A    between atoms: C_18  and  N_26 
REMARK    8  A    between atoms: C_19  and  C_20 
REMARK    9  A    between atoms: C_36  and  O_37 
ROOT
ATOM      1  C   UNK d   0      29.387 -13.376   0.646  0.00  0.00     0.188 C 
ENDROOT
BRANCH   1   2
ATOM      2  C   UNK d   0      29.217 -11.841   0.875  0.00  0.00     0.241 C 
ATOM      3  N   TRP d   1      28.031 -11.394   1.441  0.00  0.00    -0.344 N 
ATOM      4  H   TRP d   1      27.211 -11.977   1.511  0.00  0.00     0.163 HD
ATOM      5  O   UNK d   0      30.063 -11.051   0.460  0.00  0.00    -0.271 OA
BRANCH   3   6
ATOM      6  CA  TRP d   1      27.856  -9.951   1.772  0.00  0.00     0.190 C 
BRANCH   6   7
ATOM      7  CB  TRP d   1      28.221  -9.037   0.575  0.00  0.00     0.077 C 
BRANCH   7   8
ATOM      8  CG  TRP d   1      27.224  -8.983  -0.561  0.00  0.00    -0.028 A 
ATOM      9  CD1 TRP d   1      26.190  -8.090  -0.768  0.00  0.00     0.096 A 
ATOM     10  NE1 TRP d   1      25.538  -8.432  -1.922  0.00  0.00    -0.365 N 
ATOM     11  CE2 TRP d   1      26.083  -9.574  -2.457  0.00  0.00     0.042 A 
ATOM     12  HE1 TRP d   1      24.742  -7.937  -2.296  0.00  0.00     0.165 HD
ATOM     13  CZ2 TRP d   1      25.710 -10.318  -3.584  0.00  0.00     0.030 A 
ATOM     14  CD2 TRP d   1      27.148  -9.937  -1.633  0.00  0.00    -0.002 A 
ATOM     15  CH2 TRP d   1      26.438 -11.481  -3.861  0.00  0.00     0.002 A 
ATOM     16  CZ3 TRP d   1      27.510 -11.867  -3.060  0.00  0.00     0.001 A 
ATOM     17  CE3 TRP d   1      27.881 -11.098  -1.952  0.00  0.00     0.014 A 
ENDBRANCH   7   8
ENDBRANCH   6   7
BRANCH   6  18
ATOM     18  C   TRP d   1      26.406  -9.638   2.319  0.00  0.00     0.197 C 
ATOM     19  O   TRP d   1      25.528 -10.528   2.117  0.00  0.00    -0.646 OA
ATOM     20  OXT TRP d   1      26.231  -8.506   2.854  0.00  0.00    -0.646 OA
ENDBRANCH   6  18
ENDBRANCH   3   6
ENDBRANCH   1   2
BRANCH   1  21
ATOM     21  C   UNK d   0      30.019 -13.930   1.962  0.00  0.00     0.073 C 
BRANCH  21  22
ATOM     22  C   UNK d   0      29.250 -13.666   3.241  0.00  0.00    -0.056 A 
ATOM     23  C   UNK d   0      28.137 -14.450   3.584  0.00  0.00     0.007 A 
ATOM     24  C   UNK d   0      27.388 -14.151   4.720  0.00  0.00     0.001 A 
ATOM     25  C   UNK d   0      27.778 -13.108   5.557  0.00  0.00     0.000 A 
ATOM     26  C   UNK d   0      28.912 -12.355   5.253  0.00  0.00     0.001 A 
ATOM     27  C   UNK d   0      29.643 -12.629   4.098  0.00  0.00     0.007 A 
ENDBRANCH  21  22
ENDBRANCH   1  21
BRANCH   1  28
ATOM     28  N   UNK d   0      28.140 -14.143   0.240  0.00  0.00    -0.290 N 
ATOM     29  C   UNK d   0      28.184 -15.528   0.174  0.00  0.00     0.260 C 
ATOM     30  O   UNK d   0      29.190 -16.215   0.244  0.00  0.00    -0.267 OA
ATOM     31  C   UNK d   0      26.901 -16.211  -0.044  0.00  0.00     0.058 C 
ATOM     32  C   UNK d   0      26.625 -17.437   0.549  0.00  0.00     0.019 C 
ATOM     33  C   UNK d   0      25.976 -15.562  -0.854  0.00  0.00     0.047 C 
ATOM     34  C   UNK d   0      25.441 -18.090   0.227  0.00  0.00     0.001 C 
ATOM     35  C   UNK d   0      24.561 -17.515  -0.696  0.00  0.00     0.002 C 
ATOM     36  C   UNK d   0      24.844 -16.267  -1.271  0.00  0.00     0.030 C 
ATOM     37  N   UNK d   0      26.118 -14.192  -1.078  0.00  0.00    -0.346 N 
ATOM     38  C   UNK d   0      26.885 -13.468  -0.053  0.00  0.00     0.332 C 
ATOM     39  H   UNK d   0      26.344 -13.921  -2.031  0.00  0.00     0.164 HD
BRANCH  38  40
ATOM     40  O   UNK d   0      26.104 -13.468   1.125  0.00  0.00    -0.359 OA
ATOM     41  H   UNK d   0      25.902 -12.538   1.288  0.00  0.00     0.214 HD
ENDBRANCH  38  40
ENDBRANCH   1  28
TORSDOF 9
ENDMDL
MODEL 9
REMARK VINA RESULT:    -6.289      2.217      7.292
REMARK INTER + INTRA:         -13.878
REMARK INTER:                  -8.973
REMARK INTRA:                  -4.905
REMARK CONF_INDEPENDENT:        2.685
REMARK UNBOUND:                -4.905
REMARK  9 active torsions:
REMARK  status: ('A' for Active; 'I' for Inactive)
REMARK    1  A    between atoms: CA_4  and  C_2 
REMARK    2  A    between atoms: CA_4  and  N_15 
REMARK    3  A    between atoms: CA_4  and  CB_5 
REMARK    4  A    between atoms: CB_5  and  CG_6 
REMARK       I    between atoms: N_15  and  C_16 
REMARK    5  A    between atoms: C_16  and  C_18 
REMARK    6  A    between atoms: C_18  and  C_19 
REMARK    7  A    between atoms: C_18  and  N_26 
REMARK    8  A    between atoms: C_19  and  C_20 
REMARK    9  A    between atoms: C_36  and  O_37 
ROOT
ATOM      1  C   UNK d   0      29.408 -13.360   0.410  0.00  0.00     0.188 C 
ENDROOT
BRANCH   1   2
ATOM      2  C   UNK d   0      29.465 -12.276  -0.712  0.00  0.00     0.241 C 
ATOM      3  N   TRP d   1      28.484 -11.294  -0.719  0.00  0.00    -0.344 N 
ATOM      4  H   TRP d   1      27.637 -11.371  -0.177  0.00  0.00     0.163 HD
ATOM      5  O   UNK d   0      30.287 -12.362  -1.623  0.00  0.00    -0.271 OA
BRANCH   3   6
ATOM      6  CA  TRP d   1      28.547 -10.179  -1.707  0.00  0.00     0.190 C 
BRANCH   6   7
ATOM      7  CB  TRP d   1      28.464 -10.696  -3.166  0.00  0.00     0.077 C 
BRANCH   7   8
ATOM      8  CG  TRP d   1      27.243 -11.517  -3.522  0.00  0.00    -0.028 A 
ATOM      9  CD1 TRP d   1      25.915 -11.139  -3.534  0.00  0.00     0.096 A 
ATOM     10  NE1 TRP d   1      25.155 -12.214  -3.907  0.00  0.00    -0.365 N 
ATOM     11  CE2 TRP d   1      25.950 -13.320  -4.088  0.00  0.00     0.042 A 
ATOM     12  HE1 TRP d   1      24.150 -12.200  -3.993  0.00  0.00     0.165 HD
ATOM     13  CZ2 TRP d   1      25.611 -14.640  -4.409  0.00  0.00     0.030 A 
ATOM     14  CD2 TRP d   1      27.265 -12.912  -3.864  0.00  0.00    -0.002 A 
ATOM     15  CH2 TRP d   1      26.650 -15.575  -4.483  0.00  0.00     0.002 A 
ATOM     16  CZ3 TRP d   1      27.974 -15.198  -4.270  0.00  0.00     0.001 A 
ATOM     17  CE3 TRP d   1      28.294 -13.869  -3.971  0.00  0.00     0.014 A 
ENDBRANCH   7   8
ENDBRANCH   6   7
BRANCH   6  18
ATOM     18  C   TRP d   1      27.457  -9.070  -1.422  0.00  0.00     0.197 C 
ATOM     19  O   TRP d   1      27.516  -8.029  -2.141  0.00  0.00    -0.646 OA
ATOM     20  OXT TRP d   1      26.659  -9.288  -0.465  0.00  0.00    -0.646 OA
ENDBRANCH   6  18
ENDBRANCH   3   6
ENDBRANCH   1   2
BRANCH   1  21
ATOM     21  C   UNK d   0      29.061 -12.589   1.722  0.00  0.00     0.073 C 
BRANCH  21  22
ATOM     22  C   UNK d   0      28.850 -13.431   2.963  0.00  0.00    -0.056 A 
ATOM     23  C   UNK d   0      27.573 -13.568   3.530  0.00  0.00     0.007 A 
ATOM     24  C   UNK d   0      27.400 -14.279   4.716  0.00  0.00     0.001 A 
ATOM     25  C   UNK d   0      28.488 -14.912   5.312  0.00  0.00     0.000 A 
ATOM     26  C   UNK d   0      29.753 -14.825   4.731  0.00  0.00     0.001 A 
ATOM     27  C   UNK d   0      29.935 -14.085   3.563  0.00  0.00     0.007 A 
ENDBRANCH  21  22
ENDBRANCH   1  21
BRANCH   1  28
ATOM     28  N   UNK d   0      28.475 -14.535   0.170  0.00  0.00    -0.290 N 
ATOM     29  C   UNK d   0      27.120 -14.302  -0.013  0.00  0.00     0.260 C 
ATOM     30  O   UNK d   0      26.547 -13.241   0.170  0.00  0.00    -0.267 OA
ATOM     31  C   UNK d   0      26.309 -15.458  -0.422  0.00  0.00     0.058 C 
ATOM     32  C   UNK d   0      25.236 -15.315  -1.294  0.00  0.00     0.019 C 
ATOM     33  C   UNK d   0      26.681 -16.696   0.090  0.00  0.00     0.047 C 
ATOM     34  C   UNK d   0      24.439 -16.421  -1.566  0.00  0.00     0.001 C 
ATOM     35  C   UNK d   0      24.716 -17.645  -0.948  0.00  0.00     0.002 C 
ATOM     36  C   UNK d   0      25.814 -17.777  -0.086  0.00  0.00     0.030 C 
ATOM     37  N   UNK d   0      27.969 -16.855   0.603  0.00  0.00    -0.346 N 
ATOM     38  C   UNK d   0      28.966 -15.902   0.094  0.00  0.00     0.332 C 
ATOM     39  H   UNK d   0      28.029 -17.020   1.604  0.00  0.00     0.164 HD
BRANCH  38  40
ATOM     40  O   UNK d   0      29.179 -16.215  -1.268  0.00  0.00    -0.359 OA
ATOM     41  H   UNK d   0      29.629 -15.441  -1.632  0.00  0.00     0.214 HD
ENDBRANCH  38  40
ENDBRANCH   1  28
TORSDOF 9
ENDMDL
