MODEL 1
REMARK VINA RESULT:    -9.868      0.000      0.000
REMARK INTER + INTRA:         -13.249
REMARK INTER:                 -11.956
REMARK INTRA:                  -1.293
REMARK CONF_INDEPENDENT:        2.088
REMARK UNBOUND:                -1.293
REMARK  7 active torsions:
REMARK  status: ('A' for Active; 'I' for Inactive)
REMARK    1  A    between atoms: C_2  and  O_3 
REMARK    2  A    between atoms: O_3  and  C_4 
REMARK       I    between atoms: C_4  and  N_6 
REMARK    3  A    between atoms: C_9  and  N_10 
REMARK       I    between atoms: N_10  and  C_11 
REMARK    4  A    between atoms: C_11  and  C_13 
REMARK    5  A    between atoms: C_13  and  S_14 
REMARK    6  A    between atoms: S_14  and  C_15 
REMARK    7  A    between atoms: N_25  and  C_26 
ROOT
ATOM      1  C   UNL d   1      26.691 -15.578  -1.765  0.00  0.00     0.177 A 
ATOM      2  N   UNL d   1      27.595 -14.792  -2.288  0.00  0.00    -0.222 NA
ATOM      3  C   UNL d   1      27.086 -13.768  -3.097  0.00  0.00     0.093 A 
ATOM      4  C   UNL d   1      27.776 -12.678  -3.673  0.00  0.00     0.059 C 
ATOM      5  C   UNL d   1      26.815 -11.789  -4.155  0.00  0.00     0.008 C 
ATOM      6  C   UNL d   1      26.937 -10.347  -4.569  0.00  0.00     0.068 C 
ATOM      7  N   UNL d   1      25.616 -12.492  -4.147  0.00  0.00    -0.354 N 
ATOM      8  C   UNL d   1      25.759 -13.629  -3.377  0.00  0.00     0.131 A 
ATOM      9  C   UNL d   1      24.768 -14.536  -2.890  0.00  0.00     0.283 A 
ATOM     10  O   UNL d   1      23.575 -14.416  -3.200  0.00  0.00    -0.265 OA
ATOM     11  N   UNL d   1      25.290 -15.510  -2.016  0.00  0.00    -0.255 N 
ATOM     12  H   UNL d   1      24.742 -12.191  -4.567  0.00  0.00     0.166 HD
ENDROOT
BRANCH   1  13
ATOM     13  S   UNL d   1      27.262 -16.731  -0.538  0.00  0.00    -0.082 SA
BRANCH  13  14
ATOM     14  C   UNL d   1      28.519 -15.921   0.506  0.00  0.00     0.185 C 
BRANCH  14  15
ATOM     15  C   UNL d   1      27.833 -14.865   1.429  0.00  0.00     0.227 C 
ATOM     16  N   UNL d   1      28.278 -14.807   2.751  0.00  0.00    -0.356 N 
ATOM     17  H   UNL d   1      28.920 -15.512   3.090  0.00  0.00     0.162 HD
ATOM     18  O   UNL d   1      26.952 -14.099   1.040  0.00  0.00    -0.273 OA
BRANCH  16  19
ATOM     19  C   UNL d   1      27.757 -13.803   3.713  0.00  0.00     0.087 C 
ATOM     20  C   UNL d   1      28.741 -12.638   3.938  0.00  0.00     0.045 C 
ATOM     21  C   UNL d   1      29.954 -13.085   4.745  0.00  0.00     0.130 C 
ATOM     22  N   UNL d   1      29.577 -13.719   6.003  0.00  0.00    -0.328 N 
ATOM     23  C   UNL d   1      30.214 -13.371   7.186  0.00  0.00     0.362 C 
ATOM     24  C   UNL d   1      28.656 -14.835   5.883  0.00  0.00     0.130 C 
ATOM     25  O   UNL d   1      30.426 -12.205   7.515  0.00  0.00    -0.238 OA
ATOM     26  C   UNL d   1      27.405 -14.420   5.087  0.00  0.00     0.045 C 
BRANCH  23  27
ATOM     27  O   UNL d   1      30.637 -14.451   7.916  0.00  0.00    -0.304 OA
BRANCH  27  28
ATOM     28  C   UNL d   1      30.378 -14.380   9.340  0.00  0.00     0.176 C 
ATOM     29  C   UNL d   1      28.877 -14.307   9.604  0.00  0.00     0.034 C 
ENDBRANCH  27  28
ENDBRANCH  23  27
ENDBRANCH  16  19
ENDBRANCH  14  15
ENDBRANCH  13  14
ENDBRANCH   1  13
BRANCH  11  30
ATOM     30  C   UNL d   1      24.360 -16.439  -1.432  0.00  0.00     0.045 C 
ATOM     31  C   UNL d   1      23.177 -15.970  -0.848  0.00  0.00     0.031 C 
ATOM     32  C   UNL d   1      22.154 -16.867  -0.520  0.00  0.00     0.009 C 
ATOM     33  C   UNL d   1      22.400 -18.241  -0.501  0.00  0.00    -0.062 C 
ATOM     34  C   UNL d   1      21.403 -19.198   0.084  0.00  0.00     0.048 C 
ATOM     35  C   UNL d   1      23.631 -18.712  -0.964  0.00  0.00     0.009 C 
ATOM     36  C   UNL d   1      24.574 -17.822  -1.489  0.00  0.00     0.031 C 
ENDBRANCH  11  30
TORSDOF 7
ENDMDL
MODEL 2
REMARK VINA RESULT:    -9.153      1.261      4.748
REMARK INTER + INTRA:         -12.781
REMARK INTER:                 -11.241
REMARK INTRA:                  -1.541
REMARK CONF_INDEPENDENT:        2.088
REMARK UNBOUND:                -1.541
REMARK  7 active torsions:
REMARK  status: ('A' for Active; 'I' for Inactive)
REMARK    1  A    between atoms: C_2  and  O_3 
REMARK    2  A    between atoms: O_3  and  C_4 
REMARK       I    between atoms: C_4  and  N_6 
REMARK    3  A    between atoms: C_9  and  N_10 
REMARK       I    between atoms: N_10  and  C_11 
REMARK    4  A    between atoms: C_11  and  C_13 
REMARK    5  A    between atoms: C_13  and  S_14 
REMARK    6  A    between atoms: S_14  and  C_15 
REMARK    7  A    between atoms: N_25  and  C_26 
ROOT
ATOM      1  C   UNL d   1      26.168 -16.644  -1.133  0.00  0.00     0.177 A 
ATOM      2  N   UNL d   1      25.651 -17.567  -0.366  0.00  0.00    -0.222 NA
ATOM      3  C   UNL d   1      24.251 -17.612  -0.363  0.00  0.00     0.093 A 
ATOM      4  C   UNL d   1      23.403 -18.575   0.228  0.00  0.00     0.059 C 
ATOM      5  C   UNL d   1      22.118 -18.352  -0.264  0.00  0.00     0.008 C 
ATOM      6  C   UNL d   1      20.896 -19.232  -0.243  0.00  0.00     0.068 C 
ATOM      7  N   UNL d   1      22.159 -17.102  -0.869  0.00  0.00    -0.354 N 
ATOM      8  C   UNL d   1      23.475 -16.727  -1.052  0.00  0.00     0.131 A 
ATOM      9  C   UNL d   1      24.024 -15.653  -1.819  0.00  0.00     0.283 A 
ATOM     10  O   UNL d   1      23.296 -14.834  -2.395  0.00  0.00    -0.265 OA
ATOM     11  N   UNL d   1      25.431 -15.673  -1.873  0.00  0.00    -0.255 N 
ATOM     12  H   UNL d   1      21.361 -16.572  -1.205  0.00  0.00     0.166 HD
ENDROOT
BRANCH   1  13
ATOM     13  S   UNL d   1      27.930 -16.707  -1.365  0.00  0.00    -0.082 SA
BRANCH  13  14
ATOM     14  C   UNL d   1      28.757 -16.361   0.223  0.00  0.00     0.185 C 
BRANCH  14  15
ATOM     15  C   UNL d   1      28.132 -15.086   0.873  0.00  0.00     0.227 C 
ATOM     16  N   UNL d   1      28.685 -14.668   2.084  0.00  0.00    -0.356 N 
ATOM     17  H   UNL d   1      29.365 -15.255   2.549  0.00  0.00     0.162 HD
ATOM     18  O   UNL d   1      27.208 -14.452   0.364  0.00  0.00    -0.273 OA
BRANCH  16  19
ATOM     19  C   UNL d   1      28.229 -13.434   2.773  0.00  0.00     0.087 C 
ATOM     20  C   UNL d   1      29.397 -12.639   3.391  0.00  0.00     0.045 C 
ATOM     21  C   UNL d   1      29.969 -13.354   4.609  0.00  0.00     0.130 C 
ATOM     22  N   UNL d   1      28.945 -13.662   5.601  0.00  0.00    -0.328 N 
ATOM     23  C   UNL d   1      29.163 -13.393   6.946  0.00  0.00     0.362 C 
ATOM     24  C   UNL d   1      27.808 -14.417   5.104  0.00  0.00     0.130 C 
ATOM     25  O   UNL d   1      29.631 -12.331   7.350  0.00  0.00    -0.238 OA
ATOM     26  C   UNL d   1      27.188 -13.717   3.881  0.00  0.00     0.045 C 
BRANCH  23  27
ATOM     27  O   UNL d   1      28.865 -14.450   7.767  0.00  0.00    -0.304 OA
BRANCH  27  28
ATOM     28  C   UNL d   1      29.519 -14.436   9.060  0.00  0.00     0.176 C 
ATOM     29  C   UNL d   1      28.524 -14.058  10.154  0.00  0.00     0.034 C 
ENDBRANCH  27  28
ENDBRANCH  23  27
ENDBRANCH  16  19
ENDBRANCH  14  15
ENDBRANCH  13  14
ENDBRANCH   1  13
BRANCH  11  30
ATOM     30  C   UNL d   1      26.077 -14.661  -2.664  0.00  0.00     0.045 C 
ATOM     31  C   UNL d   1      26.620 -14.991  -3.912  0.00  0.00     0.031 C 
ATOM     32  C   UNL d   1      27.007 -13.979  -4.797  0.00  0.00     0.009 C 
ATOM     33  C   UNL d   1      27.128 -12.661  -4.353  0.00  0.00    -0.062 C 
ATOM     34  C   UNL d   1      27.776 -11.611  -5.207  0.00  0.00     0.048 C 
ATOM     35  C   UNL d   1      26.705 -12.345  -3.059  0.00  0.00     0.009 C 
ATOM     36  C   UNL d   1      26.122 -13.324  -2.249  0.00  0.00     0.031 C 
ENDBRANCH  11  30
TORSDOF 7
ENDMDL
MODEL 3
REMARK VINA RESULT:    -8.664      4.434      8.426
REMARK INTER + INTRA:         -13.229
REMARK INTER:                 -10.752
REMARK INTRA:                  -2.476
REMARK CONF_INDEPENDENT:        2.088
REMARK UNBOUND:                -2.476
REMARK  7 active torsions:
REMARK  status: ('A' for Active; 'I' for Inactive)
REMARK    1  A    between atoms: C_2  and  O_3 
REMARK    2  A    between atoms: O_3  and  C_4 
REMARK       I    between atoms: C_4  and  N_6 
REMARK    3  A    between atoms: C_9  and  N_10 
REMARK       I    between atoms: N_10  and  C_11 
REMARK    4  A    between atoms: C_11  and  C_13 
REMARK    5  A    between atoms: C_13  and  S_14 
REMARK    6  A    between atoms: S_14  and  C_15 
REMARK    7  A    between atoms: N_25  and  C_26 
ROOT
ATOM      1  C   UNL d   1      25.958 -15.020  -1.580  0.00  0.00     0.177 A 
ATOM      2  N   UNL d   1      27.020 -14.257  -1.610  0.00  0.00    -0.222 NA
ATOM      3  C   UNL d   1      28.078 -14.693  -0.802  0.00  0.00     0.093 A 
ATOM      4  C   UNL d   1      29.395 -14.187  -0.731  0.00  0.00     0.059 C 
ATOM      5  C   UNL d   1      30.151 -15.104  -0.002  0.00  0.00     0.008 C 
ATOM      6  C   UNL d   1      31.643 -15.260   0.125  0.00  0.00     0.068 C 
ATOM      7  N   UNL d   1      29.232 -15.950   0.605  0.00  0.00    -0.354 N 
ATOM      8  C   UNL d   1      27.998 -15.788   0.006  0.00  0.00     0.131 A 
ATOM      9  C   UNL d   1      26.812 -16.577   0.122  0.00  0.00     0.283 A 
ATOM     10  O   UNL d   1      26.750 -17.538   0.900  0.00  0.00    -0.265 OA
ATOM     11  N   UNL d   1      25.788 -16.170  -0.756  0.00  0.00    -0.255 N 
ATOM     12  H   UNL d   1      29.434 -16.643   1.319  0.00  0.00     0.166 HD
ENDROOT
BRANCH   1  13
ATOM     13  S   UNL d   1      24.690 -14.653  -2.770  0.00  0.00    -0.082 SA
BRANCH  13  14
ATOM     14  C   UNL d   1      25.448 -13.872  -4.233  0.00  0.00     0.185 C 
BRANCH  14  15
ATOM     15  C   UNL d   1      26.536 -14.820  -4.829  0.00  0.00     0.227 C 
ATOM     16  N   UNL d   1      27.791 -14.792  -4.219  0.00  0.00    -0.356 N 
ATOM     17  H   UNL d   1      27.985 -14.092  -3.515  0.00  0.00     0.162 HD
ATOM     18  O   UNL d   1      26.328 -15.575  -5.779  0.00  0.00    -0.273 OA
BRANCH  16  19
ATOM     19  C   UNL d   1      28.893 -15.692  -4.644  0.00  0.00     0.087 C 
ATOM     20  C   UNL d   1      30.187 -15.457  -3.841  0.00  0.00     0.045 C 
ATOM     21  C   UNL d   1      30.843 -14.134  -4.222  0.00  0.00     0.130 C 
ATOM     22  N   UNL d   1      31.075 -14.027  -5.658  0.00  0.00    -0.328 N 
ATOM     23  C   UNL d   1      32.299 -13.584  -6.142  0.00  0.00     0.362 C 
ATOM     24  C   UNL d   1      29.904 -14.227  -6.492  0.00  0.00     0.130 C 
ATOM     25  O   UNL d   1      33.376 -13.995  -5.717  0.00  0.00    -0.238 OA
ATOM     26  C   UNL d   1      29.220 -15.564  -6.151  0.00  0.00     0.045 C 
BRANCH  23  27
ATOM     27  O   UNL d   1      32.186 -12.604  -7.093  0.00  0.00    -0.304 OA
BRANCH  27  28
ATOM     28  C   UNL d   1      32.421 -13.030  -8.458  0.00  0.00     0.176 C 
ATOM     29  C   UNL d   1      31.255 -12.615  -9.351  0.00  0.00     0.034 C 
ENDBRANCH  27  28
ENDBRANCH  23  27
ENDBRANCH  16  19
ENDBRANCH  14  15
ENDBRANCH  13  14
ENDBRANCH   1  13
BRANCH  11  30
ATOM     30  C   UNL d   1      24.571 -16.936  -0.750  0.00  0.00     0.045 C 
ATOM     31  C   UNL d   1      24.623 -18.331  -0.852  0.00  0.00     0.031 C 
ATOM     32  C   UNL d   1      23.483 -19.097  -0.583  0.00  0.00     0.009 C 
ATOM     33  C   UNL d   1      22.229 -18.488  -0.494  0.00  0.00    -0.062 C 
ATOM     34  C   UNL d   1      20.971 -19.306  -0.457  0.00  0.00     0.048 C 
ATOM     35  C   UNL d   1      22.155 -17.093  -0.520  0.00  0.00     0.009 C 
ATOM     36  C   UNL d   1      23.322 -16.325  -0.578  0.00  0.00     0.031 C 
ENDBRANCH  11  30
TORSDOF 7
ENDMDL
MODEL 4
REMARK VINA RESULT:    -8.462      4.451      8.245
REMARK INTER + INTRA:         -13.145
REMARK INTER:                 -10.551
REMARK INTRA:                  -2.594
REMARK CONF_INDEPENDENT:        2.088
REMARK UNBOUND:                -2.594
REMARK  7 active torsions:
REMARK  status: ('A' for Active; 'I' for Inactive)
REMARK    1  A    between atoms: C_2  and  O_3 
REMARK    2  A    between atoms: O_3  and  C_4 
REMARK       I    between atoms: C_4  and  N_6 
REMARK    3  A    between atoms: C_9  and  N_10 
REMARK       I    between atoms: N_10  and  C_11 
REMARK    4  A    between atoms: C_11  and  C_13 
REMARK    5  A    between atoms: C_13  and  S_14 
REMARK    6  A    between atoms: S_14  and  C_15 
REMARK    7  A    between atoms: N_25  and  C_26 
ROOT
ATOM      1  C   UNL d   1      26.406 -15.620  -1.889  0.00  0.00     0.177 A 
ATOM      2  N   UNL d   1      27.534 -14.994  -2.098  0.00  0.00    -0.222 NA
ATOM      3  C   UNL d   1      28.558 -15.313  -1.198  0.00  0.00     0.093 A 
ATOM      4  C   UNL d   1      29.919 -14.933  -1.243  0.00  0.00     0.059 C 
ATOM      5  C   UNL d   1      30.596 -15.707  -0.301  0.00  0.00     0.008 C 
ATOM      6  C   UNL d   1      32.068 -15.968  -0.126  0.00  0.00     0.068 C 
ATOM      7  N   UNL d   1      29.609 -16.285   0.489  0.00  0.00    -0.354 N 
ATOM      8  C   UNL d   1      28.388 -16.160  -0.143  0.00  0.00     0.131 A 
ATOM      9  C   UNL d   1      27.134 -16.779   0.155  0.00  0.00     0.283 A 
ATOM     10  O   UNL d   1      26.994 -17.505   1.147  0.00  0.00    -0.265 OA
ATOM     11  N   UNL d   1      26.140 -16.507  -0.806  0.00  0.00    -0.255 N 
ATOM     12  H   UNL d   1      29.756 -16.794   1.354  0.00  0.00     0.166 HD
ENDROOT
BRANCH   1  13
ATOM     13  S   UNL d   1      25.160 -15.441  -3.144  0.00  0.00    -0.082 SA
BRANCH  13  14
ATOM     14  C   UNL d   1      24.843 -13.668  -3.427  0.00  0.00     0.185 C 
BRANCH  14  15
ATOM     15  C   UNL d   1      25.890 -13.103  -4.438  0.00  0.00     0.227 C 
ATOM     16  N   UNL d   1      27.222 -13.458  -4.223  0.00  0.00    -0.356 N 
ATOM     17  H   UNL d   1      27.474 -13.950  -3.375  0.00  0.00     0.162 HD
ATOM     18  O   UNL d   1      25.588 -12.388  -5.394  0.00  0.00    -0.273 OA
BRANCH  16  19
ATOM     19  C   UNL d   1      28.307 -13.044  -5.148  0.00  0.00     0.087 C 
ATOM     20  C   UNL d   1      28.191 -13.719  -6.530  0.00  0.00     0.045 C 
ATOM     21  C   UNL d   1      28.542 -15.200  -6.453  0.00  0.00     0.130 C 
ATOM     22  N   UNL d   1      29.851 -15.427  -5.853  0.00  0.00    -0.328 N 
ATOM     23  C   UNL d   1      30.753 -16.305  -6.440  0.00  0.00     0.362 C 
ATOM     24  C   UNL d   1      30.045 -14.830  -4.543  0.00  0.00     0.130 C 
ATOM     25  O   UNL d   1      30.995 -16.310  -7.645  0.00  0.00    -0.238 OA
ATOM     26  C   UNL d   1      29.718 -13.326  -4.581  0.00  0.00     0.045 C 
BRANCH  23  27
ATOM     27  O   UNL d   1      31.295 -17.201  -5.556  0.00  0.00    -0.304 OA
BRANCH  27  28
ATOM     28  C   UNL d   1      30.585 -18.458  -5.429  0.00  0.00     0.176 C 
ATOM     29  C   UNL d   1      30.766 -19.299  -6.689  0.00  0.00     0.034 C 
ENDBRANCH  27  28
ENDBRANCH  23  27
ENDBRANCH  16  19
ENDBRANCH  14  15
ENDBRANCH  13  14
ENDBRANCH   1  13
BRANCH  11  30
ATOM     30  C   UNL d   1      24.856 -17.128  -0.621  0.00  0.00     0.045 C 
ATOM     31  C   UNL d   1      23.702 -16.339  -0.555  0.00  0.00     0.031 C 
ATOM     32  C   UNL d   1      22.439 -16.935  -0.643  0.00  0.00     0.009 C 
ATOM     33  C   UNL d   1      22.301 -18.318  -0.508  0.00  0.00    -0.062 C 
ATOM     34  C   UNL d   1      20.949 -18.950  -0.348  0.00  0.00     0.048 C 
ATOM     35  C   UNL d   1      23.453 -19.106  -0.443  0.00  0.00     0.009 C 
ATOM     36  C   UNL d   1      24.717 -18.521  -0.568  0.00  0.00     0.031 C 
ENDBRANCH  11  30
TORSDOF 7
ENDMDL
MODEL 5
REMARK VINA RESULT:    -8.246      3.301      5.005
REMARK INTER + INTRA:         -12.992
REMARK INTER:                 -10.334
REMARK INTRA:                  -2.658
REMARK CONF_INDEPENDENT:        2.088
REMARK UNBOUND:                -2.658
REMARK  7 active torsions:
REMARK  status: ('A' for Active; 'I' for Inactive)
REMARK    1  A    between atoms: C_2  and  O_3 
REMARK    2  A    between atoms: O_3  and  C_4 
REMARK       I    between atoms: C_4  and  N_6 
REMARK    3  A    between atoms: C_9  and  N_10 
REMARK       I    between atoms: N_10  and  C_11 
REMARK    4  A    between atoms: C_11  and  C_13 
REMARK    5  A    between atoms: C_13  and  S_14 
REMARK    6  A    between atoms: S_14  and  C_15 
REMARK    7  A    between atoms: N_25  and  C_26 
ROOT
ATOM      1  C   UNL d   1      26.550 -14.070  -1.008  0.00  0.00     0.177 A 
ATOM      2  N   UNL d   1      27.203 -12.971  -1.277  0.00  0.00    -0.222 NA
ATOM      3  C   UNL d   1      26.768 -12.293  -2.422  0.00  0.00     0.093 A 
ATOM      4  C   UNL d   1      27.156 -11.017  -2.889  0.00  0.00     0.059 C 
ATOM      5  C   UNL d   1      26.262 -10.657  -3.898  0.00  0.00     0.008 C 
ATOM      6  C   UNL d   1      25.986  -9.318  -4.527  0.00  0.00     0.068 C 
ATOM      7  N   UNL d   1      25.577 -11.821  -4.226  0.00  0.00    -0.354 N 
ATOM      8  C   UNL d   1      25.783 -12.764  -3.238  0.00  0.00     0.131 A 
ATOM      9  C   UNL d   1      25.123 -14.012  -3.012  0.00  0.00     0.283 A 
ATOM     10  O   UNL d   1      24.266 -14.440  -3.796  0.00  0.00    -0.265 OA
ATOM     11  N   UNL d   1      25.520 -14.638  -1.814  0.00  0.00    -0.255 N 
ATOM     12  H   UNL d   1      24.954 -11.947  -5.017  0.00  0.00     0.166 HD
ENDROOT
BRANCH   1  13
ATOM     13  S   UNL d   1      26.894 -14.830   0.561  0.00  0.00    -0.082 SA
BRANCH  13  14
ATOM     14  C   UNL d   1      28.688 -15.128   0.703  0.00  0.00     0.185 C 
BRANCH  14  15
ATOM     15  C   UNL d   1      29.406 -13.808   1.127  0.00  0.00     0.227 C 
ATOM     16  N   UNL d   1      28.654 -12.635   1.049  0.00  0.00    -0.356 N 
ATOM     17  H   UNL d   1      27.740 -12.659   0.617  0.00  0.00     0.162 HD
ATOM     18  O   UNL d   1      30.570 -13.770   1.525  0.00  0.00    -0.273 OA
BRANCH  16  19
ATOM     19  C   UNL d   1      29.196 -11.323   1.485  0.00  0.00     0.087 C 
ATOM     20  C   UNL d   1      28.626 -10.874   2.846  0.00  0.00     0.045 C 
ATOM     21  C   UNL d   1      27.164 -10.461   2.724  0.00  0.00     0.130 C 
ATOM     22  N   UNL d   1      26.960  -9.447   1.695  0.00  0.00    -0.328 N 
ATOM     23  C   UNL d   1      26.179  -8.329   1.953  0.00  0.00     0.362 C 
ATOM     24  C   UNL d   1      27.462  -9.792   0.377  0.00  0.00     0.130 C 
ATOM     25  O   UNL d   1      26.280  -7.664   2.982  0.00  0.00    -0.238 OA
ATOM     26  C   UNL d   1      28.945 -10.199   0.453  0.00  0.00     0.045 C 
BRANCH  23  27
ATOM     27  O   UNL d   1      25.247  -8.079   0.980  0.00  0.00    -0.304 OA
BRANCH  27  28
ATOM     28  C   UNL d   1      25.367  -6.796   0.317  0.00  0.00     0.176 C 
ATOM     29  C   UNL d   1      25.432  -6.984  -1.196  0.00  0.00     0.034 C 
ENDBRANCH  27  28
ENDBRANCH  23  27
ENDBRANCH  16  19
ENDBRANCH  14  15
ENDBRANCH  13  14
ENDBRANCH   1  13
BRANCH  11  30
ATOM     30  C   UNL d   1      24.874 -15.877  -1.471  0.00  0.00     0.045 C 
ATOM     31  C   UNL d   1      25.641 -17.031  -1.266  0.00  0.00     0.031 C 
ATOM     32  C   UNL d   1      25.062 -18.161  -0.680  0.00  0.00     0.009 C 
ATOM     33  C   UNL d   1      23.674 -18.260  -0.557  0.00  0.00    -0.062 C 
ATOM     34  C   UNL d   1      23.021 -19.554  -0.168  0.00  0.00     0.048 C 
ATOM     35  C   UNL d   1      22.888 -17.152  -0.883  0.00  0.00     0.009 C 
ATOM     36  C   UNL d   1      23.490 -15.950  -1.270  0.00  0.00     0.031 C 
ENDBRANCH  11  30
TORSDOF 7
ENDMDL
MODEL 6
REMARK VINA RESULT:    -8.139      4.451      7.632
REMARK INTER + INTRA:         -12.939
REMARK INTER:                 -10.227
REMARK INTRA:                  -2.712
REMARK CONF_INDEPENDENT:        2.088
REMARK UNBOUND:                -2.712
REMARK  7 active torsions:
REMARK  status: ('A' for Active; 'I' for Inactive)
REMARK    1  A    between atoms: C_2  and  O_3 
REMARK    2  A    between atoms: O_3  and  C_4 
REMARK       I    between atoms: C_4  and  N_6 
REMARK    3  A    between atoms: C_9  and  N_10 
REMARK       I    between atoms: N_10  and  C_11 
REMARK    4  A    between atoms: C_11  and  C_13 
REMARK    5  A    between atoms: C_13  and  S_14 
REMARK    6  A    between atoms: S_14  and  C_15 
REMARK    7  A    between atoms: N_25  and  C_26 
ROOT
ATOM      1  C   UNL d   1      25.994 -15.082  -1.607  0.00  0.00     0.177 A 
ATOM      2  N   UNL d   1      27.067 -14.338  -1.649  0.00  0.00    -0.222 NA
ATOM      3  C   UNL d   1      28.116 -14.773  -0.830  0.00  0.00     0.093 A 
ATOM      4  C   UNL d   1      29.442 -14.287  -0.766  0.00  0.00     0.059 C 
ATOM      5  C   UNL d   1      30.181 -15.201  -0.016  0.00  0.00     0.008 C 
ATOM      6  C   UNL d   1      31.670 -15.378   0.118  0.00  0.00     0.068 C 
ATOM      7  N   UNL d   1      29.247 -16.020   0.605  0.00  0.00    -0.354 N 
ATOM      8  C   UNL d   1      28.018 -15.850  -0.001  0.00  0.00     0.131 A 
ATOM      9  C   UNL d   1      26.819 -16.618   0.128  0.00  0.00     0.283 A 
ATOM     10  O   UNL d   1      26.740 -17.562   0.925  0.00  0.00    -0.265 OA
ATOM     11  N   UNL d   1      25.804 -16.213  -0.760  0.00  0.00    -0.255 N 
ATOM     12  H   UNL d   1      29.437 -16.701   1.333  0.00  0.00     0.166 HD
ENDROOT
BRANCH   1  13
ATOM     13  S   UNL d   1      24.734 -14.719  -2.807  0.00  0.00    -0.082 SA
BRANCH  13  14
ATOM     14  C   UNL d   1      25.500 -13.923  -4.258  0.00  0.00     0.185 C 
BRANCH  14  15
ATOM     15  C   UNL d   1      26.518 -14.905  -4.919  0.00  0.00     0.227 C 
ATOM     16  N   UNL d   1      27.772 -15.005  -4.313  0.00  0.00    -0.356 N 
ATOM     17  H   UNL d   1      28.015 -14.366  -3.567  0.00  0.00     0.162 HD
ATOM     18  O   UNL d   1      26.258 -15.580  -5.914  0.00  0.00    -0.273 OA
BRANCH  16  19
ATOM     19  C   UNL d   1      28.808 -15.950  -4.801  0.00  0.00     0.087 C 
ATOM     20  C   UNL d   1      29.873 -16.259  -3.730  0.00  0.00     0.045 C 
ATOM     21  C   UNL d   1      30.784 -15.060  -3.493  0.00  0.00     0.130 C 
ATOM     22  N   UNL d   1      31.390 -14.575  -4.728  0.00  0.00    -0.328 N 
ATOM     23  C   UNL d   1      32.747 -14.284  -4.780  0.00  0.00     0.362 C 
ATOM     24  C   UNL d   1      30.455 -14.251  -5.791  0.00  0.00     0.130 C 
ATOM     25  O   UNL d   1      33.610 -15.030  -4.322  0.00  0.00    -0.238 OA
ATOM     26  C   UNL d   1      29.526 -15.445  -6.075  0.00  0.00     0.045 C 
BRANCH  23  27
ATOM     27  O   UNL d   1      33.021 -13.061  -5.334  0.00  0.00    -0.304 OA
BRANCH  27  28
ATOM     28  C   UNL d   1      33.226 -11.982  -4.389  0.00  0.00     0.176 C 
ATOM     29  C   UNL d   1      31.908 -11.605  -3.718  0.00  0.00     0.034 C 
ENDBRANCH  27  28
ENDBRANCH  23  27
ENDBRANCH  16  19
ENDBRANCH  14  15
ENDBRANCH  13  14
ENDBRANCH   1  13
BRANCH  11  30
ATOM     30  C   UNL d   1      24.574 -16.959  -0.742  0.00  0.00     0.045 C 
ATOM     31  C   UNL d   1      24.605 -18.357  -0.811  0.00  0.00     0.031 C 
ATOM     32  C   UNL d   1      23.451 -19.098  -0.530  0.00  0.00     0.009 C 
ATOM     33  C   UNL d   1      22.207 -18.468  -0.461  0.00  0.00    -0.062 C 
ATOM     34  C   UNL d   1      20.937 -19.265  -0.411  0.00  0.00     0.048 C 
ATOM     35  C   UNL d   1      22.155 -17.073  -0.520  0.00  0.00     0.009 C 
ATOM     36  C   UNL d   1      23.335 -16.325  -0.590  0.00  0.00     0.031 C 
ENDBRANCH  11  30
TORSDOF 7
ENDMDL
MODEL 7
REMARK VINA RESULT:    -7.574      4.287      7.180
REMARK INTER + INTRA:         -12.996
REMARK INTER:                  -9.662
REMARK INTRA:                  -3.334
REMARK CONF_INDEPENDENT:        2.088
REMARK UNBOUND:                -3.334
REMARK  7 active torsions:
REMARK  status: ('A' for Active; 'I' for Inactive)
REMARK    1  A    between atoms: C_2  and  O_3 
REMARK    2  A    between atoms: O_3  and  C_4 
REMARK       I    between atoms: C_4  and  N_6 
REMARK    3  A    between atoms: C_9  and  N_10 
REMARK       I    between atoms: N_10  and  C_11 
REMARK    4  A    between atoms: C_11  and  C_13 
REMARK    5  A    between atoms: C_13  and  S_14 
REMARK    6  A    between atoms: S_14  and  C_15 
REMARK    7  A    between atoms: N_25  and  C_26 
ROOT
ATOM      1  C   UNL d   1      26.920 -15.285  -1.881  0.00  0.00     0.177 A 
ATOM      2  N   UNL d   1      28.018 -14.590  -2.025  0.00  0.00    -0.222 NA
ATOM      3  C   UNL d   1      28.955 -14.753  -0.998  0.00  0.00     0.093 A 
ATOM      4  C   UNL d   1      30.282 -14.271  -0.934  0.00  0.00     0.059 C 
ATOM      5  C   UNL d   1      30.903 -14.911   0.139  0.00  0.00     0.008 C 
ATOM      6  C   UNL d   1      32.361 -15.039   0.490  0.00  0.00     0.068 C 
ATOM      7  N   UNL d   1      29.878 -15.499   0.869  0.00  0.00    -0.354 N 
ATOM      8  C   UNL d   1      28.728 -15.523   0.104  0.00  0.00     0.131 A 
ATOM      9  C   UNL d   1      27.496 -16.214   0.322  0.00  0.00     0.283 A 
ATOM     10  O   UNL d   1      27.297 -16.867   1.355  0.00  0.00    -0.265 OA
ATOM     11  N   UNL d   1      26.599 -16.101  -0.758  0.00  0.00    -0.255 N 
ATOM     12  H   UNL d   1      29.963 -15.924   1.787  0.00  0.00     0.166 HD
ENDROOT
BRANCH   1  13
ATOM     13  S   UNL d   1      25.812 -15.308  -3.271  0.00  0.00    -0.082 SA
BRANCH  13  14
ATOM     14  C   UNL d   1      26.385 -14.102  -4.514  0.00  0.00     0.185 C 
BRANCH  14  15
ATOM     15  C   UNL d   1      27.552 -14.720  -5.346  0.00  0.00     0.227 C 
ATOM     16  N   UNL d   1      28.813 -14.722  -4.748  0.00  0.00    -0.356 N 
ATOM     17  H   UNL d   1      28.949 -14.227  -3.876  0.00  0.00     0.162 HD
ATOM     18  O   UNL d   1      27.401 -15.200  -6.469  0.00  0.00    -0.273 OA
BRANCH  16  19
ATOM     19  C   UNL d   1      29.994 -15.339  -5.403  0.00  0.00     0.087 C 
ATOM     20  C   UNL d   1      29.875 -16.873  -5.505  0.00  0.00     0.045 C 
ATOM     21  C   UNL d   1      30.030 -17.532  -4.139  0.00  0.00     0.130 C 
ATOM     22  N   UNL d   1      31.263 -17.133  -3.470  0.00  0.00    -0.328 N 
ATOM     23  C   UNL d   1      32.079 -18.083  -2.871  0.00  0.00     0.362 C 
ATOM     24  C   UNL d   1      31.453 -15.701  -3.325  0.00  0.00     0.130 C 
ATOM     25  O   UNL d   1      32.389 -19.140  -3.416  0.00  0.00    -0.238 OA
ATOM     26  C   UNL d   1      31.322 -14.997  -4.688  0.00  0.00     0.045 C 
BRANCH  23  27
ATOM     27  O   UNL d   1      32.450 -17.754  -1.593  0.00  0.00    -0.304 OA
BRANCH  27  28
ATOM     28  C   UNL d   1      31.655 -18.353  -0.540  0.00  0.00     0.176 C 
ATOM     29  C   UNL d   1      30.173 -18.295  -0.895  0.00  0.00     0.034 C 
ENDBRANCH  27  28
ENDBRANCH  23  27
ENDBRANCH  16  19
ENDBRANCH  14  15
ENDBRANCH  13  14
ENDBRANCH   1  13
BRANCH  11  30
ATOM     30  C   UNL d   1      25.349 -16.805  -0.654  0.00  0.00     0.045 C 
ATOM     31  C   UNL d   1      24.142 -16.099  -0.727  0.00  0.00     0.031 C 
ATOM     32  C   UNL d   1      22.936 -16.789  -0.895  0.00  0.00     0.009 C 
ATOM     33  C   UNL d   1      22.882 -18.171  -0.705  0.00  0.00    -0.062 C 
ATOM     34  C   UNL d   1      21.567 -18.892  -0.632  0.00  0.00     0.048 C 
ATOM     35  C   UNL d   1      24.074 -18.870  -0.503  0.00  0.00     0.009 C 
ATOM     36  C   UNL d   1      25.301 -18.200  -0.546  0.00  0.00     0.031 C 
ENDBRANCH  11  30
TORSDOF 7
ENDMDL
MODEL 8
REMARK VINA RESULT:    -7.274      4.453      7.550
REMARK INTER + INTRA:         -13.101
REMARK INTER:                  -9.363
REMARK INTRA:                  -3.738
REMARK CONF_INDEPENDENT:        2.088
REMARK UNBOUND:                -3.738
REMARK  7 active torsions:
REMARK  status: ('A' for Active; 'I' for Inactive)
REMARK    1  A    between atoms: C_2  and  O_3 
REMARK    2  A    between atoms: O_3  and  C_4 
REMARK       I    between atoms: C_4  and  N_6 
REMARK    3  A    between atoms: C_9  and  N_10 
REMARK       I    between atoms: N_10  and  C_11 
REMARK    4  A    between atoms: C_11  and  C_13 
REMARK    5  A    between atoms: C_13  and  S_14 
REMARK    6  A    between atoms: S_14  and  C_15 
REMARK    7  A    between atoms: N_25  and  C_26 
ROOT
ATOM      1  C   UNL d   1      26.609 -14.156  -1.078  0.00  0.00     0.177 A 
ATOM      2  N   UNL d   1      27.279 -13.066  -1.348  0.00  0.00    -0.222 NA
ATOM      3  C   UNL d   1      26.802 -12.341  -2.447  0.00  0.00     0.093 A 
ATOM      4  C   UNL d   1      27.201 -11.062  -2.896  0.00  0.00     0.059 C 
ATOM      5  C   UNL d   1      26.266 -10.646  -3.843  0.00  0.00     0.008 C 
ATOM      6  C   UNL d   1      25.995  -9.280  -4.416  0.00  0.00     0.068 C 
ATOM      7  N   UNL d   1      25.531 -11.779  -4.168  0.00  0.00    -0.354 N 
ATOM      8  C   UNL d   1      25.762 -12.759  -3.222  0.00  0.00     0.131 A 
ATOM      9  C   UNL d   1      25.080 -13.995  -2.998  0.00  0.00     0.283 A 
ATOM     10  O   UNL d   1      24.170 -14.375  -3.747  0.00  0.00    -0.265 OA
ATOM     11  N   UNL d   1      25.522 -14.670  -1.843  0.00  0.00    -0.255 N 
ATOM     12  H   UNL d   1      24.863 -11.864  -4.928  0.00  0.00     0.166 HD
ENDROOT
BRANCH   1  13
ATOM     13  S   UNL d   1      27.015 -14.974   0.447  0.00  0.00    -0.082 SA
BRANCH  13  14
ATOM     14  C   UNL d   1      28.744 -15.551   0.376  0.00  0.00     0.185 C 
BRANCH  14  15
ATOM     15  C   UNL d   1      29.039 -16.151  -1.034  0.00  0.00     0.227 C 
ATOM     16  N   UNL d   1      29.202 -15.241  -2.079  0.00  0.00    -0.356 N 
ATOM     17  H   UNL d   1      29.005 -14.262  -1.920  0.00  0.00     0.162 HD
ATOM     18  O   UNL d   1      29.143 -17.360  -1.245  0.00  0.00    -0.273 OA
BRANCH  16  19
ATOM     19  C   UNL d   1      29.552 -15.677  -3.455  0.00  0.00     0.087 C 
ATOM     20  C   UNL d   1      30.497 -14.686  -4.163  0.00  0.00     0.045 C 
ATOM     21  C   UNL d   1      29.770 -13.399  -4.535  0.00  0.00     0.130 C 
ATOM     22  N   UNL d   1      28.568 -13.651  -5.322  0.00  0.00    -0.328 N 
ATOM     23  C   UNL d   1      28.306 -12.908  -6.465  0.00  0.00     0.362 C 
ATOM     24  C   UNL d   1      27.617 -14.571  -4.724  0.00  0.00     0.130 C 
ATOM     25  O   UNL d   1      29.156 -12.676  -7.323  0.00  0.00    -0.238 OA
ATOM     26  C   UNL d   1      28.309 -15.894  -4.348  0.00  0.00     0.045 C 
BRANCH  23  27
ATOM     27  O   UNL d   1      27.030 -12.410  -6.511  0.00  0.00    -0.304 OA
BRANCH  27  28
ATOM     28  C   UNL d   1      26.893 -11.106  -7.128  0.00  0.00     0.176 C 
ATOM     29  C   UNL d   1      26.962 -11.227  -8.647  0.00  0.00     0.034 C 
ENDBRANCH  27  28
ENDBRANCH  23  27
ENDBRANCH  16  19
ENDBRANCH  14  15
ENDBRANCH  13  14
ENDBRANCH   1  13
BRANCH  11  30
ATOM     30  C   UNL d   1      24.860 -15.900  -1.504  0.00  0.00     0.045 C 
ATOM     31  C   UNL d   1      25.608 -17.072  -1.334  0.00  0.00     0.031 C 
ATOM     32  C   UNL d   1      25.020 -18.200  -0.750  0.00  0.00     0.009 C 
ATOM     33  C   UNL d   1      23.634 -18.274  -0.596  0.00  0.00    -0.062 C 
ATOM     34  C   UNL d   1      22.965 -19.560  -0.210  0.00  0.00     0.048 C 
ATOM     35  C   UNL d   1      22.864 -17.145  -0.887  0.00  0.00     0.009 C 
ATOM     36  C   UNL d   1      23.480 -15.950  -1.270  0.00  0.00     0.031 C 
ENDBRANCH  11  30
TORSDOF 7
ENDMDL
