MODEL 1
REMARK VINA RESULT:    -9.608      0.000      0.000
REMARK INTER + INTRA:         -13.436
REMARK INTER:                 -12.292
REMARK INTRA:                  -1.144
REMARK CONF_INDEPENDENT:        2.685
REMARK UNBOUND:                -1.144
REMARK  9 active torsions:
REMARK  status: ('A' for Active; 'I' for Inactive)
REMARK    1  A    between atoms: C_6  and  N_7 
REMARK    2  A    between atoms: N_7  and  C_8 
REMARK    3  A    between atoms: C_8  and  C_9 
REMARK    4  A    between atoms: C_12  and  S_13 
REMARK    5  A    between atoms: S_13  and  C_14 
REMARK    6  A    between atoms: C_14  and  C_15 
REMARK       I    between atoms: C_15  and  N_17 
REMARK    7  A    between atoms: N_17  and  C_18 
REMARK    8  A    between atoms: C_21  and  O_22 
REMARK    9  A    between atoms: O_22  and  C_23 
ROOT
ATOM      1  C   UNL d   1      27.948 -16.041   0.579  0.00  0.00     0.185 C 
ENDROOT
BRANCH   1   2
ATOM      2  S   UNL d   1      27.461 -14.271   0.426  0.00  0.00    -0.081 SA
BRANCH   2   3
ATOM      3  C   UNL d   1      27.648 -13.595   1.987  0.00  0.00     0.185 A 
ATOM      4  N   UNL d   1      27.993 -12.284   2.132  0.00  0.00    -0.254 N 
ATOM      5  N   UNL d   1      28.085 -11.943   3.431  0.00  0.00    -0.155 NA
ATOM      6  H   UNL d   1      28.173 -11.592   1.415  0.00  0.00     0.191 HD
ATOM      7  C   UNL d   1      27.781 -13.108   4.024  0.00  0.00     0.166 A 
ATOM      8  N   UNL d   1      27.505 -14.155   3.159  0.00  0.00    -0.204 NA
BRANCH   7   9
ATOM      9  C   UNL d   1      27.739 -13.286   5.515  0.00  0.00     0.202 C 
BRANCH   9  10
ATOM     10  N   UNL d   1      29.047 -13.445   6.142  0.00  0.00    -0.383 N 
ATOM     11  H   UNL d   1      29.818 -13.548   5.492  0.00  0.00     0.160 HD
BRANCH  10  12
ATOM     12  C   UNL d   1      29.249 -13.549   7.496  0.00  0.00     0.028 A 
ATOM     13  C   UNL d   1      28.378 -12.902   8.379  0.00  0.00     0.029 A 
ATOM     14  C   UNL d   1      28.549 -12.997   9.762  0.00  0.00     0.003 A 
ATOM     15  C   UNL d   1      29.595 -13.753  10.287  0.00  0.00     0.007 A 
ATOM     16  C   UNL d   1      30.472 -14.418   9.430  0.00  0.00    -0.060 A 
ATOM     17  C   UNL d   1      31.597 -15.258   9.953  0.00  0.00     0.048 C 
ATOM     18  C   UNL d   1      30.289 -14.306   8.046  0.00  0.00     0.036 A 
ENDBRANCH  10  12
ENDBRANCH   9  10
ENDBRANCH   7   9
ENDBRANCH   2   3
ENDBRANCH   1   2
BRANCH   1  19
ATOM     19  C   UNL d   1      26.685 -16.911   0.420  0.00  0.00     0.231 C 
ATOM     20  O   UNL d   1      26.554 -17.976   1.041  0.00  0.00    -0.272 OA
ATOM     21  N   UNL d   1      25.716 -16.461  -0.482  0.00  0.00    -0.327 N 
ATOM     22  H   UNL d   1      25.933 -15.718  -1.134  0.00  0.00     0.169 HD
BRANCH  21  23
ATOM     23  C   UNL d   1      24.473 -17.136  -0.646  0.00  0.00     0.034 A 
ATOM     24  C   UNL d   1      23.259 -16.446  -0.740  0.00  0.00     0.032 A 
ATOM     25  C   UNL d   1      22.044 -17.156  -0.878  0.00  0.00     0.039 A 
ATOM     26  C   UNL d   1      22.038 -18.556  -0.956  0.00  0.00     0.076 A 
ATOM     27  C   UNL d   1      23.250 -19.229  -0.845  0.00  0.00     0.039 A 
ATOM     28  C   UNL d   1      24.444 -18.530  -0.684  0.00  0.00     0.032 A 
BRANCH  26  29
ATOM     29  O   UNL d   1      20.821 -19.176  -1.181  0.00  0.00    -0.311 OA
BRANCH  29  30
ATOM     30  C   UNL d   1      20.119 -19.663  -0.095  0.00  0.00     0.076 A 
ATOM     31  C   UNL d   1      18.927 -20.355  -0.318  0.00  0.00     0.037 A 
ATOM     32  C   UNL d   1      18.172 -20.808   0.769  0.00  0.00     0.003 A 
ATOM     33  C   UNL d   1      18.640 -20.628   2.071  0.00  0.00     0.000 A 
ATOM     34  C   UNL d   1      19.829 -19.936   2.293  0.00  0.00     0.003 A 
ATOM     35  C   UNL d   1      20.548 -19.417   1.214  0.00  0.00     0.037 A 
ENDBRANCH  29  30
ENDBRANCH  26  29
ENDBRANCH  21  23
ENDBRANCH   1  19
TORSDOF 9
ENDMDL
MODEL 2
REMARK VINA RESULT:    -9.577      5.457      8.145
REMARK INTER + INTRA:         -13.556
REMARK INTER:                 -12.262
REMARK INTRA:                  -1.294
REMARK CONF_INDEPENDENT:        2.685
REMARK UNBOUND:                -1.294
REMARK  9 active torsions:
REMARK  status: ('A' for Active; 'I' for Inactive)
REMARK    1  A    between atoms: C_6  and  N_7 
REMARK    2  A    between atoms: N_7  and  C_8 
REMARK    3  A    between atoms: C_8  and  C_9 
REMARK    4  A    between atoms: C_12  and  S_13 
REMARK    5  A    between atoms: S_13  and  C_14 
REMARK    6  A    between atoms: C_14  and  C_15 
REMARK       I    between atoms: C_15  and  N_17 
REMARK    7  A    between atoms: N_17  and  C_18 
REMARK    8  A    between atoms: C_21  and  O_22 
REMARK    9  A    between atoms: O_22  and  C_23 
ROOT
ATOM      1  C   UNL d   1      27.850 -15.975  -0.148  0.00  0.00     0.185 C 
ENDROOT
BRANCH   1   2
ATOM      2  S   UNL d   1      28.480 -16.405  -1.824  0.00  0.00    -0.081 SA
BRANCH   2   3
ATOM      3  C   UNL d   1      27.536 -15.503  -2.929  0.00  0.00     0.185 A 
ATOM      4  N   UNL d   1      26.280 -15.919  -3.261  0.00  0.00    -0.254 N 
ATOM      5  N   UNL d   1      25.700 -15.076  -4.135  0.00  0.00    -0.155 NA
ATOM      6  H   UNL d   1      25.776 -16.736  -2.939  0.00  0.00     0.191 HD
ATOM      7  C   UNL d   1      26.671 -14.163  -4.294  0.00  0.00     0.166 A 
ATOM      8  N   UNL d   1      27.824 -14.396  -3.561  0.00  0.00    -0.204 NA
BRANCH   7   9
ATOM      9  C   UNL d   1      26.539 -12.968  -5.195  0.00  0.00     0.202 C 
BRANCH   9  10
ATOM     10  N   UNL d   1      25.550 -11.988  -4.758  0.00  0.00    -0.383 N 
ATOM     11  H   UNL d   1      24.633 -12.372  -4.559  0.00  0.00     0.160 HD
BRANCH  10  12
ATOM     12  C   UNL d   1      25.773 -10.634  -4.701  0.00  0.00     0.028 A 
ATOM     13  C   UNL d   1      25.609  -9.856  -5.851  0.00  0.00     0.029 A 
ATOM     14  C   UNL d   1      25.818  -8.474  -5.824  0.00  0.00     0.003 A 
ATOM     15  C   UNL d   1      26.186  -7.846  -4.637  0.00  0.00     0.007 A 
ATOM     16  C   UNL d   1      26.345  -8.596  -3.472  0.00  0.00    -0.060 A 
ATOM     17  C   UNL d   1      26.720  -7.958  -2.170  0.00  0.00     0.048 C 
ATOM     18  C   UNL d   1      26.138  -9.981  -3.519  0.00  0.00     0.036 A 
ENDBRANCH  10  12
ENDBRANCH   9  10
ENDBRANCH   7   9
ENDBRANCH   2   3
ENDBRANCH   1   2
BRANCH   1  19
ATOM     19  C   UNL d   1      26.318 -16.154  -0.142  0.00  0.00     0.231 C 
ATOM     20  O   UNL d   1      25.564 -15.236   0.212  0.00  0.00    -0.272 OA
ATOM     21  N   UNL d   1      25.826 -17.408  -0.516  0.00  0.00    -0.327 N 
ATOM     22  H   UNL d   1      26.452 -18.201  -0.587  0.00  0.00     0.169 HD
BRANCH  21  23
ATOM     23  C   UNL d   1      24.429 -17.663  -0.629  0.00  0.00     0.034 A 
ATOM     24  C   UNL d   1      23.908 -18.962  -0.626  0.00  0.00     0.032 A 
ATOM     25  C   UNL d   1      22.517 -19.172  -0.766  0.00  0.00     0.039 A 
ATOM     26  C   UNL d   1      21.637 -18.086  -0.876  0.00  0.00     0.076 A 
ATOM     27  C   UNL d   1      22.171 -16.802  -0.895  0.00  0.00     0.039 A 
ATOM     28  C   UNL d   1      23.543 -16.597  -0.782  0.00  0.00     0.032 A 
BRANCH  26  29
ATOM     29  O   UNL d   1      20.282 -18.367  -0.920  0.00  0.00    -0.311 OA
BRANCH  29  30
ATOM     30  C   UNL d   1      19.767 -19.274  -0.015  0.00  0.00     0.076 A 
ATOM     31  C   UNL d   1      20.292 -19.307   1.279  0.00  0.00     0.037 A 
ATOM     32  C   UNL d   1      19.824 -20.255   2.196  0.00  0.00     0.003 A 
ATOM     33  C   UNL d   1      18.789 -21.122   1.840  0.00  0.00     0.000 A 
ATOM     34  C   UNL d   1      18.268 -21.090   0.548  0.00  0.00     0.003 A 
ATOM     35  C   UNL d   1      18.784 -20.195  -0.391  0.00  0.00     0.037 A 
ENDBRANCH  29  30
ENDBRANCH  26  29
ENDBRANCH  21  23
ENDBRANCH   1  19
TORSDOF 9
ENDMDL
MODEL 3
REMARK VINA RESULT:    -9.560      5.258      9.521
REMARK INTER + INTRA:         -13.829
REMARK INTER:                 -12.245
REMARK INTRA:                  -1.584
REMARK CONF_INDEPENDENT:        2.685
REMARK UNBOUND:                -1.584
REMARK  9 active torsions:
REMARK  status: ('A' for Active; 'I' for Inactive)
REMARK    1  A    between atoms: C_6  and  N_7 
REMARK    2  A    between atoms: N_7  and  C_8 
REMARK    3  A    between atoms: C_8  and  C_9 
REMARK    4  A    between atoms: C_12  and  S_13 
REMARK    5  A    between atoms: S_13  and  C_14 
REMARK    6  A    between atoms: C_14  and  C_15 
REMARK       I    between atoms: C_15  and  N_17 
REMARK    7  A    between atoms: N_17  and  C_18 
REMARK    8  A    between atoms: C_21  and  O_22 
REMARK    9  A    between atoms: O_22  and  C_23 
ROOT
ATOM      1  C   UNL d   1      27.775 -16.320   0.692  0.00  0.00     0.185 C 
ENDROOT
BRANCH   1   2
ATOM      2  S   UNL d   1      28.320 -15.614  -0.918  0.00  0.00    -0.081 SA
BRANCH   2   3
ATOM      3  C   UNL d   1      29.341 -16.790  -1.627  0.00  0.00     0.185 A 
ATOM      4  N   UNL d   1      29.981 -17.707  -0.845  0.00  0.00    -0.254 N 
ATOM      5  N   UNL d   1      30.729 -18.545  -1.587  0.00  0.00    -0.155 NA
ATOM      6  H   UNL d   1      29.951 -17.814   0.161  0.00  0.00     0.191 HD
ATOM      7  C   UNL d   1      30.496 -18.073  -2.821  0.00  0.00     0.166 A 
ATOM      8  N   UNL d   1      29.640 -16.985  -2.884  0.00  0.00    -0.204 NA
BRANCH   7   9
ATOM      9  C   UNL d   1      31.108 -18.666  -4.059  0.00  0.00     0.202 C 
BRANCH   9  10
ATOM     10  N   UNL d   1      30.729 -17.997  -5.299  0.00  0.00    -0.383 N 
ATOM     11  H   UNL d   1      30.103 -17.209  -5.181  0.00  0.00     0.160 HD
BRANCH  10  12
ATOM     12  C   UNL d   1      31.091 -18.427  -6.552  0.00  0.00     0.028 A 
ATOM     13  C   UNL d   1      30.559 -19.619  -7.056  0.00  0.00     0.029 A 
ATOM     14  C   UNL d   1      30.898 -20.079  -8.331  0.00  0.00     0.003 A 
ATOM     15  C   UNL d   1      31.771 -19.343  -9.131  0.00  0.00     0.007 A 
ATOM     16  C   UNL d   1      32.306 -18.146  -8.657  0.00  0.00    -0.060 A 
ATOM     17  C   UNL d   1      33.232 -17.314  -9.492  0.00  0.00     0.048 C 
ATOM     18  C   UNL d   1      31.961 -17.703  -7.374  0.00  0.00     0.036 A 
ENDBRANCH  10  12
ENDBRANCH   9  10
ENDBRANCH   7   9
ENDBRANCH   2   3
ENDBRANCH   1   2
BRANCH   1  19
ATOM     19  C   UNL d   1      26.508 -17.167   0.450  0.00  0.00     0.231 C 
ATOM     20  O   UNL d   1      26.399 -18.310   0.916  0.00  0.00    -0.272 OA
ATOM     21  N   UNL d   1      25.511 -16.599  -0.348  0.00  0.00    -0.327 N 
ATOM     22  H   UNL d   1      25.705 -15.769  -0.894  0.00  0.00     0.169 HD
BRANCH  21  23
ATOM     23  C   UNL d   1      24.264 -17.252  -0.568  0.00  0.00     0.034 A 
ATOM     24  C   UNL d   1      24.167 -18.641  -0.708  0.00  0.00     0.032 A 
ATOM     25  C   UNL d   1      22.912 -19.246  -0.950  0.00  0.00     0.039 A 
ATOM     26  C   UNL d   1      21.746 -18.472  -1.022  0.00  0.00     0.076 A 
ATOM     27  C   UNL d   1      21.860 -17.092  -0.899  0.00  0.00     0.039 A 
ATOM     28  C   UNL d   1      23.099 -16.494  -0.684  0.00  0.00     0.032 A 
BRANCH  26  29
ATOM     29  O   UNL d   1      20.545 -19.144  -1.173  0.00  0.00    -0.311 OA
BRANCH  29  30
ATOM     30  C   UNL d   1      19.930 -19.658  -0.048  0.00  0.00     0.076 A 
ATOM     31  C   UNL d   1      20.512 -19.430   1.201  0.00  0.00     0.037 A 
ATOM     32  C   UNL d   1      19.938 -19.989   2.348  0.00  0.00     0.003 A 
ATOM     33  C   UNL d   1      18.749 -20.715   2.254  0.00  0.00     0.000 A 
ATOM     34  C   UNL d   1      18.171 -20.943   1.007  0.00  0.00     0.003 A 
ATOM     35  C   UNL d   1      18.782 -20.450  -0.147  0.00  0.00     0.037 A 
ENDBRANCH  29  30
ENDBRANCH  26  29
ENDBRANCH  21  23
ENDBRANCH   1  19
TORSDOF 9
ENDMDL
MODEL 4
REMARK VINA RESULT:    -9.481      5.366      7.928
REMARK INTER + INTRA:         -13.971
REMARK INTER:                 -12.166
REMARK INTRA:                  -1.806
REMARK CONF_INDEPENDENT:        2.685
REMARK UNBOUND:                -1.806
REMARK  9 active torsions:
REMARK  status: ('A' for Active; 'I' for Inactive)
REMARK    1  A    between atoms: C_6  and  N_7 
REMARK    2  A    between atoms: N_7  and  C_8 
REMARK    3  A    between atoms: C_8  and  C_9 
REMARK    4  A    between atoms: C_12  and  S_13 
REMARK    5  A    between atoms: S_13  and  C_14 
REMARK    6  A    between atoms: C_14  and  C_15 
REMARK       I    between atoms: C_15  and  N_17 
REMARK    7  A    between atoms: N_17  and  C_18 
REMARK    8  A    between atoms: C_21  and  O_22 
REMARK    9  A    between atoms: O_22  and  C_23 
ROOT
ATOM      1  C   UNL d   1      28.193 -17.088   0.231  0.00  0.00     0.185 C 
ENDROOT
BRANCH   1   2
ATOM      2  S   UNL d   1      28.171 -15.370  -0.434  0.00  0.00    -0.081 SA
BRANCH   2   3
ATOM      3  C   UNL d   1      28.879 -15.458  -1.989  0.00  0.00     0.185 A 
ATOM      4  N   UNL d   1      30.207 -15.199  -2.156  0.00  0.00    -0.254 N 
ATOM      5  N   UNL d   1      30.572 -15.325  -3.446  0.00  0.00    -0.155 NA
ATOM      6  H   UNL d   1      30.896 -14.943  -1.460  0.00  0.00     0.191 HD
ATOM      7  C   UNL d   1      29.403 -15.663  -4.011  0.00  0.00     0.166 A 
ATOM      8  N   UNL d   1      28.331 -15.755  -3.137  0.00  0.00    -0.204 NA
BRANCH   7   9
ATOM      9  C   UNL d   1      29.244 -15.928  -5.482  0.00  0.00     0.202 C 
BRANCH   9  10
ATOM     10  N   UNL d   1      28.253 -15.086  -6.143  0.00  0.00    -0.383 N 
ATOM     11  H   UNL d   1      28.392 -14.972  -7.141  0.00  0.00     0.160 HD
BRANCH  10  12
ATOM     12  C   UNL d   1      27.255 -14.405  -5.490  0.00  0.00     0.028 A 
ATOM     13  C   UNL d   1      26.182 -15.112  -4.937  0.00  0.00     0.029 A 
ATOM     14  C   UNL d   1      25.156 -14.451  -4.256  0.00  0.00     0.003 A 
ATOM     15  C   UNL d   1      25.193 -13.066  -4.110  0.00  0.00     0.007 A 
ATOM     16  C   UNL d   1      26.256 -12.338  -4.642  0.00  0.00    -0.060 A 
ATOM     17  C   UNL d   1      26.346 -10.850  -4.490  0.00  0.00     0.048 C 
ATOM     18  C   UNL d   1      27.273 -13.016  -5.327  0.00  0.00     0.036 A 
ENDBRANCH  10  12
ENDBRANCH   9  10
ENDBRANCH   7   9
ENDBRANCH   2   3
ENDBRANCH   1   2
BRANCH   1  19
ATOM     19  C   UNL d   1      26.763 -17.662   0.145  0.00  0.00     0.231 C 
ATOM     20  O   UNL d   1      26.445 -18.689   0.761  0.00  0.00    -0.272 OA
ATOM     21  N   UNL d   1      25.861 -16.993  -0.687  0.00  0.00    -0.327 N 
ATOM     22  H   UNL d   1      26.193 -16.298  -1.344  0.00  0.00     0.169 HD
BRANCH  21  23
ATOM     23  C   UNL d   1      24.494 -17.381  -0.778  0.00  0.00     0.034 A 
ATOM     24  C   UNL d   1      24.109 -18.722  -0.893  0.00  0.00     0.032 A 
ATOM     25  C   UNL d   1      22.741 -19.063  -1.005  0.00  0.00     0.039 A 
ATOM     26  C   UNL d   1      21.751 -18.071  -0.970  0.00  0.00     0.076 A 
ATOM     27  C   UNL d   1      22.150 -16.742  -0.874  0.00  0.00     0.039 A 
ATOM     28  C   UNL d   1      23.499 -16.405  -0.788  0.00  0.00     0.032 A 
BRANCH  26  29
ATOM     29  O   UNL d   1      20.431 -18.487  -0.996  0.00  0.00    -0.311 OA
BRANCH  29  30
ATOM     30  C   UNL d   1      19.969 -19.277   0.038  0.00  0.00     0.076 A 
ATOM     31  C   UNL d   1      18.831 -20.060  -0.168  0.00  0.00     0.037 A 
ATOM     32  C   UNL d   1      18.313 -20.825   0.883  0.00  0.00     0.003 A 
ATOM     33  C   UNL d   1      18.968 -20.858   2.115  0.00  0.00     0.000 A 
ATOM     34  C   UNL d   1      20.102 -20.075   2.320  0.00  0.00     0.003 A 
ATOM     35  C   UNL d   1      20.579 -19.253   1.297  0.00  0.00     0.037 A 
ENDBRANCH  29  30
ENDBRANCH  26  29
ENDBRANCH  21  23
ENDBRANCH   1  19
TORSDOF 9
ENDMDL
MODEL 5
REMARK VINA RESULT:    -9.441      5.064      7.862
REMARK INTER + INTRA:         -14.207
REMARK INTER:                 -12.126
REMARK INTRA:                  -2.082
REMARK CONF_INDEPENDENT:        2.685
REMARK UNBOUND:                -2.082
REMARK  9 active torsions:
REMARK  status: ('A' for Active; 'I' for Inactive)
REMARK    1  A    between atoms: C_6  and  N_7 
REMARK    2  A    between atoms: N_7  and  C_8 
REMARK    3  A    between atoms: C_8  and  C_9 
REMARK    4  A    between atoms: C_12  and  S_13 
REMARK    5  A    between atoms: S_13  and  C_14 
REMARK    6  A    between atoms: C_14  and  C_15 
REMARK       I    between atoms: C_15  and  N_17 
REMARK    7  A    between atoms: N_17  and  C_18 
REMARK    8  A    between atoms: C_21  and  O_22 
REMARK    9  A    between atoms: O_22  and  C_23 
ROOT
ATOM      1  C   UNL d   1      28.083 -17.046   0.199  0.00  0.00     0.185 C 
ENDROOT
BRANCH   1   2
ATOM      2  S   UNL d   1      28.033 -15.309   0.807  0.00  0.00    -0.081 SA
BRANCH   2   3
ATOM      3  C   UNL d   1      27.321 -14.391  -0.449  0.00  0.00     0.185 A 
ATOM      4  N   UNL d   1      27.814 -13.160  -0.767  0.00  0.00    -0.254 N 
ATOM      5  N   UNL d   1      27.125 -12.602  -1.780  0.00  0.00    -0.155 NA
ATOM      6  H   UNL d   1      28.591 -12.660  -0.350  0.00  0.00     0.191 HD
ATOM      7  C   UNL d   1      26.217 -13.559  -2.030  0.00  0.00     0.166 A 
ATOM      8  N   UNL d   1      26.309 -14.682  -1.223  0.00  0.00    -0.204 NA
BRANCH   7   9
ATOM      9  C   UNL d   1      25.170 -13.441  -3.099  0.00  0.00     0.202 C 
BRANCH   9  10
ATOM     10  N   UNL d   1      25.690 -13.107  -4.421  0.00  0.00    -0.383 N 
ATOM     11  H   UNL d   1      25.120 -12.456  -4.949  0.00  0.00     0.160 HD
BRANCH  10  12
ATOM     12  C   UNL d   1      26.806 -13.679  -4.981  0.00  0.00     0.028 A 
ATOM     13  C   UNL d   1      27.188 -14.969  -4.601  0.00  0.00     0.029 A 
ATOM     14  C   UNL d   1      28.312 -15.584  -5.159  0.00  0.00     0.003 A 
ATOM     15  C   UNL d   1      29.069 -14.917  -6.121  0.00  0.00     0.007 A 
ATOM     16  C   UNL d   1      28.703 -13.633  -6.526  0.00  0.00    -0.060 A 
ATOM     17  C   UNL d   1      29.477 -12.889  -7.571  0.00  0.00     0.048 C 
ATOM     18  C   UNL d   1      27.578 -13.029  -5.951  0.00  0.00     0.036 A 
ENDBRANCH  10  12
ENDBRANCH   9  10
ENDBRANCH   7   9
ENDBRANCH   2   3
ENDBRANCH   1   2
BRANCH   1  19
ATOM     19  C   UNL d   1      26.647 -17.610   0.215  0.00  0.00     0.231 C 
ATOM     20  O   UNL d   1      26.299 -18.459   1.049  0.00  0.00    -0.272 OA
ATOM     21  N   UNL d   1      25.775 -17.148  -0.774  0.00  0.00    -0.327 N 
ATOM     22  H   UNL d   1      26.132 -16.632  -1.568  0.00  0.00     0.169 HD
BRANCH  21  23
ATOM     23  C   UNL d   1      24.404 -17.534  -0.805  0.00  0.00     0.034 A 
ATOM     24  C   UNL d   1      24.009 -18.877  -0.812  0.00  0.00     0.032 A 
ATOM     25  C   UNL d   1      22.638 -19.216  -0.868  0.00  0.00     0.039 A 
ATOM     26  C   UNL d   1      21.654 -18.217  -0.884  0.00  0.00     0.076 A 
ATOM     27  C   UNL d   1      22.061 -16.888  -0.895  0.00  0.00     0.039 A 
ATOM     28  C   UNL d   1      23.413 -16.554  -0.864  0.00  0.00     0.032 A 
BRANCH  26  29
ATOM     29  O   UNL d   1      20.331 -18.627  -0.849  0.00  0.00    -0.311 OA
BRANCH  29  30
ATOM     30  C   UNL d   1      19.893 -19.348   0.243  0.00  0.00     0.076 A 
ATOM     31  C   UNL d   1      20.612 -19.268   1.438  0.00  0.00     0.037 A 
ATOM     32  C   UNL d   1      20.219 -20.034   2.540  0.00  0.00     0.003 A 
ATOM     33  C   UNL d   1      19.072 -20.826   2.469  0.00  0.00     0.000 A 
ATOM     34  C   UNL d   1      18.356 -20.908   1.276  0.00  0.00     0.003 A 
ATOM     35  C   UNL d   1      18.789 -20.202   0.152  0.00  0.00     0.037 A 
ENDBRANCH  29  30
ENDBRANCH  26  29
ENDBRANCH  21  23
ENDBRANCH   1  19
TORSDOF 9
ENDMDL
MODEL 6
REMARK VINA RESULT:    -9.389      5.797      8.642
REMARK INTER + INTRA:         -14.062
REMARK INTER:                 -12.074
REMARK INTRA:                  -1.988
REMARK CONF_INDEPENDENT:        2.685
REMARK UNBOUND:                -1.988
REMARK  9 active torsions:
REMARK  status: ('A' for Active; 'I' for Inactive)
REMARK    1  A    between atoms: C_6  and  N_7 
REMARK    2  A    between atoms: N_7  and  C_8 
REMARK    3  A    between atoms: C_8  and  C_9 
REMARK    4  A    between atoms: C_12  and  S_13 
REMARK    5  A    between atoms: S_13  and  C_14 
REMARK    6  A    between atoms: C_14  and  C_15 
REMARK       I    between atoms: C_15  and  N_17 
REMARK    7  A    between atoms: N_17  and  C_18 
REMARK    8  A    between atoms: C_21  and  O_22 
REMARK    9  A    between atoms: O_22  and  C_23 
ROOT
ATOM      1  C   UNL d   1      27.340 -14.506  -1.197  0.00  0.00     0.185 C 
ENDROOT
BRANCH   1   2
ATOM      2  S   UNL d   1      28.718 -15.642  -1.645  0.00  0.00    -0.081 SA
BRANCH   2   3
ATOM      3  C   UNL d   1      28.862 -15.558  -3.348  0.00  0.00     0.185 A 
ATOM      4  N   UNL d   1      27.749 -15.585  -4.135  0.00  0.00    -0.254 N 
ATOM      5  N   UNL d   1      28.070 -15.504  -5.440  0.00  0.00    -0.155 NA
ATOM      6  H   UNL d   1      26.777 -15.653  -3.858  0.00  0.00     0.191 HD
ATOM      7  C   UNL d   1      29.408 -15.432  -5.371  0.00  0.00     0.166 A 
ATOM      8  N   UNL d   1      29.934 -15.463  -4.089  0.00  0.00    -0.204 NA
BRANCH   7   9
ATOM      9  C   UNL d   1      30.291 -15.325  -6.582  0.00  0.00     0.202 C 
BRANCH   9  10
ATOM     10  N   UNL d   1      30.699 -16.607  -7.147  0.00  0.00    -0.383 N 
ATOM     11  H   UNL d   1      30.863 -16.596  -8.147  0.00  0.00     0.160 HD
BRANCH  10  12
ATOM     12  C   UNL d   1      30.773 -17.779  -6.434  0.00  0.00     0.028 A 
ATOM     13  C   UNL d   1      30.411 -18.985  -7.044  0.00  0.00     0.029 A 
ATOM     14  C   UNL d   1      30.485 -20.196  -6.351  0.00  0.00     0.003 A 
ATOM     15  C   UNL d   1      30.935 -20.220  -5.032  0.00  0.00     0.007 A 
ATOM     16  C   UNL d   1      31.312 -19.034  -4.403  0.00  0.00    -0.060 A 
ATOM     17  C   UNL d   1      31.820 -19.018  -2.994  0.00  0.00     0.048 C 
ATOM     18  C   UNL d   1      31.225 -17.828  -5.111  0.00  0.00     0.036 A 
ENDBRANCH  10  12
ENDBRANCH   9  10
ENDBRANCH   7   9
ENDBRANCH   2   3
ENDBRANCH   1   2
BRANCH   1  19
ATOM     19  C   UNL d   1      26.004 -15.242  -1.432  0.00  0.00     0.231 C 
ATOM     20  O   UNL d   1      25.327 -15.036  -2.449  0.00  0.00    -0.272 OA
ATOM     21  N   UNL d   1      25.580 -16.117  -0.429  0.00  0.00    -0.327 N 
ATOM     22  H   UNL d   1      26.026 -16.107   0.480  0.00  0.00     0.169 HD
BRANCH  21  23
ATOM     23  C   UNL d   1      24.408 -16.914  -0.574  0.00  0.00     0.034 A 
ATOM     24  C   UNL d   1      23.145 -16.347  -0.778  0.00  0.00     0.032 A 
ATOM     25  C   UNL d   1      22.004 -17.174  -0.893  0.00  0.00     0.039 A 
ATOM     26  C   UNL d   1      22.122 -18.570  -0.839  0.00  0.00     0.076 A 
ATOM     27  C   UNL d   1      23.382 -19.118  -0.620  0.00  0.00     0.039 A 
ATOM     28  C   UNL d   1      24.502 -18.302  -0.482  0.00  0.00     0.032 A 
BRANCH  26  29
ATOM     29  O   UNL d   1      20.975 -19.315  -1.049  0.00  0.00    -0.311 OA
BRANCH  29  30
ATOM     30  C   UNL d   1      20.250 -19.733   0.050  0.00  0.00     0.076 A 
ATOM     31  C   UNL d   1      19.071 -20.453  -0.153  0.00  0.00     0.037 A 
ATOM     32  C   UNL d   1      18.292 -20.837   0.943  0.00  0.00     0.003 A 
ATOM     33  C   UNL d   1      18.726 -20.562   2.241  0.00  0.00     0.000 A 
ATOM     34  C   UNL d   1      19.902 -19.842   2.443  0.00  0.00     0.003 A 
ATOM     35  C   UNL d   1      20.642 -19.392   1.349  0.00  0.00     0.037 A 
ENDBRANCH  29  30
ENDBRANCH  26  29
ENDBRANCH  21  23
ENDBRANCH   1  19
TORSDOF 9
ENDMDL
MODEL 7
REMARK VINA RESULT:    -9.374      5.928      9.368
REMARK INTER + INTRA:         -14.088
REMARK INTER:                 -12.058
REMARK INTRA:                  -2.029
REMARK CONF_INDEPENDENT:        2.685
REMARK UNBOUND:                -2.029
REMARK  9 active torsions:
REMARK  status: ('A' for Active; 'I' for Inactive)
REMARK    1  A    between atoms: C_6  and  N_7 
REMARK    2  A    between atoms: N_7  and  C_8 
REMARK    3  A    between atoms: C_8  and  C_9 
REMARK    4  A    between atoms: C_12  and  S_13 
REMARK    5  A    between atoms: S_13  and  C_14 
REMARK    6  A    between atoms: C_14  and  C_15 
REMARK       I    between atoms: C_15  and  N_17 
REMARK    7  A    between atoms: N_17  and  C_18 
REMARK    8  A    between atoms: C_21  and  O_22 
REMARK    9  A    between atoms: O_22  and  C_23 
ROOT
ATOM      1  C   UNL d   1      27.351 -14.814  -1.349  0.00  0.00     0.185 C 
ENDROOT
BRANCH   1   2
ATOM      2  S   UNL d   1      28.574 -15.905  -2.188  0.00  0.00    -0.081 SA
BRANCH   2   3
ATOM      3  C   UNL d   1      28.437 -15.567  -3.860  0.00  0.00     0.185 A 
ATOM      4  N   UNL d   1      27.213 -15.544  -4.459  0.00  0.00    -0.254 N 
ATOM      5  N   UNL d   1      27.314 -15.256  -5.770  0.00  0.00    -0.155 NA
ATOM      6  H   UNL d   1      26.301 -15.706  -4.048  0.00  0.00     0.191 HD
ATOM      7  C   UNL d   1      28.643 -15.119  -5.900  0.00  0.00     0.166 A 
ATOM      8  N   UNL d   1      29.371 -15.305  -4.736  0.00  0.00    -0.204 NA
BRANCH   7   9
ATOM      9  C   UNL d   1      29.313 -14.788  -7.203  0.00  0.00     0.202 C 
BRANCH   9  10
ATOM     10  N   UNL d   1      29.503 -13.360  -7.439  0.00  0.00    -0.383 N 
ATOM     11  H   UNL d   1      30.466 -13.049  -7.400  0.00  0.00     0.160 HD
BRANCH  10  12
ATOM     12  C   UNL d   1      28.479 -12.460  -7.608  0.00  0.00     0.028 A 
ATOM     13  C   UNL d   1      28.141 -12.028  -8.894  0.00  0.00     0.029 A 
ATOM     14  C   UNL d   1      27.098 -11.121  -9.101  0.00  0.00     0.003 A 
ATOM     15  C   UNL d   1      26.365 -10.639  -8.018  0.00  0.00     0.007 A 
ATOM     16  C   UNL d   1      26.674 -11.063  -6.726  0.00  0.00    -0.060 A 
ATOM     17  C   UNL d   1      25.899 -10.585  -5.536  0.00  0.00     0.048 C 
ATOM     18  C   UNL d   1      27.728 -11.967  -6.536  0.00  0.00     0.036 A 
ENDBRANCH  10  12
ENDBRANCH   9  10
ENDBRANCH   7   9
ENDBRANCH   2   3
ENDBRANCH   1   2
BRANCH   1  19
ATOM     19  C   UNL d   1      25.946 -15.426  -1.530  0.00  0.00     0.231 C 
ATOM     20  O   UNL d   1      25.187 -15.041  -2.431  0.00  0.00    -0.272 OA
ATOM     21  N   UNL d   1      25.560 -16.404  -0.609  0.00  0.00    -0.327 N 
ATOM     22  H   UNL d   1      26.095 -16.547   0.238  0.00  0.00     0.169 HD
BRANCH  21  23
ATOM     23  C   UNL d   1      24.322 -17.100  -0.728  0.00  0.00     0.034 A 
ATOM     24  C   UNL d   1      23.096 -16.427  -0.802  0.00  0.00     0.032 A 
ATOM     25  C   UNL d   1      21.889 -17.157  -0.895  0.00  0.00     0.039 A 
ATOM     26  C   UNL d   1      21.901 -18.558  -0.948  0.00  0.00     0.076 A 
ATOM     27  C   UNL d   1      23.125 -19.212  -0.857  0.00  0.00     0.039 A 
ATOM     28  C   UNL d   1      24.312 -18.494  -0.741  0.00  0.00     0.032 A 
BRANCH  26  29
ATOM     29  O   UNL d   1      20.687 -19.198  -1.129  0.00  0.00    -0.311 OA
BRANCH  29  30
ATOM     30  C   UNL d   1      20.053 -19.732  -0.024  0.00  0.00     0.076 A 
ATOM     31  C   UNL d   1      18.869 -20.450  -0.208  0.00  0.00     0.037 A 
ATOM     32  C   UNL d   1      18.180 -20.952   0.902  0.00  0.00     0.003 A 
ATOM     33  C   UNL d   1      18.709 -20.794   2.184  0.00  0.00     0.000 A 
ATOM     34  C   UNL d   1      19.889 -20.076   2.367  0.00  0.00     0.003 A 
ATOM     35  C   UNL d   1      20.539 -19.510   1.268  0.00  0.00     0.037 A 
ENDBRANCH  29  30
ENDBRANCH  26  29
ENDBRANCH  21  23
ENDBRANCH   1  19
TORSDOF 9
ENDMDL
MODEL 8
REMARK VINA RESULT:    -9.193      5.005      8.677
REMARK INTER + INTRA:         -13.481
REMARK INTER:                 -11.878
REMARK INTRA:                  -1.603
REMARK CONF_INDEPENDENT:        2.685
REMARK UNBOUND:                -1.603
REMARK  9 active torsions:
REMARK  status: ('A' for Active; 'I' for Inactive)
REMARK    1  A    between atoms: C_6  and  N_7 
REMARK    2  A    between atoms: N_7  and  C_8 
REMARK    3  A    between atoms: C_8  and  C_9 
REMARK    4  A    between atoms: C_12  and  S_13 
REMARK    5  A    between atoms: S_13  and  C_14 
REMARK    6  A    between atoms: C_14  and  C_15 
REMARK       I    between atoms: C_15  and  N_17 
REMARK    7  A    between atoms: N_17  and  C_18 
REMARK    8  A    between atoms: C_21  and  O_22 
REMARK    9  A    between atoms: O_22  and  C_23 
ROOT
ATOM      1  C   UNL d   1      27.895 -16.203   0.521  0.00  0.00     0.185 C 
ENDROOT
BRANCH   1   2
ATOM      2  S   UNL d   1      27.518 -14.481  -0.010  0.00  0.00    -0.081 SA
BRANCH   2   3
ATOM      3  C   UNL d   1      27.488 -14.512  -1.721  0.00  0.00     0.185 A 
ATOM      4  N   UNL d   1      26.679 -13.658  -2.411  0.00  0.00    -0.254 N 
ATOM      5  N   UNL d   1      26.803 -13.833  -3.740  0.00  0.00    -0.155 NA
ATOM      6  H   UNL d   1      26.044 -12.956  -2.051  0.00  0.00     0.191 HD
ATOM      7  C   UNL d   1      27.710 -14.820  -3.785  0.00  0.00     0.166 A 
ATOM      8  N   UNL d   1      28.157 -15.266  -2.552  0.00  0.00    -0.204 NA
BRANCH   7   9
ATOM      9  C   UNL d   1      28.218 -15.414  -5.068  0.00  0.00     0.202 C 
BRANCH   9  10
ATOM     10  N   UNL d   1      29.293 -16.387  -4.900  0.00  0.00    -0.383 N 
ATOM     11  H   UNL d   1      29.418 -16.719  -3.951  0.00  0.00     0.160 HD
BRANCH  10  12
ATOM     12  C   UNL d   1      30.150 -16.774  -5.900  0.00  0.00     0.028 A 
ATOM     13  C   UNL d   1      30.826 -15.804  -6.648  0.00  0.00     0.029 A 
ATOM     14  C   UNL d   1      31.714 -16.165  -7.665  0.00  0.00     0.003 A 
ATOM     15  C   UNL d   1      31.948 -17.509  -7.944  0.00  0.00     0.007 A 
ATOM     16  C   UNL d   1      31.296 -18.497  -7.207  0.00  0.00    -0.060 A 
ATOM     17  C   UNL d   1      31.535 -19.954  -7.461  0.00  0.00     0.048 C 
ATOM     18  C   UNL d   1      30.404 -18.118  -6.195  0.00  0.00     0.036 A 
ENDBRANCH  10  12
ENDBRANCH   9  10
ENDBRANCH   7   9
ENDBRANCH   2   3
ENDBRANCH   1   2
BRANCH   1  19
ATOM     19  C   UNL d   1      26.671 -17.090   0.210  0.00  0.00     0.231 C 
ATOM     20  O   UNL d   1      26.728 -18.324   0.310  0.00  0.00    -0.272 OA
ATOM     21  N   UNL d   1      25.513 -16.439  -0.225  0.00  0.00    -0.327 N 
ATOM     22  H   UNL d   1      25.550 -15.468  -0.509  0.00  0.00     0.169 HD
BRANCH  21  23
ATOM     23  C   UNL d   1      24.298 -17.145  -0.458  0.00  0.00     0.034 A 
ATOM     24  C   UNL d   1      24.252 -18.543  -0.522  0.00  0.00     0.032 A 
ATOM     25  C   UNL d   1      23.029 -19.203  -0.781  0.00  0.00     0.039 A 
ATOM     26  C   UNL d   1      21.842 -18.475  -0.944  0.00  0.00     0.076 A 
ATOM     27  C   UNL d   1      21.907 -17.087  -0.895  0.00  0.00     0.039 A 
ATOM     28  C   UNL d   1      23.116 -16.435  -0.665  0.00  0.00     0.032 A 
BRANCH  26  29
ATOM     29  O   UNL d   1      20.671 -19.195  -1.105  0.00  0.00    -0.311 OA
BRANCH  29  30
ATOM     30  C   UNL d   1      20.061 -19.723   0.016  0.00  0.00     0.076 A 
ATOM     31  C   UNL d   1      18.912 -20.500  -0.143  0.00  0.00     0.037 A 
ATOM     32  C   UNL d   1      18.247 -20.997   0.982  0.00  0.00     0.003 A 
ATOM     33  C   UNL d   1      18.766 -20.775   2.259  0.00  0.00     0.000 A 
ATOM     34  C   UNL d   1      19.912 -19.997   2.417  0.00  0.00     0.003 A 
ATOM     35  C   UNL d   1      20.536 -19.437   1.301  0.00  0.00     0.037 A 
ENDBRANCH  29  30
ENDBRANCH  26  29
ENDBRANCH  21  23
ENDBRANCH   1  19
TORSDOF 9
ENDMDL
MODEL 9
REMARK VINA RESULT:    -8.926      5.887      8.509
REMARK INTER + INTRA:         -13.645
REMARK INTER:                 -11.611
REMARK INTRA:                  -2.034
REMARK CONF_INDEPENDENT:        2.685
REMARK UNBOUND:                -2.034
REMARK  9 active torsions:
REMARK  status: ('A' for Active; 'I' for Inactive)
REMARK    1  A    between atoms: C_6  and  N_7 
REMARK    2  A    between atoms: N_7  and  C_8 
REMARK    3  A    between atoms: C_8  and  C_9 
REMARK    4  A    between atoms: C_12  and  S_13 
REMARK    5  A    between atoms: S_13  and  C_14 
REMARK    6  A    between atoms: C_14  and  C_15 
REMARK       I    between atoms: C_15  and  N_17 
REMARK    7  A    between atoms: N_17  and  C_18 
REMARK    8  A    between atoms: C_21  and  O_22 
REMARK    9  A    between atoms: O_22  and  C_23 
ROOT
ATOM      1  C   UNL d   1      28.187 -16.215  -1.184  0.00  0.00     0.185 C 
ENDROOT
BRANCH   1   2
ATOM      2  S   UNL d   1      28.942 -15.545  -2.724  0.00  0.00    -0.081 SA
BRANCH   2   3
ATOM      3  C   UNL d   1      27.975 -14.210  -3.181  0.00  0.00     0.185 A 
ATOM      4  N   UNL d   1      26.761 -14.409  -3.771  0.00  0.00    -0.254 N 
ATOM      5  N   UNL d   1      26.155 -13.240  -4.049  0.00  0.00    -0.155 NA
ATOM      6  H   UNL d   1      26.304 -15.282  -4.002  0.00  0.00     0.191 HD
ATOM      7  C   UNL d   1      27.066 -12.364  -3.598  0.00  0.00     0.166 A 
ATOM      8  N   UNL d   1      28.208 -12.931  -3.054  0.00  0.00    -0.204 NA
BRANCH   7   9
ATOM      9  C   UNL d   1      26.883 -10.875  -3.669  0.00  0.00     0.202 C 
BRANCH   9  10
ATOM     10  N   UNL d   1      25.524 -10.448  -3.984  0.00  0.00    -0.383 N 
ATOM     11  H   UNL d   1      24.863 -11.204  -4.122  0.00  0.00     0.160 HD
BRANCH  10  12
ATOM     12  C   UNL d   1      25.149  -9.141  -4.181  0.00  0.00     0.028 A 
ATOM     13  C   UNL d   1      25.540  -8.162  -3.262  0.00  0.00     0.029 A 
ATOM     14  C   UNL d   1      25.184  -6.822  -3.439  0.00  0.00     0.003 A 
ATOM     15  C   UNL d   1      24.436  -6.438  -4.550  0.00  0.00     0.007 A 
ATOM     16  C   UNL d   1      24.042  -7.393  -5.488  0.00  0.00    -0.060 A 
ATOM     17  C   UNL d   1      23.255  -7.020  -6.707  0.00  0.00     0.048 C 
ATOM     18  C   UNL d   1      24.402  -8.733  -5.291  0.00  0.00     0.036 A 
ENDBRANCH  10  12
ENDBRANCH   9  10
ENDBRANCH   7   9
ENDBRANCH   2   3
ENDBRANCH   1   2
BRANCH   1  19
ATOM     19  C   UNL d   1      26.714 -16.568  -1.476  0.00  0.00     0.231 C 
ATOM     20  O   UNL d   1      26.281 -16.615  -2.637  0.00  0.00    -0.272 OA
ATOM     21  N   UNL d   1      25.887 -16.795  -0.373  0.00  0.00    -0.327 N 
ATOM     22  H   UNL d   1      26.196 -16.540   0.557  0.00  0.00     0.169 HD
BRANCH  21  23
ATOM     23  C   UNL d   1      24.533 -17.212  -0.522  0.00  0.00     0.034 A 
ATOM     24  C   UNL d   1      23.466 -16.306  -0.469  0.00  0.00     0.032 A 
ATOM     25  C   UNL d   1      22.136 -16.765  -0.598  0.00  0.00     0.039 A 
ATOM     26  C   UNL d   1      21.864 -18.124  -0.814  0.00  0.00     0.076 A 
ATOM     27  C   UNL d   1      22.933 -19.013  -0.847  0.00  0.00     0.039 A 
ATOM     28  C   UNL d   1      24.242 -18.564  -0.696  0.00  0.00     0.032 A 
BRANCH  26  29
ATOM     29  O   UNL d   1      20.544 -18.485  -1.019  0.00  0.00    -0.311 OA
BRANCH  29  30
ATOM     30  C   UNL d   1      19.938 -19.320  -0.102  0.00  0.00     0.076 A 
ATOM     31  C   UNL d   1      18.875 -20.124  -0.520  0.00  0.00     0.037 A 
ATOM     32  C   UNL d   1      18.211 -20.936   0.405  0.00  0.00     0.003 A 
ATOM     33  C   UNL d   1      18.651 -20.995   1.729  0.00  0.00     0.000 A 
ATOM     34  C   UNL d   1      19.711 -20.191   2.146  0.00  0.00     0.003 A 
ATOM     35  C   UNL d   1      20.327 -19.324   1.242  0.00  0.00     0.037 A 
ENDBRANCH  29  30
ENDBRANCH  26  29
ENDBRANCH  21  23
ENDBRANCH   1  19
TORSDOF 9
ENDMDL
