MODEL 1
REMARK VINA RESULT:   -22.627      0.000      0.000
REMARK INTER + INTRA:         -27.727
REMARK INTER:                 -25.013
REMARK INTRA:                  -2.714
REMARK CONF_INDEPENDENT:        2.386
REMARK UNBOUND:                -2.714
REMARK  8 active torsions:
REMARK  status: ('A' for Active; 'I' for Inactive)
REMARK    1  A    between atoms: N_1  and  C_2 
REMARK    2  A    between atoms: C_6  and  N_7 
REMARK    3  A    between atoms: C_10  and  C_11 
REMARK    4  A    between atoms: C_11  and  N_12 
REMARK    5  A    between atoms: C_18  and  C_19 
REMARK       I    between atoms: C_19  and  N_21 
REMARK    6  A    between atoms: N_21  and  N_22 
REMARK    7  A    between atoms: C_23  and  C_24 
REMARK    8  A    between atoms: C_29  and  N_30 
ROOT
ATOM      1  N   UNL d   1      23.096 -18.343   0.139  0.00  0.00    -0.208 N 
ATOM      2  N   UNL d   1      23.339 -18.787   1.398  0.00  0.00     0.012 NA
ATOM      3  N   UNL d   1      24.635 -18.575   1.710  0.00  0.00    -0.160 NA
ATOM      4  C   UNL d   1      25.217 -17.854   0.696  0.00  0.00     0.112 C 
ATOM      5  C   UNL d   1      24.178 -17.669  -0.262  0.00  0.00     0.153 C 
ENDROOT
BRANCH   5   6
ATOM      6  C   UNL d   1      24.197 -16.923  -1.457  0.00  0.00     0.292 C 
ATOM      7  O   UNL d   1      23.652 -15.944  -1.203  0.00  0.00    -0.264 OA
ATOM      8  N   UNL d   1      24.596 -17.040  -2.787  0.00  0.00    -0.242 N 
ATOM      9  H   UNL d   1      24.504 -17.910  -3.277  0.00  0.00     0.192 HD
BRANCH   8  10
ATOM     10  N   UNL d   1      24.780 -15.872  -3.534  0.00  0.00    -0.183 NA
ATOM     11  C   UNL d   1      25.414 -14.833  -3.087  0.00  0.00     0.152 C 
BRANCH  11  12
ATOM     12  C   UNL d   1      25.902 -13.654  -3.955  0.00  0.00     0.016 C 
ATOM     13  C   UNL d   1      25.476 -12.388  -3.530  0.00  0.00     0.015 C 
ATOM     14  C   UNL d   1      25.527 -11.281  -4.403  0.00  0.00     0.001 C 
ATOM     15  C   UNL d   1      26.164 -11.354  -5.640  0.00  0.00     0.002 C 
ATOM     16  C   UNL d   1      26.740 -12.544  -6.023  0.00  0.00     0.037 C 
ATOM     17  C   UNL d   1      26.609 -13.673  -5.188  0.00  0.00     0.114 C 
BRANCH  17  18
ATOM     18  N   UNL d   1      27.072 -14.883  -5.810  0.00  0.00    -0.115 N 
ATOM     19  O   UNL d   1      28.102 -14.857  -6.504  0.00  0.00    -0.532 OA
ATOM     20  O   UNL d   1      26.342 -15.857  -5.695  0.00  0.00    -0.532 OA
ENDBRANCH  17  18
ENDBRANCH  11  12
ENDBRANCH   8  10
ENDBRANCH   5   6
BRANCH   4  21
ATOM     21  C   UNL d   1      26.749 -17.400   0.762  0.00  0.00     0.297 C 
BRANCH  21  22
ATOM     22  N   UNL d   1      27.180 -16.292  -0.225  0.00  0.00    -0.066 N 
ATOM     23  C   UNL d   1      27.255 -14.916   0.606  0.00  0.00     0.235 C 
ATOM     24  C   UNL d   1      28.257 -13.965  -0.083  0.00  0.00     0.028 C 
ATOM     25  C   UNL d   1      29.587 -14.519  -0.860  0.00  0.00     0.003 C 
ATOM     26  C   UNL d   1      29.361 -15.739  -1.722  0.00  0.00     0.028 C 
ATOM     27  C   UNL d   1      28.548 -16.880  -1.055  0.00  0.00     0.235 C 
ATOM     28  H   UNL d   1      26.505 -16.087  -0.964  0.00  0.00     0.280 HD
ENDBRANCH  21  22
ENDBRANCH   4  21
BRANCH   1  29
ATOM     29  C   UNL d   1      21.941 -18.365  -0.704  0.00  0.00     0.220 C 
ATOM     30  N   UNL d   1      22.105 -18.962  -1.897  0.00  0.00    -0.082 NA
ATOM     31  O   UNL d   1      20.817 -19.302  -2.307  0.00  0.00    -0.103 OA
ATOM     32  N   UNL d   1      19.905 -19.165  -1.270  0.00  0.00    -0.089 NA
ATOM     33  C   UNL d   1      20.571 -18.592  -0.260  0.00  0.00     0.180 C 
BRANCH  33  34
ATOM     34  N   UNL d   1      20.069 -18.601   1.018  0.00  0.00    -0.282 NA
ATOM     35  H   UNL d   1      20.700 -18.245   1.748  0.00  0.00     0.126 HD
ATOM     36  H   UNL d   1      19.152 -18.220   1.246  0.00  0.00     0.126 HD
ENDBRANCH  33  34
ENDBRANCH   1  29
TORSDOF 8
ENDMDL
MODEL 2
REMARK VINA RESULT:   -21.430      1.744      2.038
REMARK INTER + INTRA:         -26.990
REMARK INTER:                 -23.816
REMARK INTRA:                  -3.173
REMARK CONF_INDEPENDENT:        2.386
REMARK UNBOUND:                -3.173
REMARK  8 active torsions:
REMARK  status: ('A' for Active; 'I' for Inactive)
REMARK    1  A    between atoms: N_1  and  C_2 
REMARK    2  A    between atoms: C_6  and  N_7 
REMARK    3  A    between atoms: C_10  and  C_11 
REMARK    4  A    between atoms: C_11  and  N_12 
REMARK    5  A    between atoms: C_18  and  C_19 
REMARK       I    between atoms: C_19  and  N_21 
REMARK    6  A    between atoms: N_21  and  N_22 
REMARK    7  A    between atoms: C_23  and  C_24 
REMARK    8  A    between atoms: C_29  and  N_30 
ROOT
ATOM      1  N   UNL d   1      23.119 -18.353   0.047  0.00  0.00    -0.208 N 
ATOM      2  N   UNL d   1      23.461 -18.923   1.230  0.00  0.00     0.012 NA
ATOM      3  N   UNL d   1      24.744 -18.622   1.521  0.00  0.00    -0.160 NA
ATOM      4  C   UNL d   1      25.207 -17.726   0.589  0.00  0.00     0.112 C 
ATOM      5  C   UNL d   1      24.112 -17.529  -0.302  0.00  0.00     0.153 C 
ENDROOT
BRANCH   5   6
ATOM      6  C   UNL d   1      24.003 -16.642  -1.391  0.00  0.00     0.292 C 
ATOM      7  O   UNL d   1      23.249 -15.845  -1.049  0.00  0.00    -0.264 OA
ATOM      8  N   UNL d   1      24.459 -16.492  -2.699  0.00  0.00    -0.242 N 
ATOM      9  H   UNL d   1      24.574 -17.287  -3.299  0.00  0.00     0.192 HD
BRANCH   8  10
ATOM     10  N   UNL d   1      24.405 -15.221  -3.282  0.00  0.00    -0.183 NA
ATOM     11  C   UNL d   1      25.083 -14.207  -2.844  0.00  0.00     0.152 C 
BRANCH  11  12
ATOM     12  C   UNL d   1      25.294 -12.886  -3.614  0.00  0.00     0.016 C 
ATOM     13  C   UNL d   1      24.918 -12.920  -4.964  0.00  0.00     0.015 C 
ATOM     14  C   UNL d   1      25.381 -11.938  -5.864  0.00  0.00     0.001 C 
ATOM     15  C   UNL d   1      26.067 -10.808  -5.426  0.00  0.00     0.002 C 
ATOM     16  C   UNL d   1      26.313 -10.660  -4.079  0.00  0.00     0.037 C 
ATOM     17  C   UNL d   1      25.928 -11.686  -3.192  0.00  0.00     0.114 C 
BRANCH  17  18
ATOM     18  N   UNL d   1      26.435 -11.491  -1.861  0.00  0.00    -0.115 N 
ATOM     19  O   UNL d   1      26.993 -10.421  -1.572  0.00  0.00    -0.532 OA
ATOM     20  O   UNL d   1      26.371 -12.460  -1.117  0.00  0.00    -0.532 OA
ENDBRANCH  17  18
ENDBRANCH  11  12
ENDBRANCH   8  10
ENDBRANCH   5   6
BRANCH   4  21
ATOM     21  C   UNL d   1      26.690 -17.132   0.660  0.00  0.00     0.297 C 
BRANCH  21  22
ATOM     22  N   UNL d   1      26.988 -15.918  -0.248  0.00  0.00    -0.066 N 
ATOM     23  C   UNL d   1      27.640 -14.776   0.680  0.00  0.00     0.235 C 
ATOM     24  C   UNL d   1      28.528 -13.863  -0.193  0.00  0.00     0.028 C 
ATOM     25  C   UNL d   1      29.356 -14.434  -1.485  0.00  0.00     0.003 C 
ATOM     26  C   UNL d   1      28.589 -15.395  -2.361  0.00  0.00     0.028 C 
ATOM     27  C   UNL d   1      27.825 -16.516  -1.607  0.00  0.00     0.235 C 
ATOM     28  H   UNL d   1      26.162 -15.460  -0.641  0.00  0.00     0.280 HD
ENDBRANCH  21  22
ENDBRANCH   4  21
BRANCH   1  29
ATOM     29  C   UNL d   1      21.933 -18.387  -0.753  0.00  0.00     0.220 C 
ATOM     30  N   UNL d   1      22.069 -18.940  -1.970  0.00  0.00    -0.082 NA
ATOM     31  O   UNL d   1      20.777 -19.309  -2.342  0.00  0.00    -0.103 OA
ATOM     32  N   UNL d   1      19.902 -19.234  -1.267  0.00  0.00    -0.089 NA
ATOM     33  C   UNL d   1      20.589 -18.672  -0.265  0.00  0.00     0.180 C 
BRANCH  33  34
ATOM     34  N   UNL d   1      20.138 -18.737   1.031  0.00  0.00    -0.282 NA
ATOM     35  H   UNL d   1      20.685 -18.207   1.721  0.00  0.00     0.126 HD
ATOM     36  H   UNL d   1      19.162 -18.574   1.276  0.00  0.00     0.126 HD
ENDBRANCH  33  34
ENDBRANCH   1  29
TORSDOF 8
ENDMDL
