MODEL 1
REMARK VINA RESULT:    -9.333      0.000      0.000
REMARK INTER + INTRA:         -13.449
REMARK INTER:                 -12.316
REMARK INTRA:                  -1.133
REMARK CONF_INDEPENDENT:        2.983
REMARK UNBOUND:                -1.133
REMARK  10 active torsions:
REMARK  status: ('A' for Active; 'I' for Inactive)
REMARK    1  A    between atoms: O_2  and  C_3 
REMARK    2  A    between atoms: C_6  and  C_7 
REMARK    3  A    between atoms: C_7  and  N_8 
REMARK       I    between atoms: N_8  and  C_9 
REMARK       I    between atoms: C_9  and  N_11 
REMARK    4  A    between atoms: N_11  and  C_12 
REMARK    5  A    between atoms: N_11  and  C_17 
REMARK    6  A    between atoms: C_12  and  C_13 
REMARK    7  A    between atoms: C_13  and  N_14 
REMARK    8  A    between atoms: C_22  and  O_23 
REMARK    9  A    between atoms: O_23  and  C_24 
REMARK   10  A    between atoms: C_32  and  O_33 
ROOT
ATOM      1  N   UNL d   1      28.261 -12.870  -0.095  0.00  0.00    -0.338 N 
ATOM      2  C   UNL d   1      27.186 -13.713  -0.444  0.00  0.00     0.324 C 
ATOM      3  O   UNL d   1      26.244 -13.233  -1.038  0.00  0.00    -0.247 OA
ATOM      4  N   UNL d   1      27.267 -15.092  -0.026  0.00  0.00    -0.277 N 
ATOM      5  H   UNL d   1      29.093 -13.187   0.278  0.00  0.00     0.164 HD
ENDROOT
BRANCH   4   6
ATOM      6  C   UNL d   1      28.367 -15.748   0.788  0.00  0.00     0.163 C 
BRANCH   6   7
ATOM      7  C   UNL d   1      29.753 -15.826   0.182  0.00  0.00     0.254 C 
BRANCH   7   8
ATOM      8  N   UNL d   1      30.524 -17.095   0.233  0.00  0.00    -0.077 N 
ATOM      9  C   UNL d   1      30.727 -17.657  -1.134  0.00  0.00     0.269 C 
ATOM     10  C   UNL d   1      31.874 -16.846   0.855  0.00  0.00     0.269 C 
ATOM     11  H   UNL d   1      30.035 -17.760   0.846  0.00  0.00     0.279 HD
ENDBRANCH   7   8
ENDBRANCH   6   7
ENDBRANCH   4   6
BRANCH   4  12
ATOM     12  C   UNL d   1      26.191 -16.049  -0.291  0.00  0.00     0.178 C 
ATOM     13  N   UNL d   1      24.940 -15.629  -0.272  0.00  0.00    -0.223 NA
ATOM     14  C   UNL d   1      24.025 -16.644  -0.527  0.00  0.00     0.077 C 
ATOM     15  C   UNL d   1      22.658 -16.442  -0.799  0.00  0.00     0.036 C 
ATOM     16  C   UNL d   1      24.514 -17.949  -0.482  0.00  0.00     0.040 C 
ATOM     17  C   UNL d   1      21.772 -17.519  -0.896  0.00  0.00     0.039 C 
ATOM     18  C   UNL d   1      22.217 -18.830  -0.738  0.00  0.00     0.079 C 
ATOM     19  C   UNL d   1      23.594 -19.071  -0.502  0.00  0.00     0.058 C 
ATOM     20  S   UNL d   1      26.294 -17.767  -0.501  0.00  0.00    -0.050 SA
BRANCH  18  21
ATOM     21  O   UNL d   1      21.192 -19.730  -0.897  0.00  0.00    -0.255 OA
BRANCH  21  22
ATOM     22  C   UNL d   1      20.155 -19.837   0.062  0.00  0.00     0.530 C 
ATOM     23  F   UNL d   1      19.018 -19.264  -0.377  0.00  0.00    -0.144 F 
ATOM     24  F   UNL d   1      19.928 -21.133   0.357  0.00  0.00    -0.144 F 
ATOM     25  F   UNL d   1      20.534 -19.205   1.198  0.00  0.00    -0.144 F 
ENDBRANCH  21  22
ENDBRANCH  18  21
ENDBRANCH   4  12
BRANCH   1  26
ATOM     26  C   UNL d   1      28.505 -11.440  -0.401  0.00  0.00     0.163 C 
BRANCH  26  27
ATOM     27  C   UNL d   1      27.941 -10.418   0.642  0.00  0.00    -0.038 A 
ATOM     28  C   UNL d   1      28.555 -10.240   1.881  0.00  0.00     0.012 A 
ATOM     29  C   UNL d   1      28.001  -9.385   2.884  0.00  0.00     0.040 A 
ATOM     30  C   UNL d   1      26.842  -8.601   2.693  0.00  0.00     0.101 A 
ATOM     31  C   UNL d   1      26.235  -8.729   1.450  0.00  0.00     0.102 A 
ATOM     32  C   UNL d   1      26.805  -9.618   0.480  0.00  0.00     0.048 A 
BRANCH  30  33
ATOM     33  O   UNL d   1      26.661  -7.616   3.634  0.00  0.00    -0.353 OA
ATOM     34  C   UNL d   1      27.007  -6.246   3.415  0.00  0.00     0.210 C 
ENDBRANCH  30  33
BRANCH  31  35
ATOM     35  O   UNL d   1      25.157  -8.078   0.905  0.00  0.00    -0.353 OA
ATOM     36  C   UNL d   1      25.373  -6.855   0.254  0.00  0.00     0.210 C 
ENDBRANCH  31  35
ENDBRANCH  26  27
ENDBRANCH   1  26
TORSDOF 10
ENDMDL
MODEL 2
REMARK VINA RESULT:    -9.297      2.614      3.578
REMARK INTER + INTRA:         -13.520
REMARK INTER:                 -12.280
REMARK INTRA:                  -1.240
REMARK CONF_INDEPENDENT:        2.983
REMARK UNBOUND:                -1.240
REMARK  10 active torsions:
REMARK  status: ('A' for Active; 'I' for Inactive)
REMARK    1  A    between atoms: O_2  and  C_3 
REMARK    2  A    between atoms: C_6  and  C_7 
REMARK    3  A    between atoms: C_7  and  N_8 
REMARK       I    between atoms: N_8  and  C_9 
REMARK       I    between atoms: C_9  and  N_11 
REMARK    4  A    between atoms: N_11  and  C_12 
REMARK    5  A    between atoms: N_11  and  C_17 
REMARK    6  A    between atoms: C_12  and  C_13 
REMARK    7  A    between atoms: C_13  and  N_14 
REMARK    8  A    between atoms: C_22  and  O_23 
REMARK    9  A    between atoms: O_23  and  C_24 
REMARK   10  A    between atoms: C_32  and  O_33 
ROOT
ATOM      1  N   UNL d   1      28.271 -13.081   0.970  0.00  0.00    -0.338 N 
ATOM      2  C   UNL d   1      27.146 -13.905   0.759  0.00  0.00     0.324 C 
ATOM      3  O   UNL d   1      26.093 -13.586   1.269  0.00  0.00    -0.247 OA
ATOM      4  N   UNL d   1      27.343 -15.103  -0.020  0.00  0.00    -0.277 N 
ATOM      5  H   UNL d   1      29.115 -13.198   0.517  0.00  0.00     0.164 HD
ENDROOT
BRANCH   4   6
ATOM      6  C   UNL d   1      28.641 -15.613  -0.619  0.00  0.00     0.163 C 
BRANCH   6   7
ATOM      7  C   UNL d   1      29.815 -15.842   0.311  0.00  0.00     0.254 C 
BRANCH   7   8
ATOM      8  N   UNL d   1      30.582 -17.113   0.251  0.00  0.00    -0.077 N 
ATOM      9  C   UNL d   1      30.769 -17.563  -1.159  0.00  0.00     0.269 C 
ATOM     10  C   UNL d   1      31.940 -16.918   0.877  0.00  0.00     0.269 C 
ATOM     11  H   UNL d   1      30.098 -17.824   0.814  0.00  0.00     0.279 HD
ENDBRANCH   7   8
ENDBRANCH   6   7
ENDBRANCH   4   6
BRANCH   4  12
ATOM     12  C   UNL d   1      26.261 -16.057  -0.266  0.00  0.00     0.178 C 
ATOM     13  N   UNL d   1      25.015 -15.621  -0.288  0.00  0.00    -0.223 NA
ATOM     14  C   UNL d   1      24.091 -16.635  -0.518  0.00  0.00     0.077 C 
ATOM     15  C   UNL d   1      22.733 -16.429  -0.826  0.00  0.00     0.036 C 
ATOM     16  C   UNL d   1      24.563 -17.943  -0.409  0.00  0.00     0.040 C 
ATOM     17  C   UNL d   1      21.835 -17.498  -0.895  0.00  0.00     0.039 C 
ATOM     18  C   UNL d   1      22.260 -18.807  -0.673  0.00  0.00     0.079 C 
ATOM     19  C   UNL d   1      23.629 -19.054  -0.400  0.00  0.00     0.058 C 
ATOM     20  S   UNL d   1      26.345 -17.784  -0.401  0.00  0.00    -0.050 SA
BRANCH  18  21
ATOM     21  O   UNL d   1      21.227 -19.700  -0.814  0.00  0.00    -0.255 OA
BRANCH  21  22
ATOM     22  C   UNL d   1      20.046 -19.584  -0.040  0.00  0.00     0.530 C 
ATOM     23  F   UNL d   1      20.327 -19.328   1.252  0.00  0.00    -0.144 F 
ATOM     24  F   UNL d   1      19.259 -18.609  -0.538  0.00  0.00    -0.144 F 
ATOM     25  F   UNL d   1      19.361 -20.750  -0.099  0.00  0.00    -0.144 F 
ENDBRANCH  21  22
ENDBRANCH  18  21
ENDBRANCH   4  12
BRANCH   1  26
ATOM     26  C   UNL d   1      28.398 -11.783   1.676  0.00  0.00     0.163 C 
BRANCH  26  27
ATOM     27  C   UNL d   1      28.371 -11.857   3.240  0.00  0.00    -0.038 A 
ATOM     28  C   UNL d   1      28.154 -10.717   4.012  0.00  0.00     0.012 A 
ATOM     29  C   UNL d   1      28.222 -10.745   5.439  0.00  0.00     0.040 A 
ATOM     30  C   UNL d   1      28.442 -11.921   6.190  0.00  0.00     0.101 A 
ATOM     31  C   UNL d   1      28.620 -13.079   5.444  0.00  0.00     0.102 A 
ATOM     32  C   UNL d   1      28.572 -13.006   4.013  0.00  0.00     0.048 A 
BRANCH  30  33
ATOM     33  O   UNL d   1      28.149 -11.805   7.528  0.00  0.00    -0.353 OA
ATOM     34  C   UNL d   1      28.441 -12.822   8.488  0.00  0.00     0.210 C 
ENDBRANCH  30  33
BRANCH  31  35
ATOM     35  O   UNL d   1      28.781 -14.384   5.835  0.00  0.00    -0.353 OA
ATOM     36  C   UNL d   1      28.146 -15.389   5.091  0.00  0.00     0.210 C 
ENDBRANCH  31  35
ENDBRANCH  26  27
ENDBRANCH   1  26
TORSDOF 10
ENDMDL
MODEL 3
REMARK VINA RESULT:    -9.269      2.951      3.782
REMARK INTER + INTRA:         -13.556
REMARK INTER:                 -12.252
REMARK INTRA:                  -1.304
REMARK CONF_INDEPENDENT:        2.983
REMARK UNBOUND:                -1.304
REMARK  10 active torsions:
REMARK  status: ('A' for Active; 'I' for Inactive)
REMARK    1  A    between atoms: O_2  and  C_3 
REMARK    2  A    between atoms: C_6  and  C_7 
REMARK    3  A    between atoms: C_7  and  N_8 
REMARK       I    between atoms: N_8  and  C_9 
REMARK       I    between atoms: C_9  and  N_11 
REMARK    4  A    between atoms: N_11  and  C_12 
REMARK    5  A    between atoms: N_11  and  C_17 
REMARK    6  A    between atoms: C_12  and  C_13 
REMARK    7  A    between atoms: C_13  and  N_14 
REMARK    8  A    between atoms: C_22  and  O_23 
REMARK    9  A    between atoms: O_23  and  C_24 
REMARK   10  A    between atoms: C_32  and  O_33 
ROOT
ATOM      1  N   UNL d   1      28.755 -13.525   1.343  0.00  0.00    -0.338 N 
ATOM      2  C   UNL d   1      27.591 -14.283   1.105  0.00  0.00     0.324 C 
ATOM      3  O   UNL d   1      26.603 -14.049   1.769  0.00  0.00    -0.247 OA
ATOM      4  N   UNL d   1      27.674 -15.322   0.107  0.00  0.00    -0.277 N 
ATOM      5  H   UNL d   1      29.547 -13.566   0.792  0.00  0.00     0.164 HD
ENDROOT
BRANCH   4   6
ATOM      6  C   UNL d   1      28.890 -15.729  -0.704  0.00  0.00     0.163 C 
BRANCH   6   7
ATOM      7  C   UNL d   1      29.724 -16.891  -0.206  0.00  0.00     0.254 C 
BRANCH   7   8
ATOM      8  N   UNL d   1      30.810 -16.666   0.782  0.00  0.00    -0.077 N 
ATOM      9  C   UNL d   1      31.908 -17.662   0.612  0.00  0.00     0.269 C 
ATOM     10  C   UNL d   1      31.384 -15.284   0.601  0.00  0.00     0.269 C 
ATOM     11  H   UNL d   1      30.414 -16.698   1.730  0.00  0.00     0.279 HD
ENDBRANCH   7   8
ENDBRANCH   6   7
ENDBRANCH   4   6
BRANCH   4  12
ATOM     12  C   UNL d   1      26.544 -16.202  -0.194  0.00  0.00     0.178 C 
ATOM     13  N   UNL d   1      25.322 -15.703  -0.185  0.00  0.00    -0.223 NA
ATOM     14  C   UNL d   1      24.348 -16.652  -0.474  0.00  0.00     0.077 C 
ATOM     15  C   UNL d   1      23.001 -16.358  -0.763  0.00  0.00     0.036 C 
ATOM     16  C   UNL d   1      24.751 -17.986  -0.448  0.00  0.00     0.040 C 
ATOM     17  C   UNL d   1      22.050 -17.373  -0.895  0.00  0.00     0.039 C 
ATOM     18  C   UNL d   1      22.407 -18.713  -0.757  0.00  0.00     0.079 C 
ATOM     19  C   UNL d   1      23.763 -19.047  -0.504  0.00  0.00     0.058 C 
ATOM     20  S   UNL d   1      26.540 -17.919  -0.436  0.00  0.00    -0.050 SA
BRANCH  18  21
ATOM     21  O   UNL d   1      21.330 -19.542  -0.949  0.00  0.00    -0.255 OA
BRANCH  21  22
ATOM     22  C   UNL d   1      20.196 -19.480  -0.102  0.00  0.00     0.530 C 
ATOM     23  F   UNL d   1      19.310 -18.562  -0.532  0.00  0.00    -0.144 F 
ATOM     24  F   UNL d   1      19.604 -20.689  -0.030  0.00  0.00    -0.144 F 
ATOM     25  F   UNL d   1      20.593 -19.130   1.145  0.00  0.00    -0.144 F 
ENDBRANCH  21  22
ENDBRANCH  18  21
ENDBRANCH   4  12
BRANCH   1  26
ATOM     26  C   UNL d   1      28.992 -12.378   2.254  0.00  0.00     0.163 C 
BRANCH  26  27
ATOM     27  C   UNL d   1      28.841 -12.685   3.782  0.00  0.00    -0.038 A 
ATOM     28  C   UNL d   1      28.779 -13.996   4.251  0.00  0.00     0.012 A 
ATOM     29  C   UNL d   1      28.544 -14.296   5.629  0.00  0.00     0.040 A 
ATOM     30  C   UNL d   1      28.427 -13.313   6.637  0.00  0.00     0.101 A 
ATOM     31  C   UNL d   1      28.529 -11.998   6.200  0.00  0.00     0.102 A 
ATOM     32  C   UNL d   1      28.736 -11.736   4.806  0.00  0.00     0.048 A 
BRANCH  30  33
ATOM     33  O   UNL d   1      28.535 -13.797   7.919  0.00  0.00    -0.353 OA
ATOM     34  C   UNL d   1      29.006 -13.014   9.018  0.00  0.00     0.210 C 
ENDBRANCH  30  33
BRANCH  31  35
ATOM     35  O   UNL d   1      28.534 -10.817   6.898  0.00  0.00    -0.353 OA
ATOM     36  C   UNL d   1      29.767 -10.276   7.288  0.00  0.00     0.210 C 
ENDBRANCH  31  35
ENDBRANCH  26  27
ENDBRANCH   1  26
TORSDOF 10
ENDMDL
MODEL 4
REMARK VINA RESULT:    -9.152      1.517      2.432
REMARK INTER + INTRA:         -13.369
REMARK INTER:                 -12.135
REMARK INTRA:                  -1.234
REMARK CONF_INDEPENDENT:        2.983
REMARK UNBOUND:                -1.234
REMARK  10 active torsions:
REMARK  status: ('A' for Active; 'I' for Inactive)
REMARK    1  A    between atoms: O_2  and  C_3 
REMARK    2  A    between atoms: C_6  and  C_7 
REMARK    3  A    between atoms: C_7  and  N_8 
REMARK       I    between atoms: N_8  and  C_9 
REMARK       I    between atoms: C_9  and  N_11 
REMARK    4  A    between atoms: N_11  and  C_12 
REMARK    5  A    between atoms: N_11  and  C_17 
REMARK    6  A    between atoms: C_12  and  C_13 
REMARK    7  A    between atoms: C_13  and  N_14 
REMARK    8  A    between atoms: C_22  and  O_23 
REMARK    9  A    between atoms: O_23  and  C_24 
REMARK   10  A    between atoms: C_32  and  O_33 
ROOT
ATOM      1  N   UNL d   1      28.112 -12.746  -0.410  0.00  0.00    -0.338 N 
ATOM      2  C   UNL d   1      27.090 -13.655  -0.752  0.00  0.00     0.324 C 
ATOM      3  O   UNL d   1      26.250 -13.305  -1.553  0.00  0.00    -0.247 OA
ATOM      4  N   UNL d   1      27.095 -14.934  -0.083  0.00  0.00    -0.277 N 
ATOM      5  H   UNL d   1      28.878 -12.976   0.130  0.00  0.00     0.164 HD
ENDROOT
BRANCH   4   6
ATOM      6  C   UNL d   1      28.059 -15.414   0.987  0.00  0.00     0.163 C 
BRANCH   6   7
ATOM      7  C   UNL d   1      27.796 -15.001   2.420  0.00  0.00     0.254 C 
BRANCH   7   8
ATOM      8  N   UNL d   1      28.928 -14.664   3.323  0.00  0.00    -0.077 N 
ATOM      9  C   UNL d   1      29.378 -13.256   3.120  0.00  0.00     0.269 C 
ATOM     10  C   UNL d   1      28.500 -14.829   4.759  0.00  0.00     0.269 C 
ATOM     11  H   UNL d   1      29.693 -15.332   3.165  0.00  0.00     0.279 HD
ENDBRANCH   7   8
ENDBRANCH   6   7
ENDBRANCH   4   6
BRANCH   4  12
ATOM     12  C   UNL d   1      26.059 -15.939  -0.323  0.00  0.00     0.178 C 
ATOM     13  N   UNL d   1      24.792 -15.569  -0.319  0.00  0.00    -0.223 NA
ATOM     14  C   UNL d   1      23.919 -16.626  -0.546  0.00  0.00     0.077 C 
ATOM     15  C   UNL d   1      22.546 -16.487  -0.827  0.00  0.00     0.036 C 
ATOM     16  C   UNL d   1      24.459 -17.909  -0.462  0.00  0.00     0.040 C 
ATOM     17  C   UNL d   1      21.704 -17.601  -0.895  0.00  0.00     0.039 C 
ATOM     18  C   UNL d   1      22.199 -18.888  -0.698  0.00  0.00     0.079 C 
ATOM     19  C   UNL d   1      23.585 -19.067  -0.452  0.00  0.00     0.058 C 
ATOM     20  S   UNL d   1      26.231 -17.657  -0.482  0.00  0.00    -0.050 SA
BRANCH  18  21
ATOM     21  O   UNL d   1      21.212 -19.832  -0.833  0.00  0.00    -0.255 OA
BRANCH  21  22
ATOM     22  C   UNL d   1      20.029 -19.773  -0.055  0.00  0.00     0.530 C 
ATOM     23  F   UNL d   1      19.419 -20.972   0.005  0.00  0.00    -0.144 F 
ATOM     24  F   UNL d   1      20.314 -19.342   1.190  0.00  0.00    -0.144 F 
ATOM     25  F   UNL d   1      19.170 -18.892  -0.621  0.00  0.00    -0.144 F 
ENDBRANCH  21  22
ENDBRANCH  18  21
ENDBRANCH   4  12
BRANCH   1  26
ATOM     26  C   UNL d   1      28.414 -11.391  -0.932  0.00  0.00     0.163 C 
BRANCH  26  27
ATOM     27  C   UNL d   1      27.574 -10.224  -0.313  0.00  0.00    -0.038 A 
ATOM     28  C   UNL d   1      27.003  -9.240  -1.119  0.00  0.00     0.012 A 
ATOM     29  C   UNL d   1      26.316  -8.114  -0.566  0.00  0.00     0.040 A 
ATOM     30  C   UNL d   1      26.094  -7.933   0.817  0.00  0.00     0.101 A 
ATOM     31  C   UNL d   1      26.618  -8.923   1.639  0.00  0.00     0.102 A 
ATOM     32  C   UNL d   1      27.325 -10.022   1.049  0.00  0.00     0.048 A 
BRANCH  30  33
ATOM     33  O   UNL d   1      25.148  -6.984   1.122  0.00  0.00    -0.353 OA
ATOM     34  C   UNL d   1      25.069  -5.714   0.470  0.00  0.00     0.210 C 
ENDBRANCH  30  33
BRANCH  31  35
ATOM     35  O   UNL d   1      26.531  -9.103   2.996  0.00  0.00    -0.353 OA
ATOM     36  C   UNL d   1      27.176 -10.210   3.567  0.00  0.00     0.210 C 
ENDBRANCH  31  35
ENDBRANCH  26  27
ENDBRANCH   1  26
TORSDOF 10
ENDMDL
MODEL 5
REMARK VINA RESULT:    -9.148      0.991      1.953
REMARK INTER + INTRA:         -13.447
REMARK INTER:                 -12.131
REMARK INTRA:                  -1.316
REMARK CONF_INDEPENDENT:        2.983
REMARK UNBOUND:                -1.316
REMARK  10 active torsions:
REMARK  status: ('A' for Active; 'I' for Inactive)
REMARK    1  A    between atoms: O_2  and  C_3 
REMARK    2  A    between atoms: C_6  and  C_7 
REMARK    3  A    between atoms: C_7  and  N_8 
REMARK       I    between atoms: N_8  and  C_9 
REMARK       I    between atoms: C_9  and  N_11 
REMARK    4  A    between atoms: N_11  and  C_12 
REMARK    5  A    between atoms: N_11  and  C_17 
REMARK    6  A    between atoms: C_12  and  C_13 
REMARK    7  A    between atoms: C_13  and  N_14 
REMARK    8  A    between atoms: C_22  and  O_23 
REMARK    9  A    between atoms: O_23  and  C_24 
REMARK   10  A    between atoms: C_32  and  O_33 
ROOT
ATOM      1  N   UNL d   1      28.681 -13.221   0.915  0.00  0.00    -0.338 N 
ATOM      2  C   UNL d   1      27.562 -14.074   0.827  0.00  0.00     0.324 C 
ATOM      3  O   UNL d   1      26.693 -13.976   1.667  0.00  0.00    -0.247 OA
ATOM      4  N   UNL d   1      27.556 -15.043  -0.243  0.00  0.00    -0.277 N 
ATOM      5  H   UNL d   1      29.362 -13.154   0.234  0.00  0.00     0.164 HD
ENDROOT
BRANCH   4   6
ATOM      6  C   UNL d   1      28.638 -15.283  -1.279  0.00  0.00     0.163 C 
BRANCH   6   7
ATOM      7  C   UNL d   1      29.634 -16.397  -1.025  0.00  0.00     0.254 C 
BRANCH   7   8
ATOM      8  N   UNL d   1      30.335 -16.493   0.281  0.00  0.00    -0.077 N 
ATOM      9  C   UNL d   1      31.445 -17.488   0.224  0.00  0.00     0.269 C 
ATOM     10  C   UNL d   1      30.912 -15.150   0.648  0.00  0.00     0.269 C 
ATOM     11  H   UNL d   1      29.652 -16.730   1.012  0.00  0.00     0.279 HD
ENDBRANCH   7   8
ENDBRANCH   6   7
ENDBRANCH   4   6
BRANCH   4  12
ATOM     12  C   UNL d   1      26.470 -16.011  -0.407  0.00  0.00     0.178 C 
ATOM     13  N   UNL d   1      25.224 -15.577  -0.445  0.00  0.00    -0.223 NA
ATOM     14  C   UNL d   1      24.298 -16.604  -0.591  0.00  0.00     0.077 C 
ATOM     15  C   UNL d   1      22.935 -16.419  -0.895  0.00  0.00     0.036 C 
ATOM     16  C   UNL d   1      24.771 -17.901  -0.395  0.00  0.00     0.040 C 
ATOM     17  C   UNL d   1      22.037 -17.490  -0.877  0.00  0.00     0.039 C 
ATOM     18  C   UNL d   1      22.465 -18.780  -0.568  0.00  0.00     0.079 C 
ATOM     19  C   UNL d   1      23.838 -19.008  -0.295  0.00  0.00     0.058 C 
ATOM     20  S   UNL d   1      26.553 -17.743  -0.420  0.00  0.00    -0.050 SA
BRANCH  18  21
ATOM     21  O   UNL d   1      21.430 -19.680  -0.633  0.00  0.00    -0.255 OA
BRANCH  21  22
ATOM     22  C   UNL d   1      20.313 -19.576   0.232  0.00  0.00     0.530 C 
ATOM     23  F   UNL d   1      19.685 -20.760   0.368  0.00  0.00    -0.144 F 
ATOM     24  F   UNL d   1      20.702 -19.124   1.441  0.00  0.00    -0.144 F 
ATOM     25  F   UNL d   1      19.432 -18.689  -0.288  0.00  0.00    -0.144 F 
ENDBRANCH  21  22
ENDBRANCH  18  21
ENDBRANCH   4  12
BRANCH   1  26
ATOM     26  C   UNL d   1      28.976 -12.109   1.852  0.00  0.00     0.163 C 
BRANCH  26  27
ATOM     27  C   UNL d   1      28.042 -10.859   1.735  0.00  0.00    -0.038 A 
ATOM     28  C   UNL d   1      27.513 -10.466   0.506  0.00  0.00     0.012 A 
ATOM     29  C   UNL d   1      26.738  -9.273   0.363  0.00  0.00     0.040 A 
ATOM     30  C   UNL d   1      26.383  -8.434   1.442  0.00  0.00     0.101 A 
ATOM     31  C   UNL d   1      26.863  -8.828   2.685  0.00  0.00     0.102 A 
ATOM     32  C   UNL d   1      27.660 -10.015   2.785  0.00  0.00     0.048 A 
BRANCH  30  33
ATOM     33  O   UNL d   1      25.379  -7.539   1.160  0.00  0.00    -0.353 OA
ATOM     34  C   UNL d   1      24.809  -7.380  -0.141  0.00  0.00     0.210 C 
ENDBRANCH  30  33
BRANCH  31  35
ATOM     35  O   UNL d   1      26.657  -8.302   3.935  0.00  0.00    -0.353 OA
ATOM     36  C   UNL d   1      27.746  -7.730   4.608  0.00  0.00     0.210 C 
ENDBRANCH  31  35
ENDBRANCH  26  27
ENDBRANCH   1  26
TORSDOF 10
ENDMDL
MODEL 6
REMARK VINA RESULT:    -9.090      4.953      8.374
REMARK INTER + INTRA:         -13.501
REMARK INTER:                 -12.073
REMARK INTRA:                  -1.428
REMARK CONF_INDEPENDENT:        2.983
REMARK UNBOUND:                -1.428
REMARK  10 active torsions:
REMARK  status: ('A' for Active; 'I' for Inactive)
REMARK    1  A    between atoms: O_2  and  C_3 
REMARK    2  A    between atoms: C_6  and  C_7 
REMARK    3  A    between atoms: C_7  and  N_8 
REMARK       I    between atoms: N_8  and  C_9 
REMARK       I    between atoms: C_9  and  N_11 
REMARK    4  A    between atoms: N_11  and  C_12 
REMARK    5  A    between atoms: N_11  and  C_17 
REMARK    6  A    between atoms: C_12  and  C_13 
REMARK    7  A    between atoms: C_13  and  N_14 
REMARK    8  A    between atoms: C_22  and  O_23 
REMARK    9  A    between atoms: O_23  and  C_24 
REMARK   10  A    between atoms: C_32  and  O_33 
ROOT
ATOM      1  N   UNL d   1      29.801 -15.058  -4.553  0.00  0.00    -0.338 N 
ATOM      2  C   UNL d   1      28.526 -15.470  -4.114  0.00  0.00     0.324 C 
ATOM      3  O   UNL d   1      27.679 -15.713  -4.946  0.00  0.00    -0.247 OA
ATOM      4  N   UNL d   1      28.309 -15.531  -2.689  0.00  0.00    -0.277 N 
ATOM      5  H   UNL d   1      30.562 -14.950  -3.970  0.00  0.00     0.164 HD
ENDROOT
BRANCH   4   6
ATOM      6  C   UNL d   1      29.287 -15.164  -1.588  0.00  0.00     0.163 C 
BRANCH   6   7
ATOM      7  C   UNL d   1      29.233 -15.950  -0.294  0.00  0.00     0.254 C 
BRANCH   7   8
ATOM      8  N   UNL d   1      30.113 -17.131  -0.096  0.00  0.00    -0.077 N 
ATOM      9  C   UNL d   1      30.374 -17.830  -1.388  0.00  0.00     0.269 C 
ATOM     10  C   UNL d   1      31.431 -16.691   0.487  0.00  0.00     0.269 C 
ATOM     11  H   UNL d   1      29.681 -17.760   0.593  0.00  0.00     0.279 HD
ENDBRANCH   7   8
ENDBRANCH   6   7
ENDBRANCH   4   6
BRANCH   4  12
ATOM     12  C   UNL d   1      27.014 -15.900  -2.116  0.00  0.00     0.178 C 
ATOM     13  N   UNL d   1      26.893 -17.062  -1.499  0.00  0.00    -0.223 NA
ATOM     14  C   UNL d   1      25.609 -17.287  -1.017  0.00  0.00     0.077 C 
ATOM     15  C   UNL d   1      25.255 -18.319  -0.126  0.00  0.00     0.036 C 
ATOM     16  C   UNL d   1      24.610 -16.431  -1.481  0.00  0.00     0.040 C 
ATOM     17  C   UNL d   1      23.919 -18.573   0.195  0.00  0.00     0.039 C 
ATOM     18  C   UNL d   1      22.892 -17.804  -0.349  0.00  0.00     0.079 C 
ATOM     19  C   UNL d   1      23.215 -16.732  -1.220  0.00  0.00     0.058 C 
ATOM     20  S   UNL d   1      25.494 -15.075  -2.245  0.00  0.00    -0.050 SA
BRANCH  18  21
ATOM     21  O   UNL d   1      21.664 -18.206   0.116  0.00  0.00    -0.255 OA
BRANCH  21  22
ATOM     22  C   UNL d   1      20.815 -19.027  -0.667  0.00  0.00     0.530 C 
ATOM     23  F   UNL d   1      19.629 -18.431  -0.895  0.00  0.00    -0.144 F 
ATOM     24  F   UNL d   1      21.410 -19.324  -1.840  0.00  0.00    -0.144 F 
ATOM     25  F   UNL d   1      20.585 -20.185  -0.005  0.00  0.00    -0.144 F 
ENDBRANCH  21  22
ENDBRANCH  18  21
ENDBRANCH   4  12
BRANCH   1  26
ATOM     26  C   UNL d   1      30.356 -14.931  -5.923  0.00  0.00     0.163 C 
BRANCH  26  27
ATOM     27  C   UNL d   1      30.847 -16.264  -6.581  0.00  0.00    -0.038 A 
ATOM     28  C   UNL d   1      31.796 -16.257  -7.602  0.00  0.00     0.012 A 
ATOM     29  C   UNL d   1      32.185 -17.453  -8.282  0.00  0.00     0.040 A 
ATOM     30  C   UNL d   1      31.708 -18.738  -7.943  0.00  0.00     0.101 A 
ATOM     31  C   UNL d   1      30.792 -18.777  -6.899  0.00  0.00     0.102 A 
ATOM     32  C   UNL d   1      30.405 -17.552  -6.260  0.00  0.00     0.048 A 
BRANCH  30  33
ATOM     33  O   UNL d   1      32.434 -19.775  -8.478  0.00  0.00    -0.353 OA
ATOM     34  C   UNL d   1      31.852 -21.016  -8.882  0.00  0.00     0.210 C 
ENDBRANCH  30  33
BRANCH  31  35
ATOM     35  O   UNL d   1      30.189 -19.836  -6.271  0.00  0.00    -0.353 OA
ATOM     36  C   UNL d   1      30.951 -20.611  -5.385  0.00  0.00     0.210 C 
ENDBRANCH  31  35
ENDBRANCH  26  27
ENDBRANCH   1  26
TORSDOF 10
ENDMDL
MODEL 7
REMARK VINA RESULT:    -9.013      4.649      8.398
REMARK INTER + INTRA:         -13.424
REMARK INTER:                 -11.996
REMARK INTRA:                  -1.428
REMARK CONF_INDEPENDENT:        2.983
REMARK UNBOUND:                -1.428
REMARK  10 active torsions:
REMARK  status: ('A' for Active; 'I' for Inactive)
REMARK    1  A    between atoms: O_2  and  C_3 
REMARK    2  A    between atoms: C_6  and  C_7 
REMARK    3  A    between atoms: C_7  and  N_8 
REMARK       I    between atoms: N_8  and  C_9 
REMARK       I    between atoms: C_9  and  N_11 
REMARK    4  A    between atoms: N_11  and  C_12 
REMARK    5  A    between atoms: N_11  and  C_17 
REMARK    6  A    between atoms: C_12  and  C_13 
REMARK    7  A    between atoms: C_13  and  N_14 
REMARK    8  A    between atoms: C_22  and  O_23 
REMARK    9  A    between atoms: O_23  and  C_24 
REMARK   10  A    between atoms: C_32  and  O_33 
ROOT
ATOM      1  N   UNL d   1      29.760 -14.930  -4.697  0.00  0.00    -0.338 N 
ATOM      2  C   UNL d   1      28.501 -15.368  -4.236  0.00  0.00     0.324 C 
ATOM      3  O   UNL d   1      27.646 -15.632  -5.055  0.00  0.00    -0.247 OA
ATOM      4  N   UNL d   1      28.307 -15.429  -2.808  0.00  0.00    -0.277 N 
ATOM      5  H   UNL d   1      30.528 -14.805  -4.126  0.00  0.00     0.164 HD
ENDROOT
BRANCH   4   6
ATOM      6  C   UNL d   1      29.295 -15.039  -1.723  0.00  0.00     0.163 C 
BRANCH   6   7
ATOM      7  C   UNL d   1      29.625 -16.062  -0.656  0.00  0.00     0.254 C 
BRANCH   7   8
ATOM      8  N   UNL d   1      29.420 -15.741   0.780  0.00  0.00    -0.077 N 
ATOM      9  C   UNL d   1      30.237 -14.562   1.189  0.00  0.00     0.269 C 
ATOM     10  C   UNL d   1      27.966 -15.428   1.029  0.00  0.00     0.269 C 
ATOM     11  H   UNL d   1      29.643 -16.571   1.345  0.00  0.00     0.279 HD
ENDBRANCH   7   8
ENDBRANCH   6   7
ENDBRANCH   4   6
BRANCH   4  12
ATOM     12  C   UNL d   1      27.030 -15.825  -2.213  0.00  0.00     0.178 C 
ATOM     13  N   UNL d   1      26.958 -16.960  -1.543  0.00  0.00    -0.223 NA
ATOM     14  C   UNL d   1      25.685 -17.216  -1.047  0.00  0.00     0.077 C 
ATOM     15  C   UNL d   1      25.376 -18.219  -0.108  0.00  0.00     0.036 C 
ATOM     16  C   UNL d   1      24.651 -16.424  -1.545  0.00  0.00     0.040 C 
ATOM     17  C   UNL d   1      24.052 -18.512   0.230  0.00  0.00     0.039 C 
ATOM     18  C   UNL d   1      22.993 -17.813  -0.345  0.00  0.00     0.079 C 
ATOM     19  C   UNL d   1      23.270 -16.769  -1.265  0.00  0.00     0.058 C 
ATOM     20  S   UNL d   1      25.477 -15.069  -2.374  0.00  0.00    -0.050 SA
BRANCH  18  21
ATOM     21  O   UNL d   1      21.784 -18.242   0.143  0.00  0.00    -0.255 OA
BRANCH  21  22
ATOM     22  C   UNL d   1      20.844 -18.891  -0.695  0.00  0.00     0.530 C 
ATOM     23  F   UNL d   1      20.293 -19.956  -0.083  0.00  0.00    -0.144 F 
ATOM     24  F   UNL d   1      19.877 -18.026  -1.064  0.00  0.00    -0.144 F 
ATOM     25  F   UNL d   1      21.472 -19.325  -1.813  0.00  0.00    -0.144 F 
ENDBRANCH  21  22
ENDBRANCH  18  21
ENDBRANCH   4  12
BRANCH   1  26
ATOM     26  C   UNL d   1      30.290 -14.796  -6.076  0.00  0.00     0.163 C 
BRANCH  26  27
ATOM     27  C   UNL d   1      30.832 -16.113  -6.725  0.00  0.00    -0.038 A 
ATOM     28  C   UNL d   1      31.818 -16.079  -7.710  0.00  0.00     0.012 A 
ATOM     29  C   UNL d   1      32.256 -17.261  -8.383  0.00  0.00     0.040 A 
ATOM     30  C   UNL d   1      31.792 -18.559  -8.072  0.00  0.00     0.101 A 
ATOM     31  C   UNL d   1      30.839 -18.624  -7.063  0.00  0.00     0.102 A 
ATOM     32  C   UNL d   1      30.405 -17.412  -6.430  0.00  0.00     0.048 A 
BRANCH  30  33
ATOM     33  O   UNL d   1      32.558 -19.576  -8.587  0.00  0.00    -0.353 OA
ATOM     34  C   UNL d   1      32.218 -20.958  -8.462  0.00  0.00     0.210 C 
ENDBRANCH  30  33
BRANCH  31  35
ATOM     35  O   UNL d   1      30.235 -19.700  -6.465  0.00  0.00    -0.353 OA
ATOM     36  C   UNL d   1      30.406 -19.883  -5.085  0.00  0.00     0.210 C 
ENDBRANCH  31  35
ENDBRANCH  26  27
ENDBRANCH   1  26
TORSDOF 10
ENDMDL
MODEL 8
REMARK VINA RESULT:    -8.744      5.062      8.602
REMARK INTER + INTRA:         -13.125
REMARK INTER:                 -11.727
REMARK INTRA:                  -1.398
REMARK CONF_INDEPENDENT:        2.983
REMARK UNBOUND:                -1.398
REMARK  10 active torsions:
REMARK  status: ('A' for Active; 'I' for Inactive)
REMARK    1  A    between atoms: O_2  and  C_3 
REMARK    2  A    between atoms: C_6  and  C_7 
REMARK    3  A    between atoms: C_7  and  N_8 
REMARK       I    between atoms: N_8  and  C_9 
REMARK       I    between atoms: C_9  and  N_11 
REMARK    4  A    between atoms: N_11  and  C_12 
REMARK    5  A    between atoms: N_11  and  C_17 
REMARK    6  A    between atoms: C_12  and  C_13 
REMARK    7  A    between atoms: C_13  and  N_14 
REMARK    8  A    between atoms: C_22  and  O_23 
REMARK    9  A    between atoms: O_23  and  C_24 
REMARK   10  A    between atoms: C_32  and  O_33 
ROOT
ATOM      1  N   UNL d   1      29.836 -15.053  -4.831  0.00  0.00    -0.338 N 
ATOM      2  C   UNL d   1      28.564 -15.421  -4.348  0.00  0.00     0.324 C 
ATOM      3  O   UNL d   1      27.673 -15.608  -5.150  0.00  0.00    -0.247 OA
ATOM      4  N   UNL d   1      28.402 -15.506  -2.917  0.00  0.00    -0.277 N 
ATOM      5  H   UNL d   1      30.625 -14.992  -4.278  0.00  0.00     0.164 HD
ENDROOT
BRANCH   4   6
ATOM      6  C   UNL d   1      29.439 -15.208  -1.850  0.00  0.00     0.163 C 
BRANCH   6   7
ATOM      7  C   UNL d   1      29.700 -16.262  -0.794  0.00  0.00     0.254 C 
BRANCH   7   8
ATOM      8  N   UNL d   1      29.578 -15.925   0.648  0.00  0.00    -0.077 N 
ATOM      9  C   UNL d   1      30.441 -14.761   1.003  0.00  0.00     0.269 C 
ATOM     10  C   UNL d   1      28.147 -15.578   0.971  0.00  0.00     0.269 C 
ATOM     11  H   UNL d   1      29.814 -16.754   1.208  0.00  0.00     0.279 HD
ENDBRANCH   7   8
ENDBRANCH   6   7
ENDBRANCH   4   6
BRANCH   4  12
ATOM     12  C   UNL d   1      27.116 -15.833  -2.299  0.00  0.00     0.178 C 
ATOM     13  N   UNL d   1      26.977 -16.993  -1.683  0.00  0.00    -0.223 NA
ATOM     14  C   UNL d   1      25.704 -17.176  -1.155  0.00  0.00     0.077 C 
ATOM     15  C   UNL d   1      25.347 -18.199  -0.256  0.00  0.00     0.036 C 
ATOM     16  C   UNL d   1      24.720 -16.283  -1.579  0.00  0.00     0.040 C 
ATOM     17  C   UNL d   1      24.015 -18.408   0.112  0.00  0.00     0.039 C 
ATOM     18  C   UNL d   1      22.997 -17.601  -0.391  0.00  0.00     0.079 C 
ATOM     19  C   UNL d   1      23.325 -16.536  -1.268  0.00  0.00     0.058 C 
ATOM     20  S   UNL d   1      25.623 -14.954  -2.369  0.00  0.00    -0.050 SA
BRANCH  18  21
ATOM     21  O   UNL d   1      21.774 -17.962   0.117  0.00  0.00    -0.255 OA
BRANCH  21  22
ATOM     22  C   UNL d   1      20.961 -18.920  -0.537  0.00  0.00     0.530 C 
ATOM     23  F   UNL d   1      20.757 -20.003   0.237  0.00  0.00    -0.144 F 
ATOM     24  F   UNL d   1      19.777 -18.371  -0.876  0.00  0.00    -0.144 F 
ATOM     25  F   UNL d   1      21.579 -19.324  -1.672  0.00  0.00    -0.144 F 
ENDBRANCH  21  22
ENDBRANCH  18  21
ENDBRANCH   4  12
BRANCH   1  26
ATOM     26  C   UNL d   1      30.340 -14.918  -6.220  0.00  0.00     0.163 C 
BRANCH  26  27
ATOM     27  C   UNL d   1      30.858 -16.237  -6.884  0.00  0.00    -0.038 A 
ATOM     28  C   UNL d   1      30.405 -17.485  -6.458  0.00  0.00     0.012 A 
ATOM     29  C   UNL d   1      30.937 -18.703  -6.984  0.00  0.00     0.040 A 
ATOM     30  C   UNL d   1      31.901 -18.757  -8.014  0.00  0.00     0.101 A 
ATOM     31  C   UNL d   1      32.338 -17.526  -8.486  0.00  0.00     0.102 A 
ATOM     32  C   UNL d   1      31.801 -16.325  -7.914  0.00  0.00     0.048 A 
BRANCH  30  33
ATOM     33  O   UNL d   1      32.039 -19.992  -8.601  0.00  0.00    -0.353 OA
ATOM     34  C   UNL d   1      31.875 -20.220 -10.002  0.00  0.00     0.210 C 
ENDBRANCH  30  33
BRANCH  31  35
ATOM     35  O   UNL d   1      33.196 -17.207  -9.508  0.00  0.00    -0.353 OA
ATOM     36  C   UNL d   1      34.019 -16.081  -9.365  0.00  0.00     0.210 C 
ENDBRANCH  31  35
ENDBRANCH  26  27
ENDBRANCH   1  26
TORSDOF 10
ENDMDL
MODEL 9
REMARK VINA RESULT:    -8.160      5.394      9.287
REMARK INTER + INTRA:         -13.262
REMARK INTER:                 -11.143
REMARK INTRA:                  -2.119
REMARK CONF_INDEPENDENT:        2.983
REMARK UNBOUND:                -2.119
REMARK  10 active torsions:
REMARK  status: ('A' for Active; 'I' for Inactive)
REMARK    1  A    between atoms: O_2  and  C_3 
REMARK    2  A    between atoms: C_6  and  C_7 
REMARK    3  A    between atoms: C_7  and  N_8 
REMARK       I    between atoms: N_8  and  C_9 
REMARK       I    between atoms: C_9  and  N_11 
REMARK    4  A    between atoms: N_11  and  C_12 
REMARK    5  A    between atoms: N_11  and  C_17 
REMARK    6  A    between atoms: C_12  and  C_13 
REMARK    7  A    between atoms: C_13  and  N_14 
REMARK    8  A    between atoms: C_22  and  O_23 
REMARK    9  A    between atoms: O_23  and  C_24 
REMARK   10  A    between atoms: C_32  and  O_33 
ROOT
ATOM      1  N   UNL d   1      27.346 -14.154  -0.731  0.00  0.00    -0.338 N 
ATOM      2  C   UNL d   1      27.258 -13.933   0.659  0.00  0.00     0.324 C 
ATOM      3  O   UNL d   1      26.165 -13.979   1.183  0.00  0.00    -0.247 OA
ATOM      4  N   UNL d   1      28.482 -13.621   1.355  0.00  0.00    -0.277 N 
ATOM      5  H   UNL d   1      28.180 -14.245  -1.209  0.00  0.00     0.164 HD
ENDROOT
BRANCH   4   6
ATOM      6  C   UNL d   1      29.870 -13.463   0.760  0.00  0.00     0.163 C 
BRANCH   6   7
ATOM      7  C   UNL d   1      30.777 -14.676   0.735  0.00  0.00     0.254 C 
BRANCH   7   8
ATOM      8  N   UNL d   1      31.161 -15.352   2.002  0.00  0.00    -0.077 N 
ATOM      9  C   UNL d   1      31.977 -16.572   1.735  0.00  0.00     0.269 C 
ATOM     10  C   UNL d   1      31.971 -14.410   2.856  0.00  0.00     0.269 C 
ATOM     11  H   UNL d   1      30.311 -15.574   2.535  0.00  0.00     0.279 HD
ENDBRANCH   7   8
ENDBRANCH   6   7
ENDBRANCH   4   6
BRANCH   4  12
ATOM     12  C   UNL d   1      28.508 -13.327   2.789  0.00  0.00     0.178 C 
ATOM     13  N   UNL d   1      29.023 -14.216   3.617  0.00  0.00    -0.223 NA
ATOM     14  C   UNL d   1      28.969 -13.813   4.946  0.00  0.00     0.077 C 
ATOM     15  C   UNL d   1      29.648 -14.445   6.006  0.00  0.00     0.036 C 
ATOM     16  C   UNL d   1      28.160 -12.713   5.231  0.00  0.00     0.040 C 
ATOM     17  C   UNL d   1      29.426 -14.073   7.334  0.00  0.00     0.039 C 
ATOM     18  C   UNL d   1      28.531 -13.053   7.653  0.00  0.00     0.079 C 
ATOM     19  C   UNL d   1      27.859 -12.368   6.608  0.00  0.00     0.058 C 
ATOM     20  S   UNL d   1      27.805 -11.986   3.634  0.00  0.00    -0.050 SA
BRANCH  18  21
ATOM     21  O   UNL d   1      28.483 -12.833   9.007  0.00  0.00    -0.255 OA
BRANCH  21  22
ATOM     22  C   UNL d   1      28.671 -13.892   9.929  0.00  0.00     0.530 C 
ATOM     23  F   UNL d   1      28.178 -15.052   9.454  0.00  0.00    -0.144 F 
ATOM     24  F   UNL d   1      29.981 -14.034  10.212  0.00  0.00    -0.144 F 
ATOM     25  F   UNL d   1      28.020 -13.598  11.080  0.00  0.00    -0.144 F 
ENDBRANCH  21  22
ENDBRANCH  18  21
ENDBRANCH   4  12
BRANCH   1  26
ATOM     26  C   UNL d   1      26.303 -14.530  -1.717  0.00  0.00     0.163 C 
BRANCH  26  27
ATOM     27  C   UNL d   1      25.424 -15.767  -1.335  0.00  0.00    -0.038 A 
ATOM     28  C   UNL d   1      24.071 -15.820  -1.667  0.00  0.00     0.012 A 
ATOM     29  C   UNL d   1      23.230 -16.895  -1.243  0.00  0.00     0.040 A 
ATOM     30  C   UNL d   1      23.695 -18.018  -0.524  0.00  0.00     0.101 A 
ATOM     31  C   UNL d   1      25.050 -18.010  -0.217  0.00  0.00     0.102 A 
ATOM     32  C   UNL d   1      25.856 -16.900  -0.636  0.00  0.00     0.048 A 
BRANCH  30  33
ATOM     33  O   UNL d   1      22.822 -19.079  -0.498  0.00  0.00    -0.353 OA
ATOM     34  C   UNL d   1      21.419 -18.950  -0.739  0.00  0.00     0.210 C 
ENDBRANCH  30  33
BRANCH  31  35
ATOM     35  O   UNL d   1      25.840 -18.950   0.394  0.00  0.00    -0.353 OA
ATOM     36  C   UNL d   1      27.194 -18.652   0.605  0.00  0.00     0.210 C 
ENDBRANCH  31  35
ENDBRANCH  26  27
ENDBRANCH   1  26
TORSDOF 10
ENDMDL
