MODEL 1
REMARK VINA RESULT:    -9.760      0.000      0.000
REMARK INTER + INTRA:         -12.614
REMARK INTER:                 -11.549
REMARK INTRA:                  -1.065
REMARK CONF_INDEPENDENT:        1.790
REMARK UNBOUND:                -1.065
REMARK  6 active torsions:
REMARK  status: ('A' for Active; 'I' for Inactive)
REMARK    1  A    between atoms: C_12  and  N_13 
REMARK       I    between atoms: N_13  and  C_14 
REMARK    2  A    between atoms: C_14  and  C_16 
REMARK    3  A    between atoms: C_16  and  O_17 
REMARK    4  A    between atoms: O_17  and  C_18 
REMARK    5  A    between atoms: C_18  and  C_20 
REMARK    6  A    between atoms: C_25  and  C_26 
ROOT
ATOM      1  C   UNL d   1      24.326 -14.242  -3.299  0.00  0.00     0.281 C 
ENDROOT
BRANCH   1   2
ATOM      2  C   UNL d   1      25.458 -13.340  -3.784  0.00  0.00     0.244 C 
ATOM      3  N   UNL d   1      25.183 -12.401  -4.762  0.00  0.00    -0.329 N 
ATOM      4  H   UNL d   1      24.406 -12.517  -5.399  0.00  0.00     0.165 HD
ATOM      5  O   UNL d   1      26.592 -13.486  -3.334  0.00  0.00    -0.271 OA
BRANCH   3   6
ATOM      6  C   UNL d   1      26.212 -11.458  -5.149  0.00  0.00     0.264 A 
ATOM      7  O   UNL d   1      26.079 -11.232  -6.585  0.00  0.00    -0.353 OA
ATOM      8  C   UNL d   1      25.798  -9.826  -6.823  0.00  0.00     0.152 A 
ATOM      9  C   UNL d   1      25.690  -9.228  -5.472  0.00  0.00    -0.017 A 
ATOM     10  C   UNL d   1      26.896  -9.151  -7.646  0.00  0.00     0.044 C 
ATOM     11  C   UNL d   1      25.964 -10.140  -4.544  0.00  0.00     0.066 A 
ATOM     12  C   UNL d   1      25.291  -7.830  -5.184  0.00  0.00     0.105 C 
ATOM     13  C   UNL d   1      25.989  -9.748  -3.139  0.00  0.00     0.266 C 
ATOM     14  N   UNL d   1      25.527  -8.497  -2.842  0.00  0.00    -0.287 N 
ATOM     15  O   UNL d   1      26.385 -10.443  -2.211  0.00  0.00    -0.266 OA
ATOM     16  N   UNL d   1      25.300  -7.463  -3.757  0.00  0.00    -0.229 NA
ATOM     17  H   UNL d   1      25.603  -8.283  -1.851  0.00  0.00     0.184 HD
ATOM     18  H   UNL d   1      24.386  -7.074  -3.511  0.00  0.00     0.147 HD
ATOM     19  C   UNL d   1      23.863  -7.641  -5.682  0.00  0.00     0.033 C 
ENDBRANCH   3   6
ENDBRANCH   1   2
BRANCH   1  20
ATOM     20  O   UNL d   1      24.888 -15.511  -2.867  0.00  0.00    -0.307 OA
BRANCH  20  21
ATOM     21  C   UNL d   1      24.447 -15.934  -1.659  0.00  0.00     0.315 C 
ATOM     22  O   UNL d   1      23.290 -15.808  -1.281  0.00  0.00    -0.257 OA
BRANCH  21  23
ATOM     23  C   UNL d   1      25.480 -16.668  -0.855  0.00  0.00     0.163 A 
ATOM     24  N   UNL d   1      26.743 -16.152  -0.758  0.00  0.00    -0.251 NA
ATOM     25  C   UNL d   1      27.555 -16.761   0.150  0.00  0.00     0.137 A 
ATOM     26  C   UNL d   1      27.148 -17.836   0.928  0.00  0.00     0.136 A 
ATOM     27  N   UNL d   1      25.915 -18.371   0.815  0.00  0.00    -0.254 NA
ATOM     28  C   UNL d   1      25.082 -17.769  -0.090  0.00  0.00     0.127 A 
BRANCH  28  29
ATOM     29  C   UNL d   1      23.734 -18.326  -0.147  0.00  0.00     0.130 A 
ATOM     30  N   UNL d   1      22.988 -18.574   0.908  0.00  0.00    -0.238 NA
ATOM     31  C   UNL d   1      21.725 -18.953   0.506  0.00  0.00     0.075 A 
ATOM     32  C   UNL d   1      20.656 -19.258   1.367  0.00  0.00     0.033 A 
ATOM     33  C   UNL d   1      21.526 -19.028  -0.874  0.00  0.00     0.035 A 
ATOM     34  C   UNL d   1      19.423 -19.635   0.832  0.00  0.00     0.002 A 
ATOM     35  C   UNL d   1      19.240 -19.691  -0.547  0.00  0.00     0.002 A 
ATOM     36  C   UNL d   1      20.284 -19.381  -1.425  0.00  0.00     0.021 A 
ATOM     37  S   UNL d   1      23.003 -18.656  -1.671  0.00  0.00    -0.066 SA
ENDBRANCH  28  29
ENDBRANCH  21  23
ENDBRANCH  20  21
ENDBRANCH   1  20
TORSDOF 6
ENDMDL
MODEL 2
REMARK VINA RESULT:    -8.716      5.679      8.271
REMARK INTER + INTRA:         -12.478
REMARK INTER:                 -10.505
REMARK INTRA:                  -1.973
REMARK CONF_INDEPENDENT:        1.790
REMARK UNBOUND:                -1.973
REMARK  6 active torsions:
REMARK  status: ('A' for Active; 'I' for Inactive)
REMARK    1  A    between atoms: C_12  and  N_13 
REMARK       I    between atoms: N_13  and  C_14 
REMARK    2  A    between atoms: C_14  and  C_16 
REMARK    3  A    between atoms: C_16  and  O_17 
REMARK    4  A    between atoms: O_17  and  C_18 
REMARK    5  A    between atoms: C_18  and  C_20 
REMARK    6  A    between atoms: C_25  and  C_26 
ROOT
ATOM      1  C   UNL d   1      28.782 -14.783  -5.009  0.00  0.00     0.281 C 
ENDROOT
BRANCH   1   2
ATOM      2  C   UNL d   1      29.914 -15.793  -4.842  0.00  0.00     0.244 C 
ATOM      3  N   UNL d   1      29.817 -17.009  -5.496  0.00  0.00    -0.329 N 
ATOM      4  H   UNL d   1      28.922 -17.391  -5.767  0.00  0.00     0.165 HD
ATOM      5  O   UNL d   1      30.863 -15.532  -4.108  0.00  0.00    -0.271 OA
BRANCH   3   6
ATOM      6  C   UNL d   1      30.934 -17.931  -5.447  0.00  0.00     0.264 A 
ATOM      7  O   UNL d   1      30.386 -19.271  -5.263  0.00  0.00    -0.353 OA
ATOM      8  C   UNL d   1      30.763 -20.100  -6.396  0.00  0.00     0.152 A 
ATOM      9  C   UNL d   1      31.493 -19.187  -7.306  0.00  0.00    -0.017 A 
ATOM     10  C   UNL d   1      31.634 -21.285  -5.978  0.00  0.00     0.044 C 
ATOM     11  C   UNL d   1      31.619 -17.987  -6.747  0.00  0.00     0.066 A 
ATOM     12  C   UNL d   1      31.977 -19.537  -8.663  0.00  0.00     0.105 C 
ATOM     13  C   UNL d   1      32.374 -16.949  -7.441  0.00  0.00     0.266 C 
ATOM     14  N   UNL d   1      32.740 -17.214  -8.730  0.00  0.00    -0.287 N 
ATOM     15  O   UNL d   1      32.702 -15.867  -6.967  0.00  0.00    -0.266 OA
ATOM     16  N   UNL d   1      32.715 -18.465  -9.355  0.00  0.00    -0.229 NA
ATOM     17  H   UNL d   1      33.287 -16.460  -9.138  0.00  0.00     0.184 HD
ATOM     18  H   UNL d   1      32.287 -18.308 -10.270  0.00  0.00     0.147 HD
ATOM     19  C   UNL d   1      30.761 -19.863  -9.521  0.00  0.00     0.033 C 
ENDBRANCH   3   6
ENDBRANCH   1   2
BRANCH   1  20
ATOM     20  O   UNL d   1      27.709 -15.401  -5.770  0.00  0.00    -0.307 OA
BRANCH  20  21
ATOM     21  C   UNL d   1      26.465 -15.076  -5.346  0.00  0.00     0.315 C 
ATOM     22  O   UNL d   1      25.528 -15.862  -5.340  0.00  0.00    -0.257 OA
BRANCH  21  23
ATOM     23  C   UNL d   1      26.355 -13.690  -4.781  0.00  0.00     0.163 A 
ATOM     24  N   UNL d   1      26.602 -12.616  -5.593  0.00  0.00    -0.251 NA
ATOM     25  C   UNL d   1      26.281 -11.401  -5.068  0.00  0.00     0.137 A 
ATOM     26  C   UNL d   1      25.746 -11.243  -3.797  0.00  0.00     0.136 A 
ATOM     27  N   UNL d   1      25.529 -12.294  -2.980  0.00  0.00    -0.254 NA
ATOM     28  C   UNL d   1      25.841 -13.526  -3.492  0.00  0.00     0.127 A 
BRANCH  28  29
ATOM     29  C   UNL d   1      25.539 -14.649  -2.611  0.00  0.00     0.130 A 
ATOM     30  N   UNL d   1      24.326 -15.096  -2.367  0.00  0.00    -0.238 NA
ATOM     31  C   UNL d   1      24.397 -16.252  -1.619  0.00  0.00     0.075 A 
ATOM     32  C   UNL d   1      23.295 -17.021  -1.206  0.00  0.00     0.033 A 
ATOM     33  C   UNL d   1      25.683 -16.663  -1.261  0.00  0.00     0.035 A 
ATOM     34  C   UNL d   1      23.502 -18.173  -0.444  0.00  0.00     0.002 A 
ATOM     35  C   UNL d   1      24.793 -18.574  -0.109  0.00  0.00     0.002 A 
ATOM     36  C   UNL d   1      25.906 -17.833  -0.518  0.00  0.00     0.021 A 
ATOM     37  S   UNL d   1      26.820 -15.517  -1.853  0.00  0.00    -0.066 SA
ENDBRANCH  28  29
ENDBRANCH  21  23
ENDBRANCH  20  21
ENDBRANCH   1  20
TORSDOF 6
ENDMDL
MODEL 3
REMARK VINA RESULT:    -8.340      5.262      8.950
REMARK INTER + INTRA:         -13.027
REMARK INTER:                 -10.130
REMARK INTRA:                  -2.897
REMARK CONF_INDEPENDENT:        1.790
REMARK UNBOUND:                -2.897
REMARK  6 active torsions:
REMARK  status: ('A' for Active; 'I' for Inactive)
REMARK    1  A    between atoms: C_12  and  N_13 
REMARK       I    between atoms: N_13  and  C_14 
REMARK    2  A    between atoms: C_14  and  C_16 
REMARK    3  A    between atoms: C_16  and  O_17 
REMARK    4  A    between atoms: O_17  and  C_18 
REMARK    5  A    between atoms: C_18  and  C_20 
REMARK    6  A    between atoms: C_25  and  C_26 
ROOT
ATOM      1  C   UNL d   1      26.658 -14.350  -5.545  0.00  0.00     0.281 C 
ENDROOT
BRANCH   1   2
ATOM      2  C   UNL d   1      25.668 -14.602  -4.411  0.00  0.00     0.244 C 
ATOM      3  N   UNL d   1      26.036 -15.461  -3.390  0.00  0.00    -0.329 N 
ATOM      4  H   UNL d   1      26.739 -16.174  -3.530  0.00  0.00     0.165 HD
ATOM      5  O   UNL d   1      24.558 -14.078  -4.441  0.00  0.00    -0.271 OA
BRANCH   3   6
ATOM      6  C   UNL d   1      25.161 -15.620  -2.247  0.00  0.00     0.264 A 
ATOM      7  O   UNL d   1      24.478 -16.901  -2.394  0.00  0.00    -0.353 OA
ATOM      8  C   UNL d   1      24.815 -17.754  -1.267  0.00  0.00     0.152 A 
ATOM      9  C   UNL d   1      25.788 -16.966  -0.474  0.00  0.00    -0.017 A 
ATOM     10  C   UNL d   1      23.586 -18.122  -0.436  0.00  0.00     0.044 C 
ATOM     11  C   UNL d   1      25.943 -15.759  -1.009  0.00  0.00     0.066 A 
ATOM     12  C   UNL d   1      26.521 -17.459   0.716  0.00  0.00     0.105 C 
ATOM     13  C   UNL d   1      26.804 -14.786  -0.344  0.00  0.00     0.266 C 
ATOM     14  N   UNL d   1      27.566 -15.247   0.692  0.00  0.00    -0.287 N 
ATOM     15  O   UNL d   1      26.900 -13.600  -0.637  0.00  0.00    -0.266 OA
ATOM     16  N   UNL d   1      27.404 -16.467   1.356  0.00  0.00    -0.229 NA
ATOM     17  H   UNL d   1      28.115 -14.509   1.124  0.00  0.00     0.184 HD
ATOM     18  H   UNL d   1      28.343 -16.865   1.436  0.00  0.00     0.147 HD
ATOM     19  C   UNL d   1      27.406 -18.618   0.271  0.00  0.00     0.033 C 
ENDBRANCH   3   6
ENDBRANCH   1   2
BRANCH   1  20
ATOM     20  O   UNL d   1      27.440 -15.556  -5.764  0.00  0.00    -0.307 OA
BRANCH  20  21
ATOM     21  C   UNL d   1      28.770 -15.401  -5.568  0.00  0.00     0.315 C 
ATOM     22  O   UNL d   1      29.501 -14.800  -6.344  0.00  0.00    -0.257 OA
BRANCH  21  23
ATOM     23  C   UNL d   1      29.262 -15.944  -4.258  0.00  0.00     0.163 A 
ATOM     24  N   UNL d   1      28.734 -15.456  -3.093  0.00  0.00    -0.251 NA
ATOM     25  C   UNL d   1      29.078 -16.140  -1.966  0.00  0.00     0.137 A 
ATOM     26  C   UNL d   1      29.908 -17.251  -1.978  0.00  0.00     0.136 A 
ATOM     27  N   UNL d   1      30.457 -17.718  -3.118  0.00  0.00    -0.254 NA
ATOM     28  C   UNL d   1      30.120 -17.047  -4.264  0.00  0.00     0.127 A 
BRANCH  28  29
ATOM     29  C   UNL d   1      30.676 -17.610  -5.490  0.00  0.00     0.130 A 
ATOM     30  N   UNL d   1      30.353 -18.787  -5.980  0.00  0.00    -0.238 NA
ATOM     31  C   UNL d   1      30.939 -18.954  -7.217  0.00  0.00     0.075 A 
ATOM     32  C   UNL d   1      30.780 -20.078  -8.046  0.00  0.00     0.033 A 
ATOM     33  C   UNL d   1      31.749 -17.902  -7.649  0.00  0.00     0.035 A 
ATOM     34  C   UNL d   1      31.436 -20.127  -9.278  0.00  0.00     0.002 A 
ATOM     35  C   UNL d   1      32.228 -19.062  -9.698  0.00  0.00     0.002 A 
ATOM     36  C   UNL d   1      32.393 -17.927  -8.896  0.00  0.00     0.021 A 
ATOM     37  S   UNL d   1      31.800 -16.697  -6.423  0.00  0.00    -0.066 SA
ENDBRANCH  28  29
ENDBRANCH  21  23
ENDBRANCH  20  21
ENDBRANCH   1  20
TORSDOF 6
ENDMDL
MODEL 4
REMARK VINA RESULT:    -8.050      4.628      8.690
REMARK INTER + INTRA:         -12.346
REMARK INTER:                  -9.840
REMARK INTRA:                  -2.506
REMARK CONF_INDEPENDENT:        1.790
REMARK UNBOUND:                -2.506
REMARK  6 active torsions:
REMARK  status: ('A' for Active; 'I' for Inactive)
REMARK    1  A    between atoms: C_12  and  N_13 
REMARK       I    between atoms: N_13  and  C_14 
REMARK    2  A    between atoms: C_14  and  C_16 
REMARK    3  A    between atoms: C_16  and  O_17 
REMARK    4  A    between atoms: O_17  and  C_18 
REMARK    5  A    between atoms: C_18  and  C_20 
REMARK    6  A    between atoms: C_25  and  C_26 
ROOT
ATOM      1  C   UNL d   1      26.424 -14.162  -5.394  0.00  0.00     0.281 C 
ENDROOT
BRANCH   1   2
ATOM      2  C   UNL d   1      25.477 -14.451  -4.232  0.00  0.00     0.244 C 
ATOM      3  N   UNL d   1      25.811 -15.457  -3.342  0.00  0.00    -0.329 N 
ATOM      4  H   UNL d   1      26.426 -16.213  -3.609  0.00  0.00     0.165 HD
ATOM      5  O   UNL d   1      24.428 -13.822  -4.128  0.00  0.00    -0.271 OA
BRANCH   3   6
ATOM      6  C   UNL d   1      24.988 -15.666  -2.168  0.00  0.00     0.264 A 
ATOM      7  O   UNL d   1      24.359 -16.975  -2.303  0.00  0.00    -0.353 OA
ATOM      8  C   UNL d   1      24.778 -17.822  -1.199  0.00  0.00     0.152 A 
ATOM      9  C   UNL d   1      25.744 -16.997  -0.435  0.00  0.00    -0.017 A 
ATOM     10  C   UNL d   1      23.599 -18.253  -0.325  0.00  0.00     0.044 C 
ATOM     11  C   UNL d   1      25.822 -15.780  -0.962  0.00  0.00     0.066 A 
ATOM     12  C   UNL d   1      26.544 -17.466   0.721  0.00  0.00     0.105 C 
ATOM     13  C   UNL d   1      26.663 -14.774  -0.320  0.00  0.00     0.266 C 
ATOM     14  N   UNL d   1      27.484 -15.209   0.681  0.00  0.00    -0.287 N 
ATOM     15  O   UNL d   1      26.694 -13.582  -0.604  0.00  0.00    -0.266 OA
ATOM     16  N   UNL d   1      27.404 -16.441   1.338  0.00  0.00    -0.229 NA
ATOM     17  H   UNL d   1      28.016 -14.450   1.100  0.00  0.00     0.184 HD
ATOM     18  H   UNL d   1      28.362 -16.796   1.378  0.00  0.00     0.147 HD
ATOM     19  C   UNL d   1      27.462 -18.580   0.231  0.00  0.00     0.033 C 
ENDBRANCH   3   6
ENDBRANCH   1   2
BRANCH   1  20
ATOM     20  O   UNL d   1      27.128 -15.385  -5.743  0.00  0.00    -0.307 OA
BRANCH  20  21
ATOM     21  C   UNL d   1      28.352 -15.504  -5.178  0.00  0.00     0.315 C 
ATOM     22  O   UNL d   1      28.533 -15.923  -4.042  0.00  0.00    -0.257 OA
BRANCH  21  23
ATOM     23  C   UNL d   1      29.487 -15.174  -6.103  0.00  0.00     0.163 A 
ATOM     24  N   UNL d   1      29.476 -13.982  -6.775  0.00  0.00    -0.251 NA
ATOM     25  C   UNL d   1      30.630 -13.669  -7.427  0.00  0.00     0.137 A 
ATOM     26  C   UNL d   1      31.747 -14.492  -7.426  0.00  0.00     0.136 A 
ATOM     27  N   UNL d   1      31.755 -15.683  -6.792  0.00  0.00    -0.254 NA
ATOM     28  C   UNL d   1      30.604 -16.014  -6.126  0.00  0.00     0.127 A 
BRANCH  28  29
ATOM     29  C   UNL d   1      30.660 -17.277  -5.397  0.00  0.00     0.130 A 
ATOM     30  N   UNL d   1      30.355 -18.447  -5.915  0.00  0.00    -0.238 NA
ATOM     31  C   UNL d   1      30.656 -19.447  -5.015  0.00  0.00     0.075 A 
ATOM     32  C   UNL d   1      30.493 -20.824  -5.247  0.00  0.00     0.033 A 
ATOM     33  C   UNL d   1      31.161 -19.022  -3.785  0.00  0.00     0.035 A 
ATOM     34  C   UNL d   1      30.832 -21.739  -4.248  0.00  0.00     0.002 A 
ATOM     35  C   UNL d   1      31.347 -21.296  -3.032  0.00  0.00     0.002 A 
ATOM     36  C   UNL d   1      31.529 -19.932  -2.781  0.00  0.00     0.021 A 
ATOM     37  S   UNL d   1      31.203 -17.303  -3.763  0.00  0.00    -0.066 SA
ENDBRANCH  28  29
ENDBRANCH  21  23
ENDBRANCH  20  21
ENDBRANCH   1  20
TORSDOF 6
ENDMDL
MODEL 5
REMARK VINA RESULT:    -7.515      2.996      4.778
REMARK INTER + INTRA:         -13.157
REMARK INTER:                  -9.304
REMARK INTRA:                  -3.853
REMARK CONF_INDEPENDENT:        1.790
REMARK UNBOUND:                -3.853
REMARK  6 active torsions:
REMARK  status: ('A' for Active; 'I' for Inactive)
REMARK    1  A    between atoms: C_12  and  N_13 
REMARK       I    between atoms: N_13  and  C_14 
REMARK    2  A    between atoms: C_14  and  C_16 
REMARK    3  A    between atoms: C_16  and  O_17 
REMARK    4  A    between atoms: O_17  and  C_18 
REMARK    5  A    between atoms: C_18  and  C_20 
REMARK    6  A    between atoms: C_25  and  C_26 
ROOT
ATOM      1  C   UNL d   1      27.105 -12.450   1.143  0.00  0.00     0.281 C 
ENDROOT
BRANCH   1   2
ATOM      2  C   UNL d   1      27.089 -11.964  -0.303  0.00  0.00     0.244 C 
ATOM      3  N   UNL d   1      26.593 -12.810  -1.280  0.00  0.00    -0.329 N 
ATOM      4  H   UNL d   1      26.580 -13.812  -1.151  0.00  0.00     0.165 HD
ATOM      5  O   UNL d   1      27.546 -10.859  -0.582  0.00  0.00    -0.271 OA
BRANCH   3   6
ATOM      6  C   UNL d   1      26.458 -12.323  -2.638  0.00  0.00     0.264 A 
ATOM      7  O   UNL d   1      27.656 -11.549  -2.945  0.00  0.00    -0.353 OA
ATOM      8  C   UNL d   1      28.347 -12.163  -4.065  0.00  0.00     0.152 A 
ATOM      9  C   UNL d   1      27.562 -13.382  -4.372  0.00  0.00    -0.017 A 
ATOM     10  C   UNL d   1      28.426 -11.231  -5.275  0.00  0.00     0.044 C 
ATOM     11  C   UNL d   1      26.485 -13.439  -3.596  0.00  0.00     0.066 A 
ATOM     12  C   UNL d   1      27.937 -14.414  -5.367  0.00  0.00     0.105 C 
ATOM     13  C   UNL d   1      25.525 -14.523  -3.780  0.00  0.00     0.266 C 
ATOM     14  N   UNL d   1      25.898 -15.538  -4.615  0.00  0.00    -0.287 N 
ATOM     15  O   UNL d   1      24.423 -14.599  -3.250  0.00  0.00    -0.266 OA
ATOM     16  N   UNL d   1      26.966 -15.512  -5.519  0.00  0.00    -0.229 NA
ATOM     17  H   UNL d   1      25.170 -16.240  -4.718  0.00  0.00     0.184 HD
ATOM     18  H   UNL d   1      27.454 -16.403  -5.395  0.00  0.00     0.147 HD
ATOM     19  C   UNL d   1      29.249 -15.043  -4.913  0.00  0.00     0.033 C 
ENDBRANCH   3   6
ENDBRANCH   1   2
BRANCH   1  20
ATOM     20  O   UNL d   1      26.796 -13.870   1.166  0.00  0.00    -0.307 OA
BRANCH  20  21
ATOM     21  C   UNL d   1      27.866 -14.670   1.385  0.00  0.00     0.315 C 
ATOM     22  O   UNL d   1      28.156 -15.124   2.484  0.00  0.00    -0.257 OA
BRANCH  21  23
ATOM     23  C   UNL d   1      28.616 -15.042   0.139  0.00  0.00     0.163 A 
ATOM     24  N   UNL d   1      29.893 -14.583  -0.034  0.00  0.00    -0.251 NA
ATOM     25  C   UNL d   1      30.573 -15.131  -1.080  0.00  0.00     0.137 A 
ATOM     26  C   UNL d   1      30.023 -16.083  -1.926  0.00  0.00     0.136 A 
ATOM     27  N   UNL d   1      28.754 -16.516  -1.781  0.00  0.00    -0.254 NA
ATOM     28  C   UNL d   1      28.054 -15.981  -0.731  0.00  0.00     0.127 A 
BRANCH  28  29
ATOM     29  C   UNL d   1      26.707 -16.513  -0.559  0.00  0.00     0.130 A 
ATOM     30  N   UNL d   1      25.605 -15.845  -0.824  0.00  0.00    -0.238 NA
ATOM     31  C   UNL d   1      24.514 -16.678  -0.698  0.00  0.00     0.075 A 
ATOM     32  C   UNL d   1      23.179 -16.310  -0.942  0.00  0.00     0.033 A 
ATOM     33  C   UNL d   1      24.793 -17.985  -0.294  0.00  0.00     0.035 A 
ATOM     34  C   UNL d   1      22.160 -17.249  -0.772  0.00  0.00     0.002 A 
ATOM     35  C   UNL d   1      22.460 -18.552  -0.383  0.00  0.00     0.002 A 
ATOM     36  C   UNL d   1      23.780 -18.946  -0.145  0.00  0.00     0.021 A 
ATOM     37  S   UNL d   1      26.484 -18.135  -0.022  0.00  0.00    -0.066 SA
ENDBRANCH  28  29
ENDBRANCH  21  23
ENDBRANCH  20  21
ENDBRANCH   1  20
TORSDOF 6
ENDMDL
MODEL 6
REMARK VINA RESULT:    -7.291      3.493      6.773
REMARK INTER + INTRA:         -12.492
REMARK INTER:                  -9.080
REMARK INTRA:                  -3.411
REMARK CONF_INDEPENDENT:        1.790
REMARK UNBOUND:                -3.411
REMARK  6 active torsions:
REMARK  status: ('A' for Active; 'I' for Inactive)
REMARK    1  A    between atoms: C_12  and  N_13 
REMARK       I    between atoms: N_13  and  C_14 
REMARK    2  A    between atoms: C_14  and  C_16 
REMARK    3  A    between atoms: C_16  and  O_17 
REMARK    4  A    between atoms: O_17  and  C_18 
REMARK    5  A    between atoms: C_18  and  C_20 
REMARK    6  A    between atoms: C_25  and  C_26 
ROOT
ATOM      1  C   UNL d   1      28.119 -14.832  -6.278  0.00  0.00     0.281 C 
ENDROOT
BRANCH   1   2
ATOM      2  C   UNL d   1      29.410 -14.619  -5.493  0.00  0.00     0.244 C 
ATOM      3  N   UNL d   1      29.525 -15.194  -4.240  0.00  0.00    -0.329 N 
ATOM      4  H   UNL d   1      28.709 -15.429  -3.692  0.00  0.00     0.165 HD
ATOM      5  O   UNL d   1      30.302 -13.916  -5.962  0.00  0.00    -0.271 OA
BRANCH   3   6
ATOM      6  C   UNL d   1      30.785 -15.104  -3.531  0.00  0.00     0.264 A 
ATOM      7  O   UNL d   1      31.070 -13.688  -3.326  0.00  0.00    -0.353 OA
ATOM      8  C   UNL d   1      31.145 -13.417  -1.900  0.00  0.00     0.152 A 
ATOM      9  C   UNL d   1      30.818 -14.709  -1.252  0.00  0.00    -0.017 A 
ATOM     10  C   UNL d   1      32.528 -12.918  -1.480  0.00  0.00     0.044 C 
ATOM     11  C   UNL d   1      30.659 -15.655  -2.173  0.00  0.00     0.066 A 
ATOM     12  C   UNL d   1      30.646 -14.917   0.205  0.00  0.00     0.105 C 
ATOM     13  C   UNL d   1      30.403 -17.029  -1.752  0.00  0.00     0.266 C 
ATOM     14  N   UNL d   1      30.140 -17.226  -0.426  0.00  0.00    -0.287 N 
ATOM     15  O   UNL d   1      30.403 -18.012  -2.484  0.00  0.00    -0.266 OA
ATOM     16  N   UNL d   1      30.364 -16.307   0.605  0.00  0.00    -0.229 NA
ATOM     17  H   UNL d   1      30.002 -18.208  -0.203  0.00  0.00     0.184 HD
ATOM     18  H   UNL d   1      29.514 -16.320   1.175  0.00  0.00     0.147 HD
ATOM     19  C   UNL d   1      29.458 -14.076   0.658  0.00  0.00     0.033 C 
ENDBRANCH   3   6
ENDBRANCH   1   2
BRANCH   1  20
ATOM     20  O   UNL d   1      27.140 -15.467  -5.411  0.00  0.00    -0.307 OA
BRANCH  20  21
ATOM     21  C   UNL d   1      26.207 -14.623  -4.911  0.00  0.00     0.315 C 
ATOM     22  O   UNL d   1      25.003 -14.825  -4.991  0.00  0.00    -0.257 OA
BRANCH  21  23
ATOM     23  C   UNL d   1      26.778 -13.460  -4.154  0.00  0.00     0.163 A 
ATOM     24  N   UNL d   1      27.218 -12.363  -4.845  0.00  0.00    -0.251 NA
ATOM     25  C   UNL d   1      27.525 -11.277  -4.083  0.00  0.00     0.137 A 
ATOM     26  C   UNL d   1      27.413 -11.267  -2.700  0.00  0.00     0.136 A 
ATOM     27  N   UNL d   1      27.012 -12.354  -2.010  0.00  0.00    -0.254 NA
ATOM     28  C   UNL d   1      26.693 -13.456  -2.759  0.00  0.00     0.127 A 
BRANCH  28  29
ATOM     29  C   UNL d   1      26.202 -14.596  -1.993  0.00  0.00     0.130 A 
ATOM     30  N   UNL d   1      24.939 -14.957  -1.926  0.00  0.00    -0.238 NA
ATOM     31  C   UNL d   1      24.831 -16.153  -1.248  0.00  0.00     0.075 A 
ATOM     32  C   UNL d   1      23.634 -16.853  -1.020  0.00  0.00     0.033 A 
ATOM     33  C   UNL d   1      26.029 -16.682  -0.762  0.00  0.00     0.035 A 
ATOM     34  C   UNL d   1      23.659 -18.056  -0.311  0.00  0.00     0.002 A 
ATOM     35  C   UNL d   1      24.865 -18.575   0.153  0.00  0.00     0.002 A 
ATOM     36  C   UNL d   1      26.071 -17.903  -0.070  0.00  0.00     0.021 A 
ATOM     37  S   UNL d   1      27.311 -15.600  -1.139  0.00  0.00    -0.066 SA
ENDBRANCH  28  29
ENDBRANCH  21  23
ENDBRANCH  20  21
ENDBRANCH   1  20
TORSDOF 6
ENDMDL
MODEL 7
REMARK VINA RESULT:    -7.159      3.850      7.895
REMARK INTER + INTRA:         -12.735
REMARK INTER:                  -8.948
REMARK INTRA:                  -3.787
REMARK CONF_INDEPENDENT:        1.790
REMARK UNBOUND:                -3.787
REMARK  6 active torsions:
REMARK  status: ('A' for Active; 'I' for Inactive)
REMARK    1  A    between atoms: C_12  and  N_13 
REMARK       I    between atoms: N_13  and  C_14 
REMARK    2  A    between atoms: C_14  and  C_16 
REMARK    3  A    between atoms: C_16  and  O_17 
REMARK    4  A    between atoms: O_17  and  C_18 
REMARK    5  A    between atoms: C_18  and  C_20 
REMARK    6  A    between atoms: C_25  and  C_26 
ROOT
ATOM      1  C   UNL d   1      28.911 -17.107  -0.900  0.00  0.00     0.281 C 
ENDROOT
BRANCH   1   2
ATOM      2  C   UNL d   1      29.179 -15.684  -0.415  0.00  0.00     0.244 C 
ATOM      3  N   UNL d   1      28.223 -15.061   0.366  0.00  0.00    -0.329 N 
ATOM      4  H   UNL d   1      27.252 -15.340   0.333  0.00  0.00     0.165 HD
ATOM      5  O   UNL d   1      30.209 -15.106  -0.754  0.00  0.00    -0.271 OA
BRANCH   3   6
ATOM      6  C   UNL d   1      28.509 -13.759   0.934  0.00  0.00     0.264 A 
ATOM      7  O   UNL d   1      27.232 -13.125   1.240  0.00  0.00    -0.353 OA
ATOM      8  C   UNL d   1      27.158 -12.864   2.668  0.00  0.00     0.152 A 
ATOM      9  C   UNL d   1      28.408 -13.436   3.222  0.00  0.00    -0.017 A 
ATOM     10  C   UNL d   1      27.043 -11.371   2.975  0.00  0.00     0.044 C 
ATOM     11  C   UNL d   1      29.175 -13.896   2.239  0.00  0.00     0.066 A 
ATOM     12  C   UNL d   1      28.743 -13.526   4.663  0.00  0.00     0.105 C 
ATOM     13  C   UNL d   1      30.493 -14.438   2.553  0.00  0.00     0.266 C 
ATOM     14  N   UNL d   1      30.781 -14.625   3.875  0.00  0.00    -0.287 N 
ATOM     15  O   UNL d   1      31.355 -14.738   1.735  0.00  0.00    -0.266 OA
ATOM     16  N   UNL d   1      30.068 -14.099   4.958  0.00  0.00    -0.229 NA
ATOM     17  H   UNL d   1      31.725 -14.976   4.018  0.00  0.00     0.184 HD
ATOM     18  H   UNL d   1      29.953 -14.874   5.615  0.00  0.00     0.147 HD
ATOM     19  C   UNL d   1      27.711 -14.432   5.325  0.00  0.00     0.033 C 
ENDBRANCH   3   6
ENDBRANCH   1   2
BRANCH   1  20
ATOM     20  O   UNL d   1      27.490 -17.253  -1.167  0.00  0.00    -0.307 OA
BRANCH  20  21
ATOM     21  C   UNL d   1      26.731 -17.435  -0.061  0.00  0.00     0.315 C 
ATOM     22  O   UNL d   1      27.177 -17.393   1.077  0.00  0.00    -0.257 OA
BRANCH  21  23
ATOM     23  C   UNL d   1      25.266 -17.591  -0.345  0.00  0.00     0.163 A 
ATOM     24  N   UNL d   1      24.562 -18.575   0.295  0.00  0.00    -0.251 NA
ATOM     25  C   UNL d   1      23.210 -18.518   0.143  0.00  0.00     0.137 A 
ATOM     26  C   UNL d   1      22.573 -17.542  -0.610  0.00  0.00     0.136 A 
ATOM     27  N   UNL d   1      23.262 -16.589  -1.270  0.00  0.00    -0.254 NA
ATOM     28  C   UNL d   1      24.624 -16.626  -1.126  0.00  0.00     0.127 A 
BRANCH  28  29
ATOM     29  C   UNL d   1      25.340 -15.547  -1.798  0.00  0.00     0.130 A 
ATOM     30  N   UNL d   1      25.905 -14.533  -1.180  0.00  0.00    -0.238 NA
ATOM     31  C   UNL d   1      26.622 -13.778  -2.084  0.00  0.00     0.075 A 
ATOM     32  C   UNL d   1      27.384 -12.639  -1.768  0.00  0.00     0.033 A 
ATOM     33  C   UNL d   1      26.564 -14.207  -3.412  0.00  0.00     0.035 A 
ATOM     34  C   UNL d   1      28.061 -11.957  -2.780  0.00  0.00     0.002 A 
ATOM     35  C   UNL d   1      28.003 -12.408  -4.096  0.00  0.00     0.002 A 
ATOM     36  C   UNL d   1      27.261 -13.545  -4.435  0.00  0.00     0.021 A 
ATOM     37  S   UNL d   1      25.530 -15.577  -3.510  0.00  0.00    -0.066 SA
ENDBRANCH  28  29
ENDBRANCH  21  23
ENDBRANCH  20  21
ENDBRANCH   1  20
TORSDOF 6
ENDMDL
MODEL 8
REMARK VINA RESULT:    -7.031      3.385      6.385
REMARK INTER + INTRA:         -13.387
REMARK INTER:                  -8.821
REMARK INTRA:                  -4.566
REMARK CONF_INDEPENDENT:        1.790
REMARK UNBOUND:                -4.566
REMARK  6 active torsions:
REMARK  status: ('A' for Active; 'I' for Inactive)
REMARK    1  A    between atoms: C_12  and  N_13 
REMARK       I    between atoms: N_13  and  C_14 
REMARK    2  A    between atoms: C_14  and  C_16 
REMARK    3  A    between atoms: C_16  and  O_17 
REMARK    4  A    between atoms: O_17  and  C_18 
REMARK    5  A    between atoms: C_18  and  C_20 
REMARK    6  A    between atoms: C_25  and  C_26 
ROOT
ATOM      1  C   UNL d   1      29.082 -14.667  -5.757  0.00  0.00     0.281 C 
ENDROOT
BRANCH   1   2
ATOM      2  C   UNL d   1      29.542 -13.718  -4.653  0.00  0.00     0.244 C 
ATOM      3  N   UNL d   1      29.224 -14.026  -3.342  0.00  0.00    -0.329 N 
ATOM      4  H   UNL d   1      28.436 -14.617  -3.116  0.00  0.00     0.165 HD
ATOM      5  O   UNL d   1      30.145 -12.688  -4.943  0.00  0.00    -0.271 OA
BRANCH   3   6
ATOM      6  C   UNL d   1      29.753 -13.204  -2.272  0.00  0.00     0.264 A 
ATOM      7  O   UNL d   1      28.953 -11.985  -2.222  0.00  0.00    -0.353 OA
ATOM      8  C   UNL d   1      28.310 -11.888  -0.923  0.00  0.00     0.152 A 
ATOM      9  C   UNL d   1      28.692 -13.135  -0.219  0.00  0.00    -0.017 A 
ATOM     10  C   UNL d   1      28.761 -10.650  -0.147  0.00  0.00     0.044 C 
ATOM     11  C   UNL d   1      29.532 -13.844  -0.966  0.00  0.00     0.066 A 
ATOM     12  C   UNL d   1      28.182 -13.561   1.106  0.00  0.00     0.105 C 
ATOM     13  C   UNL d   1      30.097 -15.080  -0.434  0.00  0.00     0.266 C 
ATOM     14  N   UNL d   1      29.566 -15.543   0.737  0.00  0.00    -0.287 N 
ATOM     15  O   UNL d   1      30.999 -15.731  -0.947  0.00  0.00    -0.266 OA
ATOM     16  N   UNL d   1      28.747 -14.824   1.613  0.00  0.00    -0.229 NA
ATOM     17  H   UNL d   1      30.029 -16.389   1.061  0.00  0.00     0.184 HD
ATOM     18  H   UNL d   1      27.979 -15.455   1.853  0.00  0.00     0.147 HD
ATOM     19  C   UNL d   1      26.676 -13.767   0.981  0.00  0.00     0.033 C 
ENDBRANCH   3   6
ENDBRANCH   1   2
BRANCH   1  20
ATOM     20  O   UNL d   1      28.088 -15.576  -5.212  0.00  0.00    -0.307 OA
BRANCH  20  21
ATOM     21  C   UNL d   1      26.813 -15.133  -5.313  0.00  0.00     0.315 C 
ATOM     22  O   UNL d   1      25.899 -15.806  -5.770  0.00  0.00    -0.257 OA
BRANCH  21  23
ATOM     23  C   UNL d   1      26.589 -13.774  -4.716  0.00  0.00     0.163 A 
ATOM     24  N   UNL d   1      26.691 -12.668  -5.516  0.00  0.00    -0.251 NA
ATOM     25  C   UNL d   1      26.273 -11.500  -4.953  0.00  0.00     0.137 A 
ATOM     26  C   UNL d   1      25.782 -11.417  -3.659  0.00  0.00     0.136 A 
ATOM     27  N   UNL d   1      25.708 -12.497  -2.854  0.00  0.00    -0.254 NA
ATOM     28  C   UNL d   1      26.120 -13.683  -3.403  0.00  0.00     0.127 A 
BRANCH  28  29
ATOM     29  C   UNL d   1      25.971 -14.845  -2.533  0.00  0.00     0.130 A 
ATOM     30  N   UNL d   1      26.973 -15.477  -1.962  0.00  0.00    -0.238 NA
ATOM     31  C   UNL d   1      26.487 -16.429  -1.091  0.00  0.00     0.075 A 
ATOM     32  C   UNL d   1      27.274 -17.267  -0.282  0.00  0.00     0.033 A 
ATOM     33  C   UNL d   1      25.096 -16.542  -1.032  0.00  0.00     0.035 A 
ATOM     34  C   UNL d   1      26.657 -18.198   0.557  0.00  0.00     0.002 A 
ATOM     35  C   UNL d   1      25.268 -18.286   0.612  0.00  0.00     0.002 A 
ATOM     36  C   UNL d   1      24.463 -17.455  -0.175  0.00  0.00     0.021 A 
ATOM     37  S   UNL d   1      24.400 -15.440  -2.154  0.00  0.00    -0.066 SA
ENDBRANCH  28  29
ENDBRANCH  21  23
ENDBRANCH  20  21
ENDBRANCH   1  20
TORSDOF 6
ENDMDL
