MODEL 1
REMARK VINA RESULT:    -7.591      0.000      0.000
REMARK INTER + INTRA:          -9.453
REMARK INTER:                  -8.784
REMARK INTRA:                  -0.669
REMARK CONF_INDEPENDENT:        1.193
REMARK UNBOUND:                -0.669
REMARK  4 active torsions:
REMARK  status: ('A' for Active; 'I' for Inactive)
REMARK       I    between atoms: C_2  and  N_3 
REMARK    1  A    between atoms: C_2  and  C_12 
REMARK    2  A    between atoms: N_3  and  N_4 
REMARK    3  A    between atoms: N_4  and  C_5 
REMARK    4  A    between atoms: C_8  and  O_9 
ROOT
ATOM      1  O   UNL d   1      22.395 -15.945  -0.911  0.00  0.00    -0.266 OA
ATOM      2  C   UNL d   1      22.955 -17.035  -0.778  0.00  0.00     0.270 C 
ATOM      3  N   UNL d   1      22.272 -18.240  -0.662  0.00  0.00    -0.265 N 
ATOM      4  H   UNL d   1      22.735 -19.141  -0.620  0.00  0.00     0.190 HD
ENDROOT
BRANCH   3   5
ATOM      5  N   UNL d   1      20.891 -18.241  -0.895  0.00  0.00    -0.298 N 
ATOM      6  H   UNL d   1      20.497 -17.458  -1.420  0.00  0.00     0.187 HD
BRANCH   5   7
ATOM      7  C   UNL d   1      20.051 -19.119  -0.196  0.00  0.00     0.048 A 
ATOM      8  C   UNL d   1      20.276 -19.511   1.131  0.00  0.00     0.034 A 
ATOM      9  C   UNL d   1      19.447 -20.450   1.770  0.00  0.00     0.039 A 
ATOM     10  C   UNL d   1      18.391 -21.024   1.072  0.00  0.00     0.065 A 
ATOM     11  C   UNL d   1      18.148 -20.661  -0.244  0.00  0.00     0.039 A 
ATOM     12  C   UNL d   1      18.964 -19.705  -0.867  0.00  0.00     0.034 A 
BRANCH  10  13
ATOM     13  O   UNL d   1      17.562 -21.950   1.635  0.00  0.00    -0.361 OA
ATOM     14  H   UNL d   1      17.407 -22.673   1.005  0.00  0.00     0.217 HD
ENDBRANCH  10  13
ENDBRANCH   5   7
ENDBRANCH   3   5
BRANCH   2  15
ATOM     15  C   UNL d   1      24.447 -17.083  -0.683  0.00  0.00     0.033 A 
ATOM     16  C   UNL d   1      25.184 -16.042  -1.272  0.00  0.00     0.018 A 
ATOM     17  C   UNL d   1      26.584 -16.036  -1.221  0.00  0.00     0.020 A 
ATOM     18  C   UNL d   1      27.257 -17.085  -0.602  0.00  0.00     0.011 A 
ATOM     19 BR   UNL d   1      29.147 -17.072  -0.522  0.00  0.00    -0.051 Br
ATOM     20  C   UNL d   1      26.540 -18.145  -0.044  0.00  0.00     0.020 A 
ATOM     21  C   UNL d   1      25.135 -18.147  -0.083  0.00  0.00     0.018 A 
ENDBRANCH   2  15
TORSDOF 4
ENDMDL
MODEL 2
REMARK VINA RESULT:    -7.243      3.623      7.587
REMARK INTER + INTRA:          -8.915
REMARK INTER:                  -8.436
REMARK INTRA:                  -0.479
REMARK CONF_INDEPENDENT:        1.193
REMARK UNBOUND:                -0.479
REMARK  4 active torsions:
REMARK  status: ('A' for Active; 'I' for Inactive)
REMARK       I    between atoms: C_2  and  N_3 
REMARK    1  A    between atoms: C_2  and  C_12 
REMARK    2  A    between atoms: N_3  and  N_4 
REMARK    3  A    between atoms: N_4  and  C_5 
REMARK    4  A    between atoms: C_8  and  O_9 
ROOT
ATOM      1  O   UNL d   1      23.367 -18.446  -1.882  0.00  0.00    -0.266 OA
ATOM      2  C   UNL d   1      22.702 -17.984  -0.952  0.00  0.00     0.270 C 
ATOM      3  N   UNL d   1      23.008 -16.792  -0.306  0.00  0.00    -0.265 N 
ATOM      4  H   UNL d   1      22.423 -16.382   0.412  0.00  0.00     0.190 HD
ENDROOT
BRANCH   3   5
ATOM      5  N   UNL d   1      24.007 -15.981  -0.857  0.00  0.00    -0.298 N 
ATOM      6  H   UNL d   1      23.722 -15.259  -1.522  0.00  0.00     0.187 HD
BRANCH   5   7
ATOM      7  C   UNL d   1      25.359 -16.329  -0.728  0.00  0.00     0.048 A 
ATOM      8  C   UNL d   1      25.819 -17.337   0.132  0.00  0.00     0.034 A 
ATOM      9  C   UNL d   1      27.192 -17.604   0.282  0.00  0.00     0.039 A 
ATOM     10  C   UNL d   1      28.122 -16.844  -0.417  0.00  0.00     0.065 A 
ATOM     11  C   UNL d   1      27.697 -15.836  -1.270  0.00  0.00     0.039 A 
ATOM     12  C   UNL d   1      26.326 -15.592  -1.434  0.00  0.00     0.034 A 
BRANCH  10  13
ATOM     13  O   UNL d   1      29.466 -17.048  -0.300  0.00  0.00    -0.361 OA
ATOM     14  H   UNL d   1      29.629 -17.840   0.236  0.00  0.00     0.217 HD
ENDBRANCH  10  13
ENDBRANCH   5   7
ENDBRANCH   3   5
BRANCH   2  15
ATOM     15  C   UNL d   1      21.528 -18.757  -0.441  0.00  0.00     0.033 A 
ATOM     16  C   UNL d   1      21.411 -18.950   0.946  0.00  0.00     0.018 A 
ATOM     17  C   UNL d   1      20.336 -19.672   1.482  0.00  0.00     0.020 A 
ATOM     18  C   UNL d   1      19.385 -20.227   0.631  0.00  0.00     0.011 A 
ATOM     19 BR   UNL d   1      17.926 -21.191   1.355  0.00  0.00    -0.051 Br
ATOM     20  C   UNL d   1      19.506 -20.075  -0.751  0.00  0.00     0.020 A 
ATOM     21  C   UNL d   1      20.577 -19.341  -1.291  0.00  0.00     0.018 A 
ENDBRANCH   2  15
TORSDOF 4
ENDMDL
MODEL 3
REMARK VINA RESULT:    -7.018      1.966      2.544
REMARK INTER + INTRA:          -8.928
REMARK INTER:                  -8.211
REMARK INTRA:                  -0.718
REMARK CONF_INDEPENDENT:        1.193
REMARK UNBOUND:                -0.718
REMARK  4 active torsions:
REMARK  status: ('A' for Active; 'I' for Inactive)
REMARK       I    between atoms: C_2  and  N_3 
REMARK    1  A    between atoms: C_2  and  C_12 
REMARK    2  A    between atoms: N_3  and  N_4 
REMARK    3  A    between atoms: N_4  and  C_5 
REMARK    4  A    between atoms: C_8  and  O_9 
ROOT
ATOM      1  O   UNL d   1      25.024 -18.230   0.442  0.00  0.00    -0.266 OA
ATOM      2  C   UNL d   1      24.284 -17.613  -0.328  0.00  0.00     0.270 C 
ATOM      3  N   UNL d   1      22.910 -17.810  -0.396  0.00  0.00    -0.265 N 
ATOM      4  H   UNL d   1      22.296 -17.256  -0.980  0.00  0.00     0.190 HD
ENDROOT
BRANCH   3   5
ATOM      5  N   UNL d   1      22.309 -18.610   0.584  0.00  0.00    -0.298 N 
ATOM      6  H   UNL d   1      22.902 -18.971   1.334  0.00  0.00     0.187 HD
BRANCH   5   7
ATOM      7  C   UNL d   1      21.022 -19.130   0.388  0.00  0.00     0.048 A 
ATOM      8  C   UNL d   1      20.275 -19.747   1.403  0.00  0.00     0.034 A 
ATOM      9  C   UNL d   1      19.016 -20.318   1.144  0.00  0.00     0.039 A 
ATOM     10  C   UNL d   1      18.501 -20.295  -0.147  0.00  0.00     0.065 A 
ATOM     11  C   UNL d   1      19.220 -19.697  -1.172  0.00  0.00     0.039 A 
ATOM     12  C   UNL d   1      20.464 -19.107  -0.901  0.00  0.00     0.034 A 
BRANCH  10  13
ATOM     13  O   UNL d   1      17.293 -20.844  -0.461  0.00  0.00    -0.361 OA
ATOM     14  H   UNL d   1      17.309 -21.162  -1.378  0.00  0.00     0.217 HD
ENDBRANCH  10  13
ENDBRANCH   5   7
ENDBRANCH   3   5
BRANCH   2  15
ATOM     15  C   UNL d   1      24.882 -16.631  -1.284  0.00  0.00     0.033 A 
ATOM     16  C   UNL d   1      26.265 -16.697  -1.527  0.00  0.00     0.018 A 
ATOM     17  C   UNL d   1      26.883 -15.799  -2.407  0.00  0.00     0.020 A 
ATOM     18  C   UNL d   1      26.125 -14.812  -3.031  0.00  0.00     0.011 A 
ATOM     19 BR   UNL d   1      26.955 -13.606  -4.229  0.00  0.00    -0.051 Br
ATOM     20  C   UNL d   1      24.757 -14.710  -2.771  0.00  0.00     0.020 A 
ATOM     21  C   UNL d   1      24.133 -15.617  -1.898  0.00  0.00     0.018 A 
ENDBRANCH   2  15
TORSDOF 4
ENDMDL
MODEL 4
REMARK VINA RESULT:    -6.606      4.575      8.803
REMARK INTER + INTRA:          -8.514
REMARK INTER:                  -7.800
REMARK INTRA:                  -0.715
REMARK CONF_INDEPENDENT:        1.193
REMARK UNBOUND:                -0.715
REMARK  4 active torsions:
REMARK  status: ('A' for Active; 'I' for Inactive)
REMARK       I    between atoms: C_2  and  N_3 
REMARK    1  A    between atoms: C_2  and  C_12 
REMARK    2  A    between atoms: N_3  and  N_4 
REMARK    3  A    between atoms: N_4  and  C_5 
REMARK    4  A    between atoms: C_8  and  O_9 
ROOT
ATOM      1  O   UNL d   1      26.206 -16.332   0.082  0.00  0.00    -0.266 OA
ATOM      2  C   UNL d   1      25.573 -16.620  -0.936  0.00  0.00     0.270 C 
ATOM      3  N   UNL d   1      26.015 -16.334  -2.222  0.00  0.00    -0.265 N 
ATOM      4  H   UNL d   1      25.525 -16.631  -3.058  0.00  0.00     0.190 HD
ENDROOT
BRANCH   3   5
ATOM      5  N   UNL d   1      27.325 -15.866  -2.381  0.00  0.00    -0.298 N 
ATOM      6  H   UNL d   1      27.839 -15.595  -1.540  0.00  0.00     0.187 HD
BRANCH   5   7
ATOM      7  C   UNL d   1      27.806 -15.512  -3.649  0.00  0.00     0.048 A 
ATOM      8  C   UNL d   1      29.119 -15.762  -4.074  0.00  0.00     0.034 A 
ATOM      9  C   UNL d   1      29.579 -15.325  -5.330  0.00  0.00     0.039 A 
ATOM     10  C   UNL d   1      28.728 -14.610  -6.165  0.00  0.00     0.065 A 
ATOM     11  C   UNL d   1      27.427 -14.343  -5.769  0.00  0.00     0.039 A 
ATOM     12  C   UNL d   1      26.967 -14.804  -4.526  0.00  0.00     0.034 A 
BRANCH  10  13
ATOM     13  O   UNL d   1      29.123 -14.150  -7.387  0.00  0.00    -0.361 OA
ATOM     14  H   UNL d   1      28.890 -14.799  -8.070  0.00  0.00     0.217 HD
ENDBRANCH  10  13
ENDBRANCH   5   7
ENDBRANCH   3   5
BRANCH   2  15
ATOM     15  C   UNL d   1      24.232 -17.268  -0.801  0.00  0.00     0.033 A 
ATOM     16  C   UNL d   1      24.182 -18.643  -0.514  0.00  0.00     0.018 A 
ATOM     17  C   UNL d   1      22.955 -19.305  -0.384  0.00  0.00     0.020 A 
ATOM     18  C   UNL d   1      21.768 -18.601  -0.565  0.00  0.00     0.011 A 
ATOM     19 BR   UNL d   1      20.109 -19.492  -0.377  0.00  0.00    -0.051 Br
ATOM     20  C   UNL d   1      21.800 -17.243  -0.887  0.00  0.00     0.020 A 
ATOM     21  C   UNL d   1      23.030 -16.573  -1.006  0.00  0.00     0.018 A 
ENDBRANCH   2  15
TORSDOF 4
ENDMDL
MODEL 5
REMARK VINA RESULT:    -6.304      5.403      7.284
REMARK INTER + INTRA:          -7.993
REMARK INTER:                  -7.497
REMARK INTRA:                  -0.496
REMARK CONF_INDEPENDENT:        1.193
REMARK UNBOUND:                -0.496
REMARK  4 active torsions:
REMARK  status: ('A' for Active; 'I' for Inactive)
REMARK       I    between atoms: C_2  and  N_3 
REMARK    1  A    between atoms: C_2  and  C_12 
REMARK    2  A    between atoms: N_3  and  N_4 
REMARK    3  A    between atoms: N_4  and  C_5 
REMARK    4  A    between atoms: C_8  and  O_9 
ROOT
ATOM      1  O   UNL d   1      26.525 -13.288   1.875  0.00  0.00    -0.266 OA
ATOM      2  C   UNL d   1      27.369 -14.035   2.376  0.00  0.00     0.270 C 
ATOM      3  N   UNL d   1      27.854 -15.176   1.748  0.00  0.00    -0.265 N 
ATOM      4  H   UNL d   1      28.595 -15.750   2.132  0.00  0.00     0.190 HD
ENDROOT
BRANCH   3   5
ATOM      5  N   UNL d   1      27.511 -15.387   0.407  0.00  0.00    -0.298 N 
ATOM      6  H   UNL d   1      27.859 -14.720  -0.285  0.00  0.00     0.187 HD
BRANCH   5   7
ATOM      7  C   UNL d   1      26.502 -16.299   0.065  0.00  0.00     0.048 A 
ATOM      8  C   UNL d   1      25.320 -15.931  -0.594  0.00  0.00     0.034 A 
ATOM      9  C   UNL d   1      24.303 -16.868  -0.853  0.00  0.00     0.039 A 
ATOM     10  C   UNL d   1      24.454 -18.184  -0.432  0.00  0.00     0.065 A 
ATOM     11  C   UNL d   1      25.609 -18.575   0.228  0.00  0.00     0.039 A 
ATOM     12  C   UNL d   1      26.630 -17.641   0.461  0.00  0.00     0.034 A 
BRANCH  10  13
ATOM     13  O   UNL d   1      23.496 -19.132  -0.643  0.00  0.00    -0.361 OA
ATOM     14  H   UNL d   1      23.283 -19.571   0.196  0.00  0.00     0.217 HD
ENDBRANCH  10  13
ENDBRANCH   5   7
ENDBRANCH   3   5
BRANCH   2  15
ATOM     15  C   UNL d   1      27.874 -13.745   3.753  0.00  0.00     0.033 A 
ATOM     16  C   UNL d   1      28.285 -14.825   4.552  0.00  0.00     0.018 A 
ATOM     17  C   UNL d   1      28.761 -14.616   5.854  0.00  0.00     0.020 A 
ATOM     18  C   UNL d   1      28.805 -13.326   6.373  0.00  0.00     0.011 A 
ATOM     19 BR   UNL d   1      29.459 -13.040   8.125  0.00  0.00    -0.051 Br
ATOM     20  C   UNL d   1      28.366 -12.246   5.605  0.00  0.00     0.020 A 
ATOM     21  C   UNL d   1      27.900 -12.452   4.295  0.00  0.00     0.018 A 
ENDBRANCH   2  15
TORSDOF 4
ENDMDL
MODEL 6
REMARK VINA RESULT:    -6.293      4.539      8.091
REMARK INTER + INTRA:          -7.930
REMARK INTER:                  -7.486
REMARK INTRA:                  -0.444
REMARK CONF_INDEPENDENT:        1.193
REMARK UNBOUND:                -0.444
REMARK  4 active torsions:
REMARK  status: ('A' for Active; 'I' for Inactive)
REMARK       I    between atoms: C_2  and  N_3 
REMARK    1  A    between atoms: C_2  and  C_12 
REMARK    2  A    between atoms: N_3  and  N_4 
REMARK    3  A    between atoms: N_4  and  C_5 
REMARK    4  A    between atoms: C_8  and  O_9 
ROOT
ATOM      1  O   UNL d   1      26.155 -15.712  -1.253  0.00  0.00    -0.266 OA
ATOM      2  C   UNL d   1      25.837 -16.534  -0.391  0.00  0.00     0.270 C 
ATOM      3  N   UNL d   1      26.652 -16.875   0.683  0.00  0.00    -0.265 N 
ATOM      4  H   UNL d   1      26.362 -17.500   1.425  0.00  0.00     0.190 HD
ENDROOT
BRANCH   3   5
ATOM      5  N   UNL d   1      27.807 -16.115   0.901  0.00  0.00    -0.298 N 
ATOM      6  H   UNL d   1      28.705 -16.604   0.910  0.00  0.00     0.187 HD
BRANCH   5   7
ATOM      7  C   UNL d   1      27.715 -14.798   1.373  0.00  0.00     0.048 A 
ATOM      8  C   UNL d   1      27.783 -14.457   2.732  0.00  0.00     0.034 A 
ATOM      9  C   UNL d   1      27.613 -13.130   3.165  0.00  0.00     0.039 A 
ATOM     10  C   UNL d   1      27.351 -12.130   2.236  0.00  0.00     0.065 A 
ATOM     11  C   UNL d   1      27.272 -12.438   0.886  0.00  0.00     0.039 A 
ATOM     12  C   UNL d   1      27.467 -13.760   0.459  0.00  0.00     0.034 A 
BRANCH  10  13
ATOM     13  O   UNL d   1      27.164 -10.828   2.599  0.00  0.00    -0.361 OA
ATOM     14  H   UNL d   1      27.954 -10.312   2.372  0.00  0.00     0.217 HD
ENDBRANCH  10  13
ENDBRANCH   5   7
ENDBRANCH   3   5
BRANCH   2  15
ATOM     15  C   UNL d   1      24.531 -17.253  -0.513  0.00  0.00     0.033 A 
ATOM     16  C   UNL d   1      23.377 -16.495  -0.772  0.00  0.00     0.018 A 
ATOM     17  C   UNL d   1      22.124 -17.112  -0.890  0.00  0.00     0.020 A 
ATOM     18  C   UNL d   1      22.015 -18.489  -0.724  0.00  0.00     0.011 A 
ATOM     19 BR   UNL d   1      20.327 -19.325  -0.895  0.00  0.00    -0.051 Br
ATOM     20  C   UNL d   1      23.147 -19.252  -0.430  0.00  0.00     0.020 A 
ATOM     21  C   UNL d   1      24.406 -18.637  -0.324  0.00  0.00     0.018 A 
ENDBRANCH   2  15
TORSDOF 4
ENDMDL
MODEL 7
REMARK VINA RESULT:    -6.271      4.753      8.567
REMARK INTER + INTRA:          -8.161
REMARK INTER:                  -7.464
REMARK INTRA:                  -0.697
REMARK CONF_INDEPENDENT:        1.193
REMARK UNBOUND:                -0.697
REMARK  4 active torsions:
REMARK  status: ('A' for Active; 'I' for Inactive)
REMARK       I    between atoms: C_2  and  N_3 
REMARK    1  A    between atoms: C_2  and  C_12 
REMARK    2  A    between atoms: N_3  and  N_4 
REMARK    3  A    between atoms: N_4  and  C_5 
REMARK    4  A    between atoms: C_8  and  O_9 
ROOT
ATOM      1  O   UNL d   1      26.205 -15.561  -2.054  0.00  0.00    -0.266 OA
ATOM      2  C   UNL d   1      25.878 -16.003  -0.951  0.00  0.00     0.270 C 
ATOM      3  N   UNL d   1      26.618 -15.801   0.208  0.00  0.00    -0.265 N 
ATOM      4  H   UNL d   1      26.313 -16.108   1.124  0.00  0.00     0.190 HD
ENDROOT
BRANCH   3   5
ATOM      5  N   UNL d   1      27.687 -14.898   0.160  0.00  0.00    -0.298 N 
ATOM      6  H   UNL d   1      28.044 -14.632  -0.760  0.00  0.00     0.187 HD
BRANCH   5   7
ATOM      7  C   UNL d   1      28.420 -14.599   1.317  0.00  0.00     0.048 A 
ATOM      8  C   UNL d   1      29.818 -14.692   1.391  0.00  0.00     0.034 A 
ATOM      9  C   UNL d   1      30.506 -14.451   2.594  0.00  0.00     0.039 A 
ATOM     10  C   UNL d   1      29.793 -14.134   3.745  0.00  0.00     0.065 A 
ATOM     11  C   UNL d   1      28.410 -14.041   3.702  0.00  0.00     0.039 A 
ATOM     12  C   UNL d   1      27.732 -14.258   2.493  0.00  0.00     0.034 A 
BRANCH  10  13
ATOM     13  O   UNL d   1      30.405 -13.903   4.941  0.00  0.00    -0.361 OA
ATOM     14  H   UNL d   1      31.363 -14.031   4.846  0.00  0.00     0.217 HD
ENDBRANCH  10  13
ENDBRANCH   5   7
ENDBRANCH   3   5
BRANCH   2  15
ATOM     15  C   UNL d   1      24.647 -16.845  -0.838  0.00  0.00     0.033 A 
ATOM     16  C   UNL d   1      23.397 -16.220  -0.987  0.00  0.00     0.018 A 
ATOM     17  C   UNL d   1      22.210 -16.957  -0.885  0.00  0.00     0.020 A 
ATOM     18  C   UNL d   1      22.265 -18.320  -0.608  0.00  0.00     0.011 A 
ATOM     19 BR   UNL d   1      20.663 -19.318  -0.482  0.00  0.00    -0.051 Br
ATOM     20  C   UNL d   1      23.497 -18.948  -0.422  0.00  0.00     0.020 A 
ATOM     21  C   UNL d   1      24.690 -18.214  -0.536  0.00  0.00     0.018 A 
ENDBRANCH   2  15
TORSDOF 4
ENDMDL
MODEL 8
REMARK VINA RESULT:    -5.792      4.688      8.617
REMARK INTER + INTRA:          -7.695
REMARK INTER:                  -6.986
REMARK INTRA:                  -0.710
REMARK CONF_INDEPENDENT:        1.193
REMARK UNBOUND:                -0.710
REMARK  4 active torsions:
REMARK  status: ('A' for Active; 'I' for Inactive)
REMARK       I    between atoms: C_2  and  N_3 
REMARK    1  A    between atoms: C_2  and  C_12 
REMARK    2  A    between atoms: N_3  and  N_4 
REMARK    3  A    between atoms: N_4  and  C_5 
REMARK    4  A    between atoms: C_8  and  O_9 
ROOT
ATOM      1  O   UNL d   1      26.756 -16.154  -0.441  0.00  0.00    -0.266 OA
ATOM      2  C   UNL d   1      25.687 -15.949  -1.021  0.00  0.00     0.270 C 
ATOM      3  N   UNL d   1      25.466 -14.867  -1.865  0.00  0.00    -0.265 N 
ATOM      4  H   UNL d   1      24.610 -14.737  -2.392  0.00  0.00     0.190 HD
ENDROOT
BRANCH   3   5
ATOM      5  N   UNL d   1      26.564 -14.077  -2.226  0.00  0.00    -0.298 N 
ATOM      6  H   UNL d   1      27.420 -14.170  -1.674  0.00  0.00     0.187 HD
BRANCH   5   7
ATOM      7  C   UNL d   1      26.408 -13.002  -3.112  0.00  0.00     0.048 A 
ATOM      8  C   UNL d   1      26.652 -11.667  -2.758  0.00  0.00     0.034 A 
ATOM      9  C   UNL d   1      26.413 -10.614  -3.660  0.00  0.00     0.039 A 
ATOM     10  C   UNL d   1      25.905 -10.890  -4.924  0.00  0.00     0.065 A 
ATOM     11  C   UNL d   1      25.649 -12.200  -5.299  0.00  0.00     0.039 A 
ATOM     12  C   UNL d   1      25.913 -13.248  -4.404  0.00  0.00     0.034 A 
BRANCH  10  13
ATOM     13  O   UNL d   1      25.641  -9.909  -5.834  0.00  0.00    -0.361 OA
ATOM     14  H   UNL d   1      24.700  -9.672  -5.793  0.00  0.00     0.217 HD
ENDBRANCH  10  13
ENDBRANCH   5   7
ENDBRANCH   3   5
BRANCH   2  15
ATOM     15  C   UNL d   1      24.536 -16.872  -0.776  0.00  0.00     0.033 A 
ATOM     16  C   UNL d   1      23.233 -16.356  -0.893  0.00  0.00     0.018 A 
ATOM     17  C   UNL d   1      22.116 -17.171  -0.669  0.00  0.00     0.020 A 
ATOM     18  C   UNL d   1      22.295 -18.502  -0.301  0.00  0.00     0.011 A 
ATOM     19 BR   UNL d   1      20.787 -19.607  -0.010  0.00  0.00    -0.051 Br
ATOM     20  C   UNL d   1      23.582 -19.019  -0.145  0.00  0.00     0.020 A 
ATOM     21  C   UNL d   1      24.705 -18.207  -0.382  0.00  0.00     0.018 A 
ENDBRANCH   2  15
TORSDOF 4
ENDMDL
MODEL 9
REMARK VINA RESULT:    -5.579      3.517      4.950
REMARK INTER + INTRA:          -7.406
REMARK INTER:                  -6.772
REMARK INTRA:                  -0.633
REMARK CONF_INDEPENDENT:        1.193
REMARK UNBOUND:                -0.633
REMARK  4 active torsions:
REMARK  status: ('A' for Active; 'I' for Inactive)
REMARK       I    between atoms: C_2  and  N_3 
REMARK    1  A    between atoms: C_2  and  C_12 
REMARK    2  A    between atoms: N_3  and  N_4 
REMARK    3  A    between atoms: N_4  and  C_5 
REMARK    4  A    between atoms: C_8  and  O_9 
ROOT
ATOM      1  O   UNL d   1      27.913 -15.932  -0.515  0.00  0.00    -0.266 OA
ATOM      2  C   UNL d   1      27.350 -16.162  -1.588  0.00  0.00     0.270 C 
ATOM      3  N   UNL d   1      26.168 -16.886  -1.696  0.00  0.00    -0.265 N 
ATOM      4  H   UNL d   1      25.673 -17.016  -2.570  0.00  0.00     0.190 HD
ENDROOT
BRANCH   3   5
ATOM      5  N   UNL d   1      25.483 -17.211  -0.519  0.00  0.00    -0.298 N 
ATOM      6  H   UNL d   1      26.038 -17.386   0.322  0.00  0.00     0.187 HD
BRANCH   5   7
ATOM      7  C   UNL d   1      24.127 -17.564  -0.558  0.00  0.00     0.048 A 
ATOM      8  C   UNL d   1      23.672 -18.889  -0.488  0.00  0.00     0.034 A 
ATOM      9  C   UNL d   1      22.305 -19.202  -0.604  0.00  0.00     0.039 A 
ATOM     10  C   UNL d   1      21.380 -18.185  -0.813  0.00  0.00     0.065 A 
ATOM     11  C   UNL d   1      21.802 -16.866  -0.892  0.00  0.00     0.039 A 
ATOM     12  C   UNL d   1      23.164 -16.559  -0.751  0.00  0.00     0.034 A 
BRANCH  10  13
ATOM     13  O   UNL d   1      20.045 -18.430  -0.945  0.00  0.00    -0.361 OA
ATOM     14  H   UNL d   1      19.641 -17.736  -1.491  0.00  0.00     0.217 HD
ENDBRANCH  10  13
ENDBRANCH   5   7
ENDBRANCH   3   5
BRANCH   2  15
ATOM     15  C   UNL d   1      27.981 -15.688  -2.858  0.00  0.00     0.033 A 
ATOM     16  C   UNL d   1      27.143 -15.203  -3.876  0.00  0.00     0.018 A 
ATOM     17  C   UNL d   1      27.676 -14.752  -5.091  0.00  0.00     0.020 A 
ATOM     18  C   UNL d   1      29.050 -14.808  -5.305  0.00  0.00     0.011 A 
ATOM     19 BR   UNL d   1      29.773 -14.189  -6.940  0.00  0.00    -0.051 Br
ATOM     20  C   UNL d   1      29.893 -15.322  -4.317  0.00  0.00     0.020 A 
ATOM     21  C   UNL d   1      29.361 -15.763  -3.093  0.00  0.00     0.018 A 
ENDBRANCH   2  15
TORSDOF 4
ENDMDL
