MODEL 1
REMARK VINA RESULT:    -7.056      0.000      0.000
REMARK INTER + INTRA:          -9.719
REMARK INTER:                  -8.547
REMARK INTRA:                  -1.172
REMARK CONF_INDEPENDENT:        1.492
REMARK UNBOUND:                -1.172
REMARK  5 active torsions:
REMARK  status: ('A' for Active; 'I' for Inactive)
REMARK    1  A    between atoms: C_2  and  C_4 
REMARK    2  A    between atoms: C_4  and  C_5 
REMARK    3  A    between atoms: C_5  and  C_6 
REMARK       I    between atoms: C_6  and  N_8 
REMARK    4  A    between atoms: N_8  and  N_9 
REMARK       I    between atoms: N_9  and  C_10 
REMARK    5  A    between atoms: C_12  and  C_10 
ROOT
ATOM      1  C   UNL d   1      24.006 -17.965  -0.444  0.00  0.00     0.236 C 
ATOM      2  O   UNL d   1      24.374 -18.208   0.705  0.00  0.00    -0.272 OA
ATOM      3  N   UNL d   1      22.757 -18.361  -0.920  0.00  0.00    -0.268 N 
ATOM      4  H   UNL d   1      22.439 -18.211  -1.875  0.00  0.00     0.190 HD
ENDROOT
BRANCH   3   5
ATOM      5  N   UNL d   1      21.891 -19.101  -0.058  0.00  0.00    -0.267 N 
ATOM      6  C   UNL d   1      20.725 -19.712  -0.524  0.00  0.00     0.240 C 
ATOM      7  O   UNL d   1      20.313 -19.595  -1.678  0.00  0.00    -0.271 OA
ATOM      8  H   UNL d   1      22.211 -19.184   0.907  0.00  0.00     0.190 HD
BRANCH   6   9
ATOM      9  C   UNL d   1      19.996 -20.547   0.508  0.00  0.00     0.083 A 
ATOM     10  C   UNL d   1      19.593 -20.026   1.881  0.00  0.00     0.019 A 
ATOM     11  C   UNL d   1      18.525 -20.367   0.877  0.00  0.00    -0.005 A 
ATOM     12  C   UNL d   1      17.655 -21.576   1.060  0.00  0.00     0.011 C 
ENDBRANCH   6   9
ENDBRANCH   3   5
BRANCH   1  13
ATOM     13  C   UNL d   1      24.887 -17.225  -1.458  0.00  0.00     0.105 C 
BRANCH  13  14
ATOM     14  C   UNL d   1      24.293 -15.870  -1.900  0.00  0.00     0.013 C 
BRANCH  14  15
ATOM     15  C   UNL d   1      25.342 -14.850  -2.395  0.00  0.00    -0.022 C 
ATOM     16  C   UNL d   1      26.582 -15.572  -2.938  0.00  0.00     0.009 C 
ATOM     17  C   UNL d   1      24.776 -13.948  -3.491  0.00  0.00     0.009 C 
ENDBRANCH  14  15
ENDBRANCH  13  14
ENDBRANCH   1  13
TORSDOF 5
ENDMDL
MODEL 2
REMARK VINA RESULT:    -7.014      1.308      2.050
REMARK INTER + INTRA:          -9.670
REMARK INTER:                  -8.506
REMARK INTRA:                  -1.164
REMARK CONF_INDEPENDENT:        1.492
REMARK UNBOUND:                -1.164
REMARK  5 active torsions:
REMARK  status: ('A' for Active; 'I' for Inactive)
REMARK    1  A    between atoms: C_2  and  C_4 
REMARK    2  A    between atoms: C_4  and  C_5 
REMARK    3  A    between atoms: C_5  and  C_6 
REMARK       I    between atoms: C_6  and  N_8 
REMARK    4  A    between atoms: N_8  and  N_9 
REMARK       I    between atoms: N_9  and  C_10 
REMARK    5  A    between atoms: C_12  and  C_10 
ROOT
ATOM      1  C   UNL d   1      23.810 -17.810  -0.581  0.00  0.00     0.236 C 
ATOM      2  O   UNL d   1      24.128 -17.847   0.607  0.00  0.00    -0.272 OA
ATOM      3  N   UNL d   1      22.655 -18.429  -1.057  0.00  0.00    -0.268 N 
ATOM      4  H   UNL d   1      22.385 -18.451  -2.038  0.00  0.00     0.190 HD
ENDROOT
BRANCH   3   5
ATOM      5  N   UNL d   1      21.833 -19.156  -0.143  0.00  0.00    -0.267 N 
ATOM      6  C   UNL d   1      20.654 -19.787  -0.546  0.00  0.00     0.240 C 
ATOM      7  O   UNL d   1      20.193 -19.700  -1.684  0.00  0.00    -0.271 OA
ATOM      8  H   UNL d   1      22.194 -19.215   0.808  0.00  0.00     0.190 HD
BRANCH   6   9
ATOM      9  C   UNL d   1      19.977 -20.605   0.534  0.00  0.00     0.083 A 
ATOM     10  C   UNL d   1      19.682 -20.075   1.930  0.00  0.00     0.019 A 
ATOM     11  C   UNL d   1      18.540 -20.388   1.003  0.00  0.00    -0.005 A 
ATOM     12  C   UNL d   1      17.654 -21.575   1.245  0.00  0.00     0.011 C 
ENDBRANCH   6   9
ENDBRANCH   3   5
BRANCH   1  13
ATOM     13  C   UNL d   1      24.657 -17.101  -1.644  0.00  0.00     0.105 C 
BRANCH  13  14
ATOM     14  C   UNL d   1      25.921 -16.430  -1.063  0.00  0.00     0.013 C 
BRANCH  14  15
ATOM     15  C   UNL d   1      27.091 -17.404  -0.801  0.00  0.00    -0.022 C 
ATOM     16  C   UNL d   1      28.437 -16.692  -0.985  0.00  0.00     0.009 C 
ATOM     17  C   UNL d   1      27.029 -17.990   0.609  0.00  0.00     0.009 C 
ENDBRANCH  14  15
ENDBRANCH  13  14
ENDBRANCH   1  13
TORSDOF 5
ENDMDL
MODEL 3
REMARK VINA RESULT:    -6.972      1.061      7.330
REMARK INTER + INTRA:          -9.680
REMARK INTER:                  -8.463
REMARK INTRA:                  -1.217
REMARK CONF_INDEPENDENT:        1.492
REMARK UNBOUND:                -1.217
REMARK  5 active torsions:
REMARK  status: ('A' for Active; 'I' for Inactive)
REMARK    1  A    between atoms: C_2  and  C_4 
REMARK    2  A    between atoms: C_4  and  C_5 
REMARK    3  A    between atoms: C_5  and  C_6 
REMARK       I    between atoms: C_6  and  N_8 
REMARK    4  A    between atoms: N_8  and  N_9 
REMARK       I    between atoms: N_9  and  C_10 
REMARK    5  A    between atoms: C_12  and  C_10 
ROOT
ATOM      1  C   UNL d   1      21.071 -18.789  -0.690  0.00  0.00     0.236 C 
ATOM      2  O   UNL d   1      20.586 -17.811  -1.259  0.00  0.00    -0.272 OA
ATOM      3  N   UNL d   1      22.391 -18.803  -0.239  0.00  0.00    -0.268 N 
ATOM      4  H   UNL d   1      22.833 -19.608   0.198  0.00  0.00     0.190 HD
ENDROOT
BRANCH   3   5
ATOM      5  N   UNL d   1      23.215 -17.660  -0.476  0.00  0.00    -0.267 N 
ATOM      6  C   UNL d   1      24.574 -17.647  -0.154  0.00  0.00     0.240 C 
ATOM      7  O   UNL d   1      25.143 -18.572   0.424  0.00  0.00    -0.271 OA
ATOM      8  H   UNL d   1      22.747 -16.879  -0.933  0.00  0.00     0.190 HD
BRANCH   6   9
ATOM      9  C   UNL d   1      25.309 -16.394  -0.581  0.00  0.00     0.083 A 
ATOM     10  C   UNL d   1      26.749 -16.391  -1.078  0.00  0.00     0.019 A 
ATOM     11  C   UNL d   1      25.639 -16.042  -2.031  0.00  0.00    -0.005 A 
ATOM     12  C   UNL d   1      25.450 -14.632  -2.511  0.00  0.00     0.011 C 
ENDBRANCH   6   9
ENDBRANCH   3   5
BRANCH   1  13
ATOM     13  C   UNL d   1      20.282 -20.079  -0.440  0.00  0.00     0.105 C 
BRANCH  13  14
ATOM     14  C   UNL d   1      18.814 -19.821  -0.033  0.00  0.00     0.013 C 
BRANCH  14  15
ATOM     15  C   UNL d   1      18.406 -20.470   1.308  0.00  0.00    -0.022 C 
ATOM     16  C   UNL d   1      18.022 -21.940   1.101  0.00  0.00     0.009 C 
ATOM     17  C   UNL d   1      19.534 -20.392   2.336  0.00  0.00     0.009 C 
ENDBRANCH  14  15
ENDBRANCH  13  14
ENDBRANCH   1  13
TORSDOF 5
ENDMDL
MODEL 4
REMARK VINA RESULT:    -6.534      1.220      7.396
REMARK INTER + INTRA:          -9.203
REMARK INTER:                  -8.025
REMARK INTRA:                  -1.178
REMARK CONF_INDEPENDENT:        1.492
REMARK UNBOUND:                -1.178
REMARK  5 active torsions:
REMARK  status: ('A' for Active; 'I' for Inactive)
REMARK    1  A    between atoms: C_2  and  C_4 
REMARK    2  A    between atoms: C_4  and  C_5 
REMARK    3  A    between atoms: C_5  and  C_6 
REMARK       I    between atoms: C_6  and  N_8 
REMARK    4  A    between atoms: N_8  and  N_9 
REMARK       I    between atoms: N_9  and  C_10 
REMARK    5  A    between atoms: C_12  and  C_10 
ROOT
ATOM      1  C   UNL d   1      21.276 -18.521  -0.774  0.00  0.00     0.236 C 
ATOM      2  O   UNL d   1      20.856 -17.475  -1.270  0.00  0.00    -0.272 OA
ATOM      3  N   UNL d   1      22.594 -18.656  -0.340  0.00  0.00    -0.268 N 
ATOM      4  H   UNL d   1      22.983 -19.518   0.036  0.00  0.00     0.190 HD
ENDROOT
BRANCH   3   5
ATOM      5  N   UNL d   1      23.494 -17.559  -0.506  0.00  0.00    -0.267 N 
ATOM      6  C   UNL d   1      24.860 -17.673  -0.240  0.00  0.00     0.240 C 
ATOM      7  O   UNL d   1      25.377 -18.687   0.229  0.00  0.00    -0.271 OA
ATOM      8  H   UNL d   1      23.071 -16.707  -0.872  0.00  0.00     0.190 HD
BRANCH   6   9
ATOM      9  C   UNL d   1      25.673 -16.442  -0.583  0.00  0.00     0.083 A 
ATOM     10  C   UNL d   1      27.044 -16.496  -1.242  0.00  0.00     0.019 A 
ATOM     11  C   UNL d   1      25.882 -15.917  -2.002  0.00  0.00    -0.005 A 
ATOM     12  C   UNL d   1      25.792 -14.442  -2.266  0.00  0.00     0.011 C 
ENDBRANCH   6   9
ENDBRANCH   3   5
BRANCH   1  13
ATOM     13  C   UNL d   1      20.401 -19.768  -0.606  0.00  0.00     0.105 C 
BRANCH  13  14
ATOM     14  C   UNL d   1      19.313 -19.602   0.477  0.00  0.00     0.013 C 
BRANCH  14  15
ATOM     15  C   UNL d   1      19.119 -20.844   1.375  0.00  0.00    -0.022 C 
ATOM     16  C   UNL d   1      19.158 -20.450   2.857  0.00  0.00     0.009 C 
ATOM     17  C   UNL d   1      17.794 -21.548   1.084  0.00  0.00     0.009 C 
ENDBRANCH  14  15
ENDBRANCH  13  14
ENDBRANCH   1  13
TORSDOF 5
ENDMDL
MODEL 5
REMARK VINA RESULT:    -5.566      2.404      7.817
REMARK INTER + INTRA:          -8.194
REMARK INTER:                  -7.057
REMARK INTRA:                  -1.137
REMARK CONF_INDEPENDENT:        1.492
REMARK UNBOUND:                -1.137
REMARK  5 active torsions:
REMARK  status: ('A' for Active; 'I' for Inactive)
REMARK    1  A    between atoms: C_2  and  C_4 
REMARK    2  A    between atoms: C_4  and  C_5 
REMARK    3  A    between atoms: C_5  and  C_6 
REMARK       I    between atoms: C_6  and  N_8 
REMARK    4  A    between atoms: N_8  and  N_9 
REMARK       I    between atoms: N_9  and  C_10 
REMARK    5  A    between atoms: C_12  and  C_10 
ROOT
ATOM      1  C   UNL d   1      23.896 -17.424  -0.898  0.00  0.00     0.236 C 
ATOM      2  O   UNL d   1      24.877 -18.085  -0.561  0.00  0.00    -0.272 OA
ATOM      3  N   UNL d   1      24.001 -16.327  -1.752  0.00  0.00    -0.268 N 
ATOM      4  H   UNL d   1      23.216 -15.736  -2.018  0.00  0.00     0.190 HD
ENDROOT
BRANCH   3   5
ATOM      5  N   UNL d   1      25.293 -15.937  -2.222  0.00  0.00    -0.267 N 
ATOM      6  C   UNL d   1      25.460 -14.972  -3.217  0.00  0.00     0.240 C 
ATOM      7  O   UNL d   1      24.522 -14.447  -3.818  0.00  0.00    -0.271 OA
ATOM      8  H   UNL d   1      26.077 -16.384  -1.748  0.00  0.00     0.190 HD
BRANCH   6   9
ATOM      9  C   UNL d   1      26.901 -14.608  -3.505  0.00  0.00     0.083 A 
ATOM     10  C   UNL d   1      28.067 -15.568  -3.310  0.00  0.00     0.019 A 
ATOM     11  C   UNL d   1      27.698 -15.127  -4.700  0.00  0.00    -0.005 A 
ATOM     12  C   UNL d   1      28.577 -14.185  -5.469  0.00  0.00     0.011 C 
ENDBRANCH   6   9
ENDBRANCH   3   5
BRANCH   1  13
ATOM     13  C   UNL d   1      22.478 -17.732  -0.402  0.00  0.00     0.105 C 
BRANCH  13  14
ATOM     14  C   UNL d   1      22.239 -19.236  -0.148  0.00  0.00     0.013 C 
BRANCH  14  15
ATOM     15  C   UNL d   1      20.750 -19.628  -0.024  0.00  0.00    -0.022 C 
ATOM     16  C   UNL d   1      20.284 -19.520   1.434  0.00  0.00     0.009 C 
ATOM     17  C   UNL d   1      19.861 -18.744  -0.896  0.00  0.00     0.009 C 
ENDBRANCH  14  15
ENDBRANCH  13  14
ENDBRANCH   1  13
TORSDOF 5
ENDMDL
MODEL 6
REMARK VINA RESULT:    -5.527      2.401      7.376
REMARK INTER + INTRA:          -8.186
REMARK INTER:                  -7.018
REMARK INTRA:                  -1.168
REMARK CONF_INDEPENDENT:        1.492
REMARK UNBOUND:                -1.168
REMARK  5 active torsions:
REMARK  status: ('A' for Active; 'I' for Inactive)
REMARK    1  A    between atoms: C_2  and  C_4 
REMARK    2  A    between atoms: C_4  and  C_5 
REMARK    3  A    between atoms: C_5  and  C_6 
REMARK       I    between atoms: C_6  and  N_8 
REMARK    4  A    between atoms: N_8  and  N_9 
REMARK       I    between atoms: N_9  and  C_10 
REMARK    5  A    between atoms: C_12  and  C_10 
ROOT
ATOM      1  C   UNL d   1      22.972 -18.152  -0.598  0.00  0.00     0.236 C 
ATOM      2  O   UNL d   1      22.667 -16.971  -0.763  0.00  0.00    -0.272 OA
ATOM      3  N   UNL d   1      24.256 -18.537  -0.210  0.00  0.00    -0.268 N 
ATOM      4  H   UNL d   1      24.551 -19.505  -0.104  0.00  0.00     0.190 HD
ENDROOT
BRANCH   3   5
ATOM      5  N   UNL d   1      25.255 -17.532  -0.033  0.00  0.00    -0.267 N 
ATOM      6  C   UNL d   1      26.558 -17.843   0.358  0.00  0.00     0.240 C 
ATOM      7  O   UNL d   1      26.924 -18.981   0.656  0.00  0.00    -0.271 OA
ATOM      8  H   UNL d   1      24.956 -16.583  -0.253  0.00  0.00     0.190 HD
BRANCH   6   9
ATOM      9  C   UNL d   1      27.507 -16.663   0.384  0.00  0.00     0.083 A 
ATOM     10  C   UNL d   1      27.575 -15.614  -0.717  0.00  0.00     0.019 A 
ATOM     11  C   UNL d   1      27.079 -15.221   0.647  0.00  0.00    -0.005 A 
ATOM     12  C   UNL d   1      27.909 -14.355   1.549  0.00  0.00     0.011 C 
ENDBRANCH   6   9
ENDBRANCH   3   5
BRANCH   1  13
ATOM     13  C   UNL d   1      21.984 -19.303  -0.818  0.00  0.00     0.105 C 
BRANCH  13  14
ATOM     14  C   UNL d   1      20.572 -19.001  -0.270  0.00  0.00     0.013 C 
BRANCH  14  15
ATOM     15  C   UNL d   1      19.992 -20.112   0.634  0.00  0.00    -0.022 C 
ATOM     16  C   UNL d   1      20.016 -19.677   2.105  0.00  0.00     0.009 C 
ATOM     17  C   UNL d   1      18.557 -20.463   0.243  0.00  0.00     0.009 C 
ENDBRANCH  14  15
ENDBRANCH  13  14
ENDBRANCH   1  13
TORSDOF 5
ENDMDL
MODEL 7
REMARK VINA RESULT:    -5.338      3.202      7.807
REMARK INTER + INTRA:          -8.137
REMARK INTER:                  -6.829
REMARK INTRA:                  -1.308
REMARK CONF_INDEPENDENT:        1.492
REMARK UNBOUND:                -1.308
REMARK  5 active torsions:
REMARK  status: ('A' for Active; 'I' for Inactive)
REMARK    1  A    between atoms: C_2  and  C_4 
REMARK    2  A    between atoms: C_4  and  C_5 
REMARK    3  A    between atoms: C_5  and  C_6 
REMARK       I    between atoms: C_6  and  N_8 
REMARK    4  A    between atoms: N_8  and  N_9 
REMARK       I    between atoms: N_9  and  C_10 
REMARK    5  A    between atoms: C_12  and  C_10 
ROOT
ATOM      1  C   UNL d   1      25.904 -17.241  -0.708  0.00  0.00     0.236 C 
ATOM      2  O   UNL d   1      27.107 -17.344  -0.470  0.00  0.00    -0.272 OA
ATOM      3  N   UNL d   1      25.427 -16.567  -1.831  0.00  0.00    -0.268 N 
ATOM      4  H   UNL d   1      24.439 -16.430  -2.035  0.00  0.00     0.190 HD
ENDROOT
BRANCH   3   5
ATOM      5  N   UNL d   1      26.362 -15.947  -2.715  0.00  0.00    -0.267 N 
ATOM      6  C   UNL d   1      25.961 -15.069  -3.723  0.00  0.00     0.240 C 
ATOM      7  O   UNL d   1      24.781 -14.825  -3.980  0.00  0.00    -0.271 OA
ATOM      8  H   UNL d   1      27.341 -16.162  -2.527  0.00  0.00     0.190 HD
BRANCH   6   9
ATOM      9  C   UNL d   1      27.098 -14.422  -4.485  0.00  0.00     0.083 A 
ATOM     10  C   UNL d   1      28.557 -14.511  -4.056  0.00  0.00     0.019 A 
ATOM     11  C   UNL d   1      28.117 -15.190  -5.325  0.00  0.00    -0.005 A 
ATOM     12  C   UNL d   1      28.525 -14.655  -6.666  0.00  0.00     0.011 C 
ENDBRANCH   6   9
ENDBRANCH   3   5
BRANCH   1  13
ATOM     13  C   UNL d   1      24.824 -17.825   0.211  0.00  0.00     0.105 C 
BRANCH  13  14
ATOM     14  C   UNL d   1      23.876 -18.804  -0.515  0.00  0.00     0.013 C 
BRANCH  14  15
ATOM     15  C   UNL d   1      22.517 -18.189  -0.915  0.00  0.00    -0.022 C 
ATOM     16  C   UNL d   1      21.363 -18.952  -0.250  0.00  0.00     0.009 C 
ATOM     17  C   UNL d   1      22.428 -16.715  -0.521  0.00  0.00     0.009 C 
ENDBRANCH  14  15
ENDBRANCH  13  14
ENDBRANCH   1  13
TORSDOF 5
ENDMDL
MODEL 8
REMARK VINA RESULT:    -5.334      3.548      7.814
REMARK INTER + INTRA:          -8.150
REMARK INTER:                  -6.825
REMARK INTRA:                  -1.325
REMARK CONF_INDEPENDENT:        1.492
REMARK UNBOUND:                -1.325
REMARK  5 active torsions:
REMARK  status: ('A' for Active; 'I' for Inactive)
REMARK    1  A    between atoms: C_2  and  C_4 
REMARK    2  A    between atoms: C_4  and  C_5 
REMARK    3  A    between atoms: C_5  and  C_6 
REMARK       I    between atoms: C_6  and  N_8 
REMARK    4  A    between atoms: N_8  and  N_9 
REMARK       I    between atoms: N_9  and  C_10 
REMARK    5  A    between atoms: C_12  and  C_10 
ROOT
ATOM      1  C   UNL d   1      25.785 -16.304  -0.895  0.00  0.00     0.236 C 
ATOM      2  O   UNL d   1      25.921 -15.388  -0.084  0.00  0.00    -0.272 OA
ATOM      3  N   UNL d   1      25.618 -16.065  -2.259  0.00  0.00    -0.268 N 
ATOM      4  H   UNL d   1      25.463 -16.797  -2.948  0.00  0.00     0.190 HD
ENDROOT
BRANCH   3   5
ATOM      5  N   UNL d   1      25.569 -14.716  -2.724  0.00  0.00    -0.267 N 
ATOM      6  C   UNL d   1      25.341 -14.402  -4.065  0.00  0.00     0.240 C 
ATOM      7  O   UNL d   1      25.247 -15.249  -4.954  0.00  0.00    -0.271 OA
ATOM      8  H   UNL d   1      25.670 -14.006  -2.000  0.00  0.00     0.190 HD
BRANCH   6   9
ATOM      9  C   UNL d   1      25.209 -12.921  -4.352  0.00  0.00     0.083 A 
ATOM     10  C   UNL d   1      25.952 -11.843  -3.573  0.00  0.00     0.019 A 
ATOM     11  C   UNL d   1      26.290 -12.074  -5.020  0.00  0.00    -0.005 A 
ATOM     12  C   UNL d   1      25.903 -11.075  -6.071  0.00  0.00     0.011 C 
ENDBRANCH   6   9
ENDBRANCH   3   5
BRANCH   1  13
ATOM     13  C   UNL d   1      25.769 -17.780  -0.483  0.00  0.00     0.105 C 
BRANCH  13  14
ATOM     14  C   UNL d   1      24.434 -18.215   0.160  0.00  0.00     0.013 C 
BRANCH  14  15
ATOM     15  C   UNL d   1      23.202 -18.028  -0.753  0.00  0.00    -0.022 C 
ATOM     16  C   UNL d   1      22.176 -19.143  -0.510  0.00  0.00     0.009 C 
ATOM     17  C   UNL d   1      22.529 -16.676  -0.521  0.00  0.00     0.009 C 
ENDBRANCH  14  15
ENDBRANCH  13  14
ENDBRANCH   1  13
TORSDOF 5
ENDMDL
MODEL 9
REMARK VINA RESULT:    -5.267      1.757      2.428
REMARK INTER + INTRA:          -7.993
REMARK INTER:                  -6.759
REMARK INTRA:                  -1.234
REMARK CONF_INDEPENDENT:        1.492
REMARK UNBOUND:                -1.234
REMARK  5 active torsions:
REMARK  status: ('A' for Active; 'I' for Inactive)
REMARK    1  A    between atoms: C_2  and  C_4 
REMARK    2  A    between atoms: C_4  and  C_5 
REMARK    3  A    between atoms: C_5  and  C_6 
REMARK       I    between atoms: C_6  and  N_8 
REMARK    4  A    between atoms: N_8  and  N_9 
REMARK       I    between atoms: N_9  and  C_10 
REMARK    5  A    between atoms: C_12  and  C_10 
ROOT
ATOM      1  C   UNL d   1      25.658 -16.506  -0.668  0.00  0.00     0.236 C 
ATOM      2  O   UNL d   1      25.242 -15.616   0.074  0.00  0.00    -0.272 OA
ATOM      3  N   UNL d   1      24.859 -17.583  -1.051  0.00  0.00    -0.268 N 
ATOM      4  H   UNL d   1      25.184 -18.354  -1.630  0.00  0.00     0.190 HD
ENDROOT
BRANCH   3   5
ATOM      5  N   UNL d   1      23.528 -17.673  -0.541  0.00  0.00    -0.267 N 
ATOM      6  C   UNL d   1      22.598 -18.580  -1.051  0.00  0.00     0.240 C 
ATOM      7  O   UNL d   1      22.820 -19.306  -2.021  0.00  0.00    -0.271 OA
ATOM      8  H   UNL d   1      23.326 -17.059   0.247  0.00  0.00     0.190 HD
BRANCH   6   9
ATOM      9  C   UNL d   1      21.277 -18.613  -0.310  0.00  0.00     0.083 A 
ATOM     10  C   UNL d   1      19.994 -19.179  -0.902  0.00  0.00     0.019 A 
ATOM     11  C   UNL d   1      20.642 -19.879   0.261  0.00  0.00    -0.005 A 
ATOM     12  C   UNL d   1      20.020 -19.843   1.626  0.00  0.00     0.011 C 
ENDBRANCH   6   9
ENDBRANCH   3   5
BRANCH   1  13
ATOM     13  C   UNL d   1      27.087 -16.523  -1.221  0.00  0.00     0.105 C 
BRANCH  13  14
ATOM     14  C   UNL d   1      27.337 -15.433  -2.286  0.00  0.00     0.013 C 
BRANCH  14  15
ATOM     15  C   UNL d   1      26.057 -14.926  -2.986  0.00  0.00    -0.022 C 
ATOM     16  C   UNL d   1      26.090 -13.399  -3.132  0.00  0.00     0.009 C 
ATOM     17  C   UNL d   1      25.886 -15.553  -4.369  0.00  0.00     0.009 C 
ENDBRANCH  14  15
ENDBRANCH  13  14
ENDBRANCH   1  13
TORSDOF 5
ENDMDL
