MODEL 1
REMARK VINA RESULT:    -9.187      0.000      0.000
REMARK INTER + INTRA:         -15.606
REMARK INTER:                 -12.170
REMARK INTRA:                  -3.436
REMARK CONF_INDEPENDENT:        2.983
REMARK UNBOUND:                -3.436
REMARK  10 active torsions:
REMARK  status: ('A' for Active; 'I' for Inactive)
REMARK    1  A    between atoms: C_2  and  C_3 
REMARK       I    between atoms: C_2  and  N_12 
REMARK    2  A    between atoms: C_3  and  O_4 
REMARK    3  A    between atoms: O_4  and  C_5 
REMARK    4  A    between atoms: N_12  and  N_13 
REMARK       I    between atoms: N_13  and  C_14 
REMARK    5  A    between atoms: C_14  and  C_16 
REMARK    6  A    between atoms: C_19  and  C_20 
REMARK       I    between atoms: C_20  and  N_22 
REMARK    7  A    between atoms: N_22  and  N_23 
REMARK       I    between atoms: N_23  and  C_24 
REMARK    8  A    between atoms: C_24  and  C_26 
REMARK    9  A    between atoms: C_26  and  O_27 
REMARK   10  A    between atoms: O_27  and  C_28 
ROOT
ATOM      1  C   UNL d   1      28.976 -13.472  -5.968  0.00  0.00     0.033 A 
ATOM      2  C   UNL d   1      28.960 -14.745  -5.379  0.00  0.00     0.018 A 
ATOM      3  C   UNL d   1      27.811 -15.205  -4.687  0.00  0.00     0.018 A 
ATOM      4  C   UNL d   1      26.676 -14.385  -4.513  0.00  0.00     0.033 A 
ATOM      5  C   UNL d   1      26.703 -13.124  -5.125  0.00  0.00     0.018 A 
ATOM      6  C   UNL d   1      27.834 -12.673  -5.842  0.00  0.00     0.018 A 
ENDROOT
BRANCH   1   7
ATOM      7  C   UNL d   1      30.133 -13.026  -6.815  0.00  0.00     0.270 C 
ATOM      8  N   UNL d   1      30.527 -13.882  -7.842  0.00  0.00    -0.263 N 
ATOM      9  H   UNL d   1      29.989 -14.706  -8.075  0.00  0.00     0.190 HD
ATOM     10  O   UNL d   1      30.695 -11.955  -6.576  0.00  0.00    -0.266 OA
BRANCH   8  11
ATOM     11  N   UNL d   1      31.618 -13.519  -8.660  0.00  0.00    -0.265 N 
ATOM     12  C   UNL d   1      32.667 -14.336  -9.043  0.00  0.00     0.260 C 
ATOM     13  O   UNL d   1      33.563 -13.873  -9.750  0.00  0.00    -0.269 OA
ATOM     14  H   UNL d   1      31.644 -12.549  -8.985  0.00  0.00     0.190 HD
BRANCH  12  15
ATOM     15  C   UNL d   1      32.660 -15.802  -8.575  0.00  0.00     0.280 C 
BRANCH  15  16
ATOM     16  O   UNL d   1      31.390 -16.175  -8.028  0.00  0.00    -0.342 OA
BRANCH  16  17
ATOM     17  C   UNL d   1      31.367 -17.317  -7.272  0.00  0.00     0.069 A 
ATOM     18  C   UNL d   1      30.991 -17.358  -5.930  0.00  0.00     0.038 A 
ATOM     19  C   UNL d   1      30.959 -18.580  -5.245  0.00  0.00     0.026 A 
ATOM     20  C   UNL d   1      31.289 -19.762  -5.907  0.00  0.00     0.034 A 
ATOM     21 CL   UNL d   1      31.275 -21.254  -5.050  0.00  0.00    -0.084 Cl
ATOM     22  C   UNL d   1      31.626 -19.736  -7.256  0.00  0.00     0.026 A 
ATOM     23  C   UNL d   1      31.653 -18.513  -7.940  0.00  0.00     0.038 A 
ENDBRANCH  16  17
ENDBRANCH  15  16
ENDBRANCH  12  15
ENDBRANCH   8  11
ENDBRANCH   1   7
BRANCH   4  24
ATOM     24  C   UNL d   1      25.515 -14.870  -3.654  0.00  0.00     0.270 C 
ATOM     25  O   UNL d   1      24.388 -14.403  -3.822  0.00  0.00    -0.266 OA
ATOM     26  N   UNL d   1      25.754 -15.873  -2.714  0.00  0.00    -0.263 N 
ATOM     27  H   UNL d   1      26.658 -16.310  -2.547  0.00  0.00     0.190 HD
BRANCH  26  28
ATOM     28  N   UNL d   1      24.686 -16.410  -1.921  0.00  0.00    -0.265 N 
ATOM     29  C   UNL d   1      25.017 -17.226  -0.837  0.00  0.00     0.260 C 
ATOM     30  O   UNL d   1      26.200 -17.483  -0.594  0.00  0.00    -0.269 OA
ATOM     31  H   UNL d   1      23.740 -16.147  -2.195  0.00  0.00     0.190 HD
BRANCH  29  32
ATOM     32  C   UNL d   1      23.835 -17.780   0.009  0.00  0.00     0.280 C 
BRANCH  32  33
ATOM     33  O   UNL d   1      22.612 -17.768  -0.749  0.00  0.00    -0.342 OA
BRANCH  33  34
ATOM     34  C   UNL d   1      21.586 -18.567  -0.316  0.00  0.00     0.069 A 
ATOM     35  C   UNL d   1      21.393 -18.950   1.012  0.00  0.00     0.038 A 
ATOM     36  C   UNL d   1      20.285 -19.735   1.370  0.00  0.00     0.026 A 
ATOM     37  C   UNL d   1      19.361 -20.127   0.403  0.00  0.00     0.034 A 
ATOM     38 CL   UNL d   1      18.024 -21.117   0.845  0.00  0.00    -0.084 Cl
ATOM     39  C   UNL d   1      19.518 -19.716  -0.917  0.00  0.00     0.026 A 
ATOM     40  C   UNL d   1      20.623 -18.926  -1.270  0.00  0.00     0.038 A 
ENDBRANCH  33  34
ENDBRANCH  32  33
ENDBRANCH  29  32
ENDBRANCH  26  28
ENDBRANCH   4  24
TORSDOF 10
ENDMDL
MODEL 2
REMARK VINA RESULT:    -9.095      1.283      1.800
REMARK INTER + INTRA:         -15.390
REMARK INTER:                 -12.078
REMARK INTRA:                  -3.312
REMARK CONF_INDEPENDENT:        2.983
REMARK UNBOUND:                -3.312
REMARK  10 active torsions:
REMARK  status: ('A' for Active; 'I' for Inactive)
REMARK    1  A    between atoms: C_2  and  C_3 
REMARK       I    between atoms: C_2  and  N_12 
REMARK    2  A    between atoms: C_3  and  O_4 
REMARK    3  A    between atoms: O_4  and  C_5 
REMARK    4  A    between atoms: N_12  and  N_13 
REMARK       I    between atoms: N_13  and  C_14 
REMARK    5  A    between atoms: C_14  and  C_16 
REMARK    6  A    between atoms: C_19  and  C_20 
REMARK       I    between atoms: C_20  and  N_22 
REMARK    7  A    between atoms: N_22  and  N_23 
REMARK       I    between atoms: N_23  and  C_24 
REMARK    8  A    between atoms: C_24  and  C_26 
REMARK    9  A    between atoms: C_26  and  O_27 
REMARK   10  A    between atoms: O_27  and  C_28 
ROOT
ATOM      1  C   UNL d   1      29.657 -14.886  -6.094  0.00  0.00     0.033 A 
ATOM      2  C   UNL d   1      28.549 -14.090  -6.416  0.00  0.00     0.018 A 
ATOM      3  C   UNL d   1      27.361 -14.159  -5.645  0.00  0.00     0.018 A 
ATOM      4  C   UNL d   1      27.229 -15.068  -4.573  0.00  0.00     0.033 A 
ATOM      5  C   UNL d   1      28.353 -15.842  -4.254  0.00  0.00     0.018 A 
ATOM      6  C   UNL d   1      29.549 -15.754  -5.001  0.00  0.00     0.018 A 
ENDROOT
BRANCH   1   7
ATOM      7  C   UNL d   1      30.963 -14.726  -6.819  0.00  0.00     0.270 C 
ATOM      8  N   UNL d   1      31.333 -15.756  -7.681  0.00  0.00    -0.263 N 
ATOM      9  H   UNL d   1      30.701 -16.516  -7.894  0.00  0.00     0.190 HD
ATOM     10  O   UNL d   1      31.656 -13.726  -6.623  0.00  0.00    -0.266 OA
BRANCH   8  11
ATOM     11  N   UNL d   1      32.558 -15.663  -8.377  0.00  0.00    -0.265 N 
ATOM     12  C   UNL d   1      33.266 -16.712  -8.938  0.00  0.00     0.260 C 
ATOM     13  O   UNL d   1      34.336 -16.480  -9.504  0.00  0.00    -0.269 OA
ATOM     14  H   UNL d   1      32.971 -14.730  -8.455  0.00  0.00     0.190 HD
BRANCH  12  15
ATOM     15  C   UNL d   1      32.672 -18.128  -8.843  0.00  0.00     0.280 C 
BRANCH  15  16
ATOM     16  O   UNL d   1      31.405 -18.126  -8.177  0.00  0.00    -0.342 OA
BRANCH  16  17
ATOM     17  C   UNL d   1      31.258 -19.016  -7.147  0.00  0.00     0.069 A 
ATOM     18  C   UNL d   1      30.489 -18.774  -6.009  0.00  0.00     0.038 A 
ATOM     19  C   UNL d   1      30.364 -19.761  -5.021  0.00  0.00     0.026 A 
ATOM     20  C   UNL d   1      30.996 -20.993  -5.179  0.00  0.00     0.034 A 
ATOM     21 CL   UNL d   1      30.860 -22.188  -3.949  0.00  0.00    -0.084 Cl
ATOM     22  C   UNL d   1      31.731 -21.258  -6.330  0.00  0.00     0.026 A 
ATOM     23  C   UNL d   1      31.851 -20.272  -7.318  0.00  0.00     0.038 A 
ENDBRANCH  16  17
ENDBRANCH  15  16
ENDBRANCH  12  15
ENDBRANCH   8  11
ENDBRANCH   1   7
BRANCH   4  24
ATOM     24  C   UNL d   1      25.893 -15.201  -3.853  0.00  0.00     0.270 C 
ATOM     25  O   UNL d   1      24.906 -14.592  -4.268  0.00  0.00    -0.266 OA
ATOM     26  N   UNL d   1      25.813 -16.051  -2.750  0.00  0.00    -0.263 N 
ATOM     27  H   UNL d   1      26.587 -16.594  -2.376  0.00  0.00     0.190 HD
BRANCH  26  28
ATOM     28  N   UNL d   1      24.566 -16.262  -2.071  0.00  0.00    -0.265 N 
ATOM     29  C   UNL d   1      24.538 -17.174  -1.014  0.00  0.00     0.260 C 
ATOM     30  O   UNL d   1      25.562 -17.788  -0.698  0.00  0.00    -0.269 OA
ATOM     31  H   UNL d   1      23.772 -15.714  -2.399  0.00  0.00     0.190 HD
BRANCH  29  32
ATOM     32  C   UNL d   1      23.174 -17.367  -0.291  0.00  0.00     0.280 C 
BRANCH  32  33
ATOM     33  O   UNL d   1      22.238 -18.056  -1.139  0.00  0.00    -0.342 OA
BRANCH  33  34
ATOM     34  C   UNL d   1      21.217 -18.744  -0.535  0.00  0.00     0.069 A 
ATOM     35  C   UNL d   1      20.148 -19.326  -1.219  0.00  0.00     0.038 A 
ATOM     36  C   UNL d   1      19.171 -20.052  -0.518  0.00  0.00     0.026 A 
ATOM     37  C   UNL d   1      19.268 -20.209   0.863  0.00  0.00     0.034 A 
ATOM     38 CL   UNL d   1      18.049 -21.073   1.717  0.00  0.00    -0.084 Cl
ATOM     39  C   UNL d   1      20.352 -19.671   1.550  0.00  0.00     0.026 A 
ATOM     40  C   UNL d   1      21.330 -18.951   0.847  0.00  0.00     0.038 A 
ENDBRANCH  33  34
ENDBRANCH  32  33
ENDBRANCH  29  32
ENDBRANCH  26  28
ENDBRANCH   4  24
TORSDOF 10
ENDMDL
MODEL 3
REMARK VINA RESULT:    -8.780      9.179     12.799
REMARK INTER + INTRA:         -15.878
REMARK INTER:                 -11.763
REMARK INTRA:                  -4.115
REMARK CONF_INDEPENDENT:        2.983
REMARK UNBOUND:                -4.115
REMARK  10 active torsions:
REMARK  status: ('A' for Active; 'I' for Inactive)
REMARK    1  A    between atoms: C_2  and  C_3 
REMARK       I    between atoms: C_2  and  N_12 
REMARK    2  A    between atoms: C_3  and  O_4 
REMARK    3  A    between atoms: O_4  and  C_5 
REMARK    4  A    between atoms: N_12  and  N_13 
REMARK       I    between atoms: N_13  and  C_14 
REMARK    5  A    between atoms: C_14  and  C_16 
REMARK    6  A    between atoms: C_19  and  C_20 
REMARK       I    between atoms: C_20  and  N_22 
REMARK    7  A    between atoms: N_22  and  N_23 
REMARK       I    between atoms: N_23  and  C_24 
REMARK    8  A    between atoms: C_24  and  C_26 
REMARK    9  A    between atoms: C_26  and  O_27 
REMARK   10  A    between atoms: O_27  and  C_28 
ROOT
ATOM      1  C   UNL d   1      28.304 -12.221   6.214  0.00  0.00     0.033 A 
ATOM      2  C   UNL d   1      28.129 -11.383   5.104  0.00  0.00     0.018 A 
ATOM      3  C   UNL d   1      27.773 -11.923   3.841  0.00  0.00     0.018 A 
ATOM      4  C   UNL d   1      27.644 -13.314   3.643  0.00  0.00     0.033 A 
ATOM      5  C   UNL d   1      27.803 -14.134   4.769  0.00  0.00     0.018 A 
ATOM      6  C   UNL d   1      28.128 -13.598   6.035  0.00  0.00     0.018 A 
ENDROOT
BRANCH   1   7
ATOM      7  C   UNL d   1      28.549 -11.652   7.583  0.00  0.00     0.270 C 
ATOM      8  N   UNL d   1      28.279 -12.485   8.666  0.00  0.00    -0.263 N 
ATOM      9  H   UNL d   1      28.040 -13.459   8.535  0.00  0.00     0.190 HD
ATOM     10  O   UNL d   1      28.955 -10.495   7.704  0.00  0.00    -0.266 OA
BRANCH   8  11
ATOM     11  N   UNL d   1      28.478 -11.996   9.976  0.00  0.00    -0.265 N 
ATOM     12  C   UNL d   1      28.258 -12.688  11.154  0.00  0.00     0.260 C 
ATOM     13  O   UNL d   1      28.461 -12.123  12.230  0.00  0.00    -0.269 OA
ATOM     14  H   UNL d   1      28.798 -11.028  10.059  0.00  0.00     0.190 HD
BRANCH  12  15
ATOM     15  C   UNL d   1      27.781 -14.148  11.066  0.00  0.00     0.280 C 
BRANCH  15  16
ATOM     16  O   UNL d   1      28.392 -14.838   9.971  0.00  0.00    -0.342 OA
BRANCH  16  17
ATOM     17  C   UNL d   1      29.757 -14.944  10.006  0.00  0.00     0.069 A 
ATOM     18  C   UNL d   1      30.614 -14.314   9.103  0.00  0.00     0.038 A 
ATOM     19  C   UNL d   1      32.002 -14.448   9.240  0.00  0.00     0.026 A 
ATOM     20  C   UNL d   1      32.533 -15.201  10.286  0.00  0.00     0.034 A 
ATOM     21 CL   UNL d   1      34.238 -15.383  10.429  0.00  0.00    -0.084 Cl
ATOM     22  C   UNL d   1      31.688 -15.800  11.214  0.00  0.00     0.026 A 
ATOM     23  C   UNL d   1      30.300 -15.661  11.078  0.00  0.00     0.038 A 
ENDBRANCH  16  17
ENDBRANCH  15  16
ENDBRANCH  12  15
ENDBRANCH   8  11
ENDBRANCH   1   7
BRANCH   4  24
ATOM     24  C   UNL d   1      27.387 -13.859   2.244  0.00  0.00     0.270 C 
ATOM     25  O   UNL d   1      26.446 -13.426   1.577  0.00  0.00    -0.266 OA
ATOM     26  N   UNL d   1      28.259 -14.820   1.732  0.00  0.00    -0.263 N 
ATOM     27  H   UNL d   1      29.063 -15.199   2.228  0.00  0.00     0.190 HD
BRANCH  26  28
ATOM     28  N   UNL d   1      28.100 -15.324   0.398  0.00  0.00    -0.265 N 
ATOM     29  C   UNL d   1      29.095 -16.161  -0.112  0.00  0.00     0.260 C 
ATOM     30  O   UNL d   1      30.086 -16.434   0.573  0.00  0.00    -0.269 OA
ATOM     31  H   UNL d   1      27.253 -15.046  -0.095  0.00  0.00     0.190 HD
BRANCH  29  32
ATOM     32  C   UNL d   1      28.884 -16.700  -1.556  0.00  0.00     0.280 C 
BRANCH  32  33
ATOM     33  O   UNL d   1      27.626 -16.253  -2.091  0.00  0.00    -0.342 OA
BRANCH  33  34
ATOM     34  C   UNL d   1      26.482 -16.807  -1.576  0.00  0.00     0.069 A 
ATOM     35  C   UNL d   1      26.458 -17.740  -0.538  0.00  0.00     0.038 A 
ATOM     36  C   UNL d   1      25.233 -18.219  -0.045  0.00  0.00     0.026 A 
ATOM     37  C   UNL d   1      24.031 -17.757  -0.579  0.00  0.00     0.034 A 
ATOM     38 CL   UNL d   1      22.536 -18.375   0.009  0.00  0.00    -0.084 Cl
ATOM     39  C   UNL d   1      24.042 -16.795  -1.584  0.00  0.00     0.026 A 
ATOM     40  C   UNL d   1      25.267 -16.314  -2.071  0.00  0.00     0.038 A 
ENDBRANCH  33  34
ENDBRANCH  32  33
ENDBRANCH  29  32
ENDBRANCH  26  28
ENDBRANCH   4  24
TORSDOF 10
ENDMDL
MODEL 4
REMARK VINA RESULT:    -8.438      9.284     12.852
REMARK INTER + INTRA:         -15.214
REMARK INTER:                 -11.421
REMARK INTRA:                  -3.793
REMARK CONF_INDEPENDENT:        2.983
REMARK UNBOUND:                -3.793
REMARK  10 active torsions:
REMARK  status: ('A' for Active; 'I' for Inactive)
REMARK    1  A    between atoms: C_2  and  C_3 
REMARK       I    between atoms: C_2  and  N_12 
REMARK    2  A    between atoms: C_3  and  O_4 
REMARK    3  A    between atoms: O_4  and  C_5 
REMARK    4  A    between atoms: N_12  and  N_13 
REMARK       I    between atoms: N_13  and  C_14 
REMARK    5  A    between atoms: C_14  and  C_16 
REMARK    6  A    between atoms: C_19  and  C_20 
REMARK       I    between atoms: C_20  and  N_22 
REMARK    7  A    between atoms: N_22  and  N_23 
REMARK       I    between atoms: N_23  and  C_24 
REMARK    8  A    between atoms: C_24  and  C_26 
REMARK    9  A    between atoms: C_26  and  O_27 
REMARK   10  A    between atoms: O_27  and  C_28 
ROOT
ATOM      1  C   UNL d   1      30.013 -13.773   6.482  0.00  0.00     0.033 A 
ATOM      2  C   UNL d   1      28.916 -14.641   6.391  0.00  0.00     0.018 A 
ATOM      3  C   UNL d   1      28.227 -14.807   5.163  0.00  0.00     0.018 A 
ATOM      4  C   UNL d   1      28.577 -14.066   4.015  0.00  0.00     0.033 A 
ATOM      5  C   UNL d   1      29.688 -13.217   4.119  0.00  0.00     0.018 A 
ATOM      6  C   UNL d   1      30.396 -13.072   5.333  0.00  0.00     0.018 A 
ENDROOT
BRANCH   1   7
ATOM      7  C   UNL d   1      30.832 -13.689   7.739  0.00  0.00     0.270 C 
ATOM      8  N   UNL d   1      30.515 -14.586   8.756  0.00  0.00    -0.263 N 
ATOM      9  H   UNL d   1      29.845 -15.330   8.612  0.00  0.00     0.190 HD
ATOM     10  O   UNL d   1      31.724 -12.843   7.837  0.00  0.00    -0.266 OA
BRANCH   8  11
ATOM     11  N   UNL d   1      31.244 -14.542   9.964  0.00  0.00    -0.265 N 
ATOM     12  C   UNL d   1      30.720 -14.616  11.244  0.00  0.00     0.260 C 
ATOM     13  O   UNL d   1      31.482 -14.546  12.210  0.00  0.00    -0.269 OA
ATOM     14  H   UNL d   1      32.257 -14.423   9.884  0.00  0.00     0.190 HD
BRANCH  12  15
ATOM     15  C   UNL d   1      29.201 -14.798  11.402  0.00  0.00     0.280 C 
BRANCH  15  16
ATOM     16  O   UNL d   1      28.531 -13.541  11.552  0.00  0.00    -0.342 OA
BRANCH  16  17
ATOM     17  C   UNL d   1      28.849 -12.571  10.640  0.00  0.00     0.069 A 
ATOM     18  C   UNL d   1      29.887 -11.654  10.802  0.00  0.00     0.038 A 
ATOM     19  C   UNL d   1      30.165 -10.719   9.796  0.00  0.00     0.026 A 
ATOM     20  C   UNL d   1      29.414 -10.711   8.622  0.00  0.00     0.034 A 
ATOM     21 CL   UNL d   1      29.744  -9.541   7.404  0.00  0.00    -0.084 Cl
ATOM     22  C   UNL d   1      28.403 -11.647   8.433  0.00  0.00     0.026 A 
ATOM     23  C   UNL d   1      28.129 -12.584   9.439  0.00  0.00     0.038 A 
ENDBRANCH  16  17
ENDBRANCH  15  16
ENDBRANCH  12  15
ENDBRANCH   8  11
ENDBRANCH   1   7
BRANCH   4  24
ATOM     24  C   UNL d   1      27.731 -14.180   2.753  0.00  0.00     0.270 C 
ATOM     25  O   UNL d   1      26.832 -13.365   2.538  0.00  0.00    -0.266 OA
ATOM     26  N   UNL d   1      28.025 -15.194   1.842  0.00  0.00    -0.263 N 
ATOM     27  H   UNL d   1      28.767 -15.881   1.956  0.00  0.00     0.190 HD
BRANCH  26  28
ATOM     28  N   UNL d   1      27.301 -15.311   0.608  0.00  0.00    -0.265 N 
ATOM     29  C   UNL d   1      27.738 -16.254  -0.325  0.00  0.00     0.260 C 
ATOM     30  O   UNL d   1      28.732 -16.946  -0.087  0.00  0.00    -0.269 OA
ATOM     31  H   UNL d   1      26.494 -14.699   0.496  0.00  0.00     0.190 HD
BRANCH  29  32
ATOM     32  C   UNL d   1      26.921 -16.364  -1.644  0.00  0.00     0.280 C 
BRANCH  32  33
ATOM     33  O   UNL d   1      25.598 -15.825  -1.474  0.00  0.00    -0.342 OA
BRANCH  33  34
ATOM     34  C   UNL d   1      24.588 -16.700  -1.166  0.00  0.00     0.069 A 
ATOM     35  C   UNL d   1      24.789 -18.009  -0.727  0.00  0.00     0.038 A 
ATOM     36  C   UNL d   1      23.691 -18.820  -0.391  0.00  0.00     0.026 A 
ATOM     37  C   UNL d   1      22.394 -18.318  -0.481  0.00  0.00     0.034 A 
ATOM     38 CL   UNL d   1      21.055 -19.329  -0.098  0.00  0.00    -0.084 Cl
ATOM     39  C   UNL d   1      22.184 -17.001  -0.876  0.00  0.00     0.026 A 
ATOM     40  C   UNL d   1      23.282 -16.192  -1.205  0.00  0.00     0.038 A 
ENDBRANCH  33  34
ENDBRANCH  32  33
ENDBRANCH  29  32
ENDBRANCH  26  28
ENDBRANCH   4  24
TORSDOF 10
ENDMDL
MODEL 5
REMARK VINA RESULT:    -8.218      1.545      2.039
REMARK INTER + INTRA:         -15.175
REMARK INTER:                 -11.201
REMARK INTRA:                  -3.974
REMARK CONF_INDEPENDENT:        2.983
REMARK UNBOUND:                -3.974
REMARK  10 active torsions:
REMARK  status: ('A' for Active; 'I' for Inactive)
REMARK    1  A    between atoms: C_2  and  C_3 
REMARK       I    between atoms: C_2  and  N_12 
REMARK    2  A    between atoms: C_3  and  O_4 
REMARK    3  A    between atoms: O_4  and  C_5 
REMARK    4  A    between atoms: N_12  and  N_13 
REMARK       I    between atoms: N_13  and  C_14 
REMARK    5  A    between atoms: C_14  and  C_16 
REMARK    6  A    between atoms: C_19  and  C_20 
REMARK       I    between atoms: C_20  and  N_22 
REMARK    7  A    between atoms: N_22  and  N_23 
REMARK       I    between atoms: N_23  and  C_24 
REMARK    8  A    between atoms: C_24  and  C_26 
REMARK    9  A    between atoms: C_26  and  O_27 
REMARK   10  A    between atoms: O_27  and  C_28 
ROOT
ATOM      1  C   UNL d   1      28.776 -13.342  -5.978  0.00  0.00     0.033 A 
ATOM      2  C   UNL d   1      28.400 -12.722  -4.778  0.00  0.00     0.018 A 
ATOM      3  C   UNL d   1      27.386 -13.283  -3.963  0.00  0.00     0.018 A 
ATOM      4  C   UNL d   1      26.681 -14.441  -4.354  0.00  0.00     0.033 A 
ATOM      5  C   UNL d   1      27.083 -15.058  -5.547  0.00  0.00     0.018 A 
ATOM      6  C   UNL d   1      28.115 -14.518  -6.347  0.00  0.00     0.018 A 
ENDROOT
BRANCH   1   7
ATOM      7  C   UNL d   1      29.938 -12.832  -6.783  0.00  0.00     0.270 C 
ATOM      8  N   UNL d   1      30.080 -13.340  -8.072  0.00  0.00    -0.263 N 
ATOM      9  H   UNL d   1      29.373 -13.935  -8.484  0.00  0.00     0.190 HD
ATOM     10  O   UNL d   1      30.717 -12.015  -6.288  0.00  0.00    -0.266 OA
BRANCH   8  11
ATOM     11  N   UNL d   1      31.162 -12.906  -8.867  0.00  0.00    -0.265 N 
ATOM     12  C   UNL d   1      32.507 -13.092  -8.599  0.00  0.00     0.260 C 
ATOM     13  O   UNL d   1      33.345 -12.639  -9.380  0.00  0.00    -0.269 OA
ATOM     14  H   UNL d   1      30.927 -12.384  -9.715  0.00  0.00     0.190 HD
BRANCH  12  15
ATOM     15  C   UNL d   1      32.898 -13.875  -7.333  0.00  0.00     0.280 C 
BRANCH  15  16
ATOM     16  O   UNL d   1      32.286 -15.170  -7.304  0.00  0.00    -0.342 OA
BRANCH  16  17
ATOM     17  C   UNL d   1      31.638 -15.509  -6.146  0.00  0.00     0.069 A 
ATOM     18  C   UNL d   1      31.779 -14.822  -4.941  0.00  0.00     0.038 A 
ATOM     19  C   UNL d   1      31.044 -15.217  -3.815  0.00  0.00     0.026 A 
ATOM     20  C   UNL d   1      30.160 -16.292  -3.898  0.00  0.00     0.034 A 
ATOM     21 CL   UNL d   1      29.284 -16.788  -2.503  0.00  0.00    -0.084 Cl
ATOM     22  C   UNL d   1      29.983 -16.958  -5.106  0.00  0.00     0.026 A 
ATOM     23  C   UNL d   1      30.715 -16.558  -6.232  0.00  0.00     0.038 A 
ENDBRANCH  16  17
ENDBRANCH  15  16
ENDBRANCH  12  15
ENDBRANCH   8  11
ENDBRANCH   1   7
BRANCH   4  24
ATOM     24  C   UNL d   1      25.513 -14.938  -3.512  0.00  0.00     0.270 C 
ATOM     25  O   UNL d   1      24.393 -14.447  -3.660  0.00  0.00    -0.266 OA
ATOM     26  N   UNL d   1      25.736 -15.979  -2.609  0.00  0.00    -0.263 N 
ATOM     27  H   UNL d   1      26.632 -16.436  -2.459  0.00  0.00     0.190 HD
BRANCH  26  28
ATOM     28  N   UNL d   1      24.660 -16.527  -1.835  0.00  0.00    -0.265 N 
ATOM     29  C   UNL d   1      24.968 -17.480  -0.861  0.00  0.00     0.260 C 
ATOM     30  O   UNL d   1      26.137 -17.842  -0.697  0.00  0.00    -0.269 OA
ATOM     31  H   UNL d   1      23.727 -16.172  -2.038  0.00  0.00     0.190 HD
BRANCH  29  32
ATOM     32  C   UNL d   1      23.779 -18.042  -0.030  0.00  0.00     0.280 C 
BRANCH  32  33
ATOM     33  O   UNL d   1      22.523 -17.738  -0.663  0.00  0.00    -0.342 OA
BRANCH  33  34
ATOM     34  C   UNL d   1      21.443 -18.520  -0.344  0.00  0.00     0.069 A 
ATOM     35  C   UNL d   1      20.505 -18.982  -1.269  0.00  0.00     0.038 A 
ATOM     36  C   UNL d   1      19.454 -19.817  -0.856  0.00  0.00     0.026 A 
ATOM     37  C   UNL d   1      19.348 -20.204   0.479  0.00  0.00     0.034 A 
ATOM     38 CL   UNL d   1      18.038 -21.201   0.982  0.00  0.00    -0.084 Cl
ATOM     39  C   UNL d   1      20.301 -19.786   1.402  0.00  0.00     0.026 A 
ATOM     40  C   UNL d   1      21.353 -18.956   0.985  0.00  0.00     0.038 A 
ENDBRANCH  33  34
ENDBRANCH  32  33
ENDBRANCH  29  32
ENDBRANCH  26  28
ENDBRANCH   4  24
TORSDOF 10
ENDMDL
MODEL 6
REMARK VINA RESULT:    -7.955      8.456     11.475
REMARK INTER + INTRA:         -14.696
REMARK INTER:                 -10.938
REMARK INTRA:                  -3.758
REMARK CONF_INDEPENDENT:        2.983
REMARK UNBOUND:                -3.758
REMARK  10 active torsions:
REMARK  status: ('A' for Active; 'I' for Inactive)
REMARK    1  A    between atoms: C_2  and  C_3 
REMARK       I    between atoms: C_2  and  N_12 
REMARK    2  A    between atoms: C_3  and  O_4 
REMARK    3  A    between atoms: O_4  and  C_5 
REMARK    4  A    between atoms: N_12  and  N_13 
REMARK       I    between atoms: N_13  and  C_14 
REMARK    5  A    between atoms: C_14  and  C_16 
REMARK    6  A    between atoms: C_19  and  C_20 
REMARK       I    between atoms: C_20  and  N_22 
REMARK    7  A    between atoms: N_22  and  N_23 
REMARK       I    between atoms: N_23  and  C_24 
REMARK    8  A    between atoms: C_24  and  C_26 
REMARK    9  A    between atoms: C_26  and  O_27 
REMARK   10  A    between atoms: O_27  and  C_28 
ROOT
ATOM      1  C   UNL d   1      27.351 -13.106   1.314  0.00  0.00     0.033 A 
ATOM      2  C   UNL d   1      27.631 -14.421   1.713  0.00  0.00     0.018 A 
ATOM      3  C   UNL d   1      27.849 -14.730   3.079  0.00  0.00     0.018 A 
ATOM      4  C   UNL d   1      27.854 -13.726   4.071  0.00  0.00     0.033 A 
ATOM      5  C   UNL d   1      27.553 -12.421   3.657  0.00  0.00     0.018 A 
ATOM      6  C   UNL d   1      27.305 -12.114   2.300  0.00  0.00     0.018 A 
ENDROOT
BRANCH   1   7
ATOM      7  C   UNL d   1      26.987 -12.789  -0.108  0.00  0.00     0.270 C 
ATOM      8  N   UNL d   1      26.286 -13.768  -0.810  0.00  0.00    -0.263 N 
ATOM      9  H   UNL d   1      25.941 -14.599  -0.350  0.00  0.00     0.190 HD
ATOM     10  O   UNL d   1      27.323 -11.712  -0.604  0.00  0.00    -0.266 OA
BRANCH   8  11
ATOM     11  N   UNL d   1      25.930 -13.528  -2.155  0.00  0.00    -0.265 N 
ATOM     12  C   UNL d   1      25.699 -14.485  -3.127  0.00  0.00     0.260 C 
ATOM     13  O   UNL d   1      25.411 -14.124  -4.270  0.00  0.00    -0.269 OA
ATOM     14  H   UNL d   1      25.857 -12.548  -2.442  0.00  0.00     0.190 HD
BRANCH  12  15
ATOM     15  C   UNL d   1      25.796 -15.968  -2.731  0.00  0.00     0.280 C 
BRANCH  15  16
ATOM     16  O   UNL d   1      25.596 -16.153  -1.325  0.00  0.00    -0.342 OA
BRANCH  16  17
ATOM     17  C   UNL d   1      24.545 -16.952  -0.962  0.00  0.00     0.069 A 
ATOM     18  C   UNL d   1      24.675 -18.283  -0.563  0.00  0.00     0.038 A 
ATOM     19  C   UNL d   1      23.546 -19.014  -0.171  0.00  0.00     0.026 A 
ATOM     20  C   UNL d   1      22.290 -18.411  -0.163  0.00  0.00     0.034 A 
ATOM     21 CL   UNL d   1      20.905 -19.325   0.293  0.00  0.00    -0.084 Cl
ATOM     22  C   UNL d   1      22.155 -17.073  -0.520  0.00  0.00     0.026 A 
ATOM     23  C   UNL d   1      23.286 -16.343  -0.908  0.00  0.00     0.038 A 
ENDBRANCH  16  17
ENDBRANCH  15  16
ENDBRANCH  12  15
ENDBRANCH   8  11
ENDBRANCH   1   7
BRANCH   4  24
ATOM     24  C   UNL d   1      28.219 -14.082   5.507  0.00  0.00     0.270 C 
ATOM     25  O   UNL d   1      28.622 -15.214   5.778  0.00  0.00    -0.266 OA
ATOM     26  N   UNL d   1      28.124 -13.090   6.484  0.00  0.00    -0.263 N 
ATOM     27  H   UNL d   1      27.818 -12.135   6.315  0.00  0.00     0.190 HD
BRANCH  26  28
ATOM     28  N   UNL d   1      28.512 -13.352   7.840  0.00  0.00    -0.265 N 
ATOM     29  C   UNL d   1      28.490 -12.291   8.748  0.00  0.00     0.260 C 
ATOM     30  O   UNL d   1      28.160 -11.162   8.373  0.00  0.00    -0.269 OA
ATOM     31  H   UNL d   1      28.772 -14.312   8.062  0.00  0.00     0.190 HD
BRANCH  29  32
ATOM     32  C   UNL d   1      28.904 -12.613  10.213  0.00  0.00     0.280 C 
BRANCH  32  33
ATOM     33  O   UNL d   1      29.111 -14.026  10.387  0.00  0.00    -0.342 OA
BRANCH  33  34
ATOM     34  C   UNL d   1      30.404 -14.477  10.455  0.00  0.00     0.069 A 
ATOM     35  C   UNL d   1      31.339 -14.342   9.427  0.00  0.00     0.038 A 
ATOM     36  C   UNL d   1      32.657 -14.794   9.605  0.00  0.00     0.026 A 
ATOM     37  C   UNL d   1      33.045 -15.370  10.813  0.00  0.00     0.034 A 
ATOM     38 CL   UNL d   1      34.653 -15.952  11.009  0.00  0.00    -0.084 Cl
ATOM     39  C   UNL d   1      32.134 -15.470  11.860  0.00  0.00     0.026 A 
ATOM     40  C   UNL d   1      30.820 -15.012  11.682  0.00  0.00     0.038 A 
ENDBRANCH  33  34
ENDBRANCH  32  33
ENDBRANCH  29  32
ENDBRANCH  26  28
ENDBRANCH   4  24
TORSDOF 10
ENDMDL
MODEL 7
REMARK VINA RESULT:    -7.893      5.970      9.820
REMARK INTER + INTRA:         -14.846
REMARK INTER:                 -10.876
REMARK INTRA:                  -3.971
REMARK CONF_INDEPENDENT:        2.983
REMARK UNBOUND:                -3.971
REMARK  10 active torsions:
REMARK  status: ('A' for Active; 'I' for Inactive)
REMARK    1  A    between atoms: C_2  and  C_3 
REMARK       I    between atoms: C_2  and  N_12 
REMARK    2  A    between atoms: C_3  and  O_4 
REMARK    3  A    between atoms: O_4  and  C_5 
REMARK    4  A    between atoms: N_12  and  N_13 
REMARK       I    between atoms: N_13  and  C_14 
REMARK    5  A    between atoms: C_14  and  C_16 
REMARK    6  A    between atoms: C_19  and  C_20 
REMARK       I    between atoms: C_20  and  N_22 
REMARK    7  A    between atoms: N_22  and  N_23 
REMARK       I    between atoms: N_23  and  C_24 
REMARK    8  A    between atoms: C_24  and  C_26 
REMARK    9  A    between atoms: C_26  and  O_27 
REMARK   10  A    between atoms: O_27  and  C_28 
ROOT
ATOM      1  C   UNL d   1      27.936 -14.439  -4.671  0.00  0.00     0.033 A 
ATOM      2  C   UNL d   1      26.752 -13.982  -4.076  0.00  0.00     0.018 A 
ATOM      3  C   UNL d   1      26.060 -12.865  -4.610  0.00  0.00     0.018 A 
ATOM      4  C   UNL d   1      26.565 -12.143  -5.712  0.00  0.00     0.033 A 
ATOM      5  C   UNL d   1      27.739 -12.626  -6.306  0.00  0.00     0.018 A 
ATOM      6  C   UNL d   1      28.415 -13.757  -5.795  0.00  0.00     0.018 A 
ENDROOT
BRANCH   1   7
ATOM      7  C   UNL d   1      28.604 -15.698  -4.197  0.00  0.00     0.270 C 
ATOM      8  N   UNL d   1      28.638 -15.911  -2.821  0.00  0.00    -0.263 N 
ATOM      9  H   UNL d   1      28.137 -15.307  -2.183  0.00  0.00     0.190 HD
ATOM     10  O   UNL d   1      29.104 -16.475  -5.014  0.00  0.00    -0.266 OA
BRANCH   8  11
ATOM     11  N   UNL d   1      29.266 -17.071  -2.319  0.00  0.00    -0.265 N 
ATOM     12  C   UNL d   1      29.354 -17.451  -0.991  0.00  0.00     0.260 C 
ATOM     13  O   UNL d   1      29.952 -18.488  -0.700  0.00  0.00    -0.269 OA
ATOM     14  H   UNL d   1      29.719 -17.680  -3.006  0.00  0.00     0.190 HD
BRANCH  12  15
ATOM     15  C   UNL d   1      28.682 -16.560   0.069  0.00  0.00     0.280 C 
BRANCH  15  16
ATOM     16  O   UNL d   1      27.553 -15.861  -0.468  0.00  0.00    -0.342 OA
BRANCH  16  17
ATOM     17  C   UNL d   1      26.372 -16.552  -0.506  0.00  0.00     0.069 A 
ATOM     18  C   UNL d   1      26.126 -17.721   0.215  0.00  0.00     0.038 A 
ATOM     19  C   UNL d   1      24.872 -18.340   0.145  0.00  0.00     0.026 A 
ATOM     20  C   UNL d   1      23.859 -17.783  -0.634  0.00  0.00     0.034 A 
ATOM     21 CL   UNL d   1      22.330 -18.566  -0.736  0.00  0.00    -0.084 Cl
ATOM     22  C   UNL d   1      24.081 -16.596  -1.324  0.00  0.00     0.026 A 
ATOM     23  C   UNL d   1      25.335 -15.976  -1.249  0.00  0.00     0.038 A 
ENDBRANCH  16  17
ENDBRANCH  15  16
ENDBRANCH  12  15
ENDBRANCH   8  11
ENDBRANCH   1   7
BRANCH   4  24
ATOM     24  C   UNL d   1      25.858 -10.874  -6.174  0.00  0.00     0.270 C 
ATOM     25  O   UNL d   1      25.530 -10.747  -7.355  0.00  0.00    -0.266 OA
ATOM     26  N   UNL d   1      25.563  -9.893  -5.228  0.00  0.00    -0.263 N 
ATOM     27  H   UNL d   1      25.790  -9.952  -4.238  0.00  0.00     0.190 HD
BRANCH  26  28
ATOM     28  N   UNL d   1      24.846  -8.706  -5.595  0.00  0.00    -0.265 N 
ATOM     29  C   UNL d   1      24.694  -7.704  -4.634  0.00  0.00     0.260 C 
ATOM     30  O   UNL d   1      25.155  -7.859  -3.500  0.00  0.00    -0.269 OA
ATOM     31  H   UNL d   1      24.498  -8.663  -6.552  0.00  0.00     0.190 HD
BRANCH  29  32
ATOM     32  C   UNL d   1      23.924  -6.425  -5.071  0.00  0.00     0.280 C 
BRANCH  32  33
ATOM     33  O   UNL d   1      23.719  -6.412  -6.495  0.00  0.00    -0.342 OA
BRANCH  33  34
ATOM     34  C   UNL d   1      22.426  -6.425  -6.953  0.00  0.00     0.069 A 
ATOM     35  C   UNL d   1      21.305  -6.200  -6.152  0.00  0.00     0.038 A 
ATOM     36  C   UNL d   1      20.020  -6.188  -6.720  0.00  0.00     0.026 A 
ATOM     37  C   UNL d   1      19.855  -6.388  -8.089  0.00  0.00     0.034 A 
ATOM     38 CL   UNL d   1      18.274  -6.404  -8.770  0.00  0.00    -0.084 Cl
ATOM     39  C   UNL d   1      20.968  -6.569  -8.904  0.00  0.00     0.026 A 
ATOM     40  C   UNL d   1      22.251  -6.575  -8.336  0.00  0.00     0.038 A 
ENDBRANCH  33  34
ENDBRANCH  32  33
ENDBRANCH  29  32
ENDBRANCH  26  28
ENDBRANCH   4  24
TORSDOF 10
ENDMDL
MODEL 8
REMARK VINA RESULT:    -7.479      2.606      4.237
REMARK INTER + INTRA:         -14.499
REMARK INTER:                 -10.462
REMARK INTRA:                  -4.038
REMARK CONF_INDEPENDENT:        2.983
REMARK UNBOUND:                -4.038
REMARK  10 active torsions:
REMARK  status: ('A' for Active; 'I' for Inactive)
REMARK    1  A    between atoms: C_2  and  C_3 
REMARK       I    between atoms: C_2  and  N_12 
REMARK    2  A    between atoms: C_3  and  O_4 
REMARK    3  A    between atoms: O_4  and  C_5 
REMARK    4  A    between atoms: N_12  and  N_13 
REMARK       I    between atoms: N_13  and  C_14 
REMARK    5  A    between atoms: C_14  and  C_16 
REMARK    6  A    between atoms: C_19  and  C_20 
REMARK       I    between atoms: C_20  and  N_22 
REMARK    7  A    between atoms: N_22  and  N_23 
REMARK       I    between atoms: N_23  and  C_24 
REMARK    8  A    between atoms: C_24  and  C_26 
REMARK    9  A    between atoms: C_26  and  O_27 
REMARK   10  A    between atoms: O_27  and  C_28 
ROOT
ATOM      1  C   UNL d   1      29.696 -15.196  -5.966  0.00  0.00     0.033 A 
ATOM      2  C   UNL d   1      28.481 -14.835  -6.564  0.00  0.00     0.018 A 
ATOM      3  C   UNL d   1      27.285 -14.796  -5.803  0.00  0.00     0.018 A 
ATOM      4  C   UNL d   1      27.263 -15.174  -4.443  0.00  0.00     0.033 A 
ATOM      5  C   UNL d   1      28.491 -15.513  -3.857  0.00  0.00     0.018 A 
ATOM      6  C   UNL d   1      29.689 -15.524  -4.605  0.00  0.00     0.018 A 
ENDROOT
BRANCH   1   7
ATOM      7  C   UNL d   1      30.989 -15.113  -6.727  0.00  0.00     0.270 C 
ATOM      8  N   UNL d   1      31.571 -13.852  -6.841  0.00  0.00    -0.263 N 
ATOM      9  H   UNL d   1      31.201 -13.055  -6.340  0.00  0.00     0.190 HD
ATOM     10  O   UNL d   1      31.474 -16.129  -7.228  0.00  0.00    -0.266 OA
BRANCH   8  11
ATOM     11  N   UNL d   1      32.779 -13.714  -7.557  0.00  0.00    -0.265 N 
ATOM     12  C   UNL d   1      33.171 -12.618  -8.305  0.00  0.00     0.260 C 
ATOM     13  O   UNL d   1      34.253 -12.647  -8.894  0.00  0.00    -0.269 OA
ATOM     14  H   UNL d   1      33.417 -14.514  -7.538  0.00  0.00     0.190 HD
BRANCH  12  15
ATOM     15  C   UNL d   1      32.238 -11.395  -8.354  0.00  0.00     0.280 C 
BRANCH  15  16
ATOM     16  O   UNL d   1      31.776 -11.030  -7.049  0.00  0.00    -0.342 OA
BRANCH  16  17
ATOM     17  C   UNL d   1      30.426 -11.108  -6.838  0.00  0.00     0.069 A 
ATOM     18  C   UNL d   1      29.484 -11.272  -7.854  0.00  0.00     0.038 A 
ATOM     19  C   UNL d   1      28.122 -11.381  -7.541  0.00  0.00     0.026 A 
ATOM     20  C   UNL d   1      27.704 -11.340  -6.211  0.00  0.00     0.034 A 
ATOM     21 CL   UNL d   1      26.028 -11.447  -5.838  0.00  0.00    -0.084 Cl
ATOM     22  C   UNL d   1      28.640 -11.218  -5.189  0.00  0.00     0.026 A 
ATOM     23  C   UNL d   1      30.001 -11.113  -5.504  0.00  0.00     0.038 A 
ENDBRANCH  16  17
ENDBRANCH  15  16
ENDBRANCH  12  15
ENDBRANCH   8  11
ENDBRANCH   1   7
BRANCH   4  24
ATOM     24  C   UNL d   1      25.937 -15.240  -3.697  0.00  0.00     0.270 C 
ATOM     25  O   UNL d   1      24.997 -14.525  -4.046  0.00  0.00    -0.266 OA
ATOM     26  N   UNL d   1      25.807 -16.150  -2.647  0.00  0.00    -0.263 N 
ATOM     27  H   UNL d   1      26.541 -16.779  -2.329  0.00  0.00     0.190 HD
BRANCH  26  28
ATOM     28  N   UNL d   1      24.562 -16.298  -1.949  0.00  0.00    -0.265 N 
ATOM     29  C   UNL d   1      24.477 -17.276  -0.956  0.00  0.00     0.260 C 
ATOM     30  O   UNL d   1      25.448 -17.998  -0.712  0.00  0.00    -0.269 OA
ATOM     31  H   UNL d   1      23.813 -15.661  -2.216  0.00  0.00     0.190 HD
BRANCH  29  32
ATOM     32  C   UNL d   1      23.117 -17.400  -0.210  0.00  0.00     0.280 C 
BRANCH  32  33
ATOM     33  O   UNL d   1      22.105 -17.945  -1.075  0.00  0.00    -0.342 OA
BRANCH  33  34
ATOM     34  C   UNL d   1      21.111 -18.693  -0.500  0.00  0.00     0.069 A 
ATOM     35  C   UNL d   1      20.064 -19.287  -1.208  0.00  0.00     0.038 A 
ATOM     36  C   UNL d   1      19.114 -20.075  -0.537  0.00  0.00     0.026 A 
ATOM     37  C   UNL d   1      19.216 -20.282   0.837  0.00  0.00     0.034 A 
ATOM     38 CL   UNL d   1      18.029 -21.223   1.654  0.00  0.00    -0.084 Cl
ATOM     39  C   UNL d   1      20.280 -19.732   1.545  0.00  0.00     0.026 A 
ATOM     40  C   UNL d   1      21.231 -18.950   0.873  0.00  0.00     0.038 A 
ENDBRANCH  33  34
ENDBRANCH  32  33
ENDBRANCH  29  32
ENDBRANCH  26  28
ENDBRANCH   4  24
TORSDOF 10
ENDMDL
MODEL 9
REMARK VINA RESULT:    -7.258      8.842     11.756
REMARK INTER + INTRA:         -14.731
REMARK INTER:                 -10.241
REMARK INTRA:                  -4.490
REMARK CONF_INDEPENDENT:        2.983
REMARK UNBOUND:                -4.490
REMARK  10 active torsions:
REMARK  status: ('A' for Active; 'I' for Inactive)
REMARK    1  A    between atoms: C_2  and  C_3 
REMARK       I    between atoms: C_2  and  N_12 
REMARK    2  A    between atoms: C_3  and  O_4 
REMARK    3  A    between atoms: O_4  and  C_5 
REMARK    4  A    between atoms: N_12  and  N_13 
REMARK       I    between atoms: N_13  and  C_14 
REMARK    5  A    between atoms: C_14  and  C_16 
REMARK    6  A    between atoms: C_19  and  C_20 
REMARK       I    between atoms: C_20  and  N_22 
REMARK    7  A    between atoms: N_22  and  N_23 
REMARK       I    between atoms: N_23  and  C_24 
REMARK    8  A    between atoms: C_24  and  C_26 
REMARK    9  A    between atoms: C_26  and  O_27 
REMARK   10  A    between atoms: O_27  and  C_28 
ROOT
ATOM      1  C   UNL d   1      29.460 -14.011   6.691  0.00  0.00     0.033 A 
ATOM      2  C   UNL d   1      30.027 -14.666   5.589  0.00  0.00     0.018 A 
ATOM      3  C   UNL d   1      29.380 -14.647   4.327  0.00  0.00     0.018 A 
ATOM      4  C   UNL d   1      28.125 -14.027   4.150  0.00  0.00     0.033 A 
ATOM      5  C   UNL d   1      27.583 -13.361   5.258  0.00  0.00     0.018 A 
ATOM      6  C   UNL d   1      28.239 -13.352   6.510  0.00  0.00     0.018 A 
ENDROOT
BRANCH   1   7
ATOM      7  C   UNL d   1      30.198 -13.910   7.996  0.00  0.00     0.270 C 
ATOM      8  N   UNL d   1      31.533 -13.519   7.934  0.00  0.00    -0.263 N 
ATOM      9  H   UNL d   1      31.951 -13.209   7.066  0.00  0.00     0.190 HD
ATOM     10  O   UNL d   1      29.622 -14.184   9.051  0.00  0.00    -0.266 OA
BRANCH   8  11
ATOM     11  N   UNL d   1      32.278 -13.422   9.129  0.00  0.00    -0.265 N 
ATOM     12  C   UNL d   1      32.879 -12.281   9.633  0.00  0.00     0.260 C 
ATOM     13  O   UNL d   1      33.516 -12.352  10.685  0.00  0.00    -0.269 OA
ATOM     14  H   UNL d   1      32.402 -14.286   9.663  0.00  0.00     0.190 HD
BRANCH  12  15
ATOM     15  C   UNL d   1      32.711 -10.963   8.857  0.00  0.00     0.280 C 
BRANCH  15  16
ATOM     16  O   UNL d   1      32.681 -11.183   7.442  0.00  0.00    -0.342 OA
BRANCH  16  17
ATOM     17  C   UNL d   1      31.504 -10.891   6.806  0.00  0.00     0.069 A 
ATOM     18  C   UNL d   1      30.429 -10.240   7.411  0.00  0.00     0.038 A 
ATOM     19  C   UNL d   1      29.277  -9.947   6.670  0.00  0.00     0.026 A 
ATOM     20  C   UNL d   1      29.204 -10.293   5.322  0.00  0.00     0.034 A 
ATOM     21 CL   UNL d   1      27.774  -9.955   4.428  0.00  0.00    -0.084 Cl
ATOM     22  C   UNL d   1      30.287 -10.907   4.700  0.00  0.00     0.026 A 
ATOM     23  C   UNL d   1      31.440 -11.195   5.442  0.00  0.00     0.038 A 
ENDBRANCH  16  17
ENDBRANCH  15  16
ENDBRANCH  12  15
ENDBRANCH   8  11
ENDBRANCH   1   7
BRANCH   4  24
ATOM     24  C   UNL d   1      27.406 -14.140   2.812  0.00  0.00     0.270 C 
ATOM     25  O   UNL d   1      26.576 -13.291   2.485  0.00  0.00    -0.266 OA
ATOM     26  N   UNL d   1      27.740 -15.195   1.963  0.00  0.00    -0.263 N 
ATOM     27  H   UNL d   1      28.431 -15.913   2.170  0.00  0.00     0.190 HD
BRANCH  26  28
ATOM     28  N   UNL d   1      27.139 -15.316   0.665  0.00  0.00    -0.265 N 
ATOM     29  C   UNL d   1      27.625 -16.302  -0.196  0.00  0.00     0.260 C 
ATOM     30  O   UNL d   1      28.559 -17.028   0.157  0.00  0.00    -0.269 OA
ATOM     31  H   UNL d   1      26.375 -14.675   0.457  0.00  0.00     0.190 HD
BRANCH  29  32
ATOM     32  C   UNL d   1      26.941 -16.414  -1.589  0.00  0.00     0.280 C 
BRANCH  32  33
ATOM     33  O   UNL d   1      25.605 -15.882  -1.548  0.00  0.00    -0.342 OA
BRANCH  33  34
ATOM     34  C   UNL d   1      24.585 -16.743  -1.236  0.00  0.00     0.069 A 
ATOM     35  C   UNL d   1      24.769 -18.068  -0.837  0.00  0.00     0.038 A 
ATOM     36  C   UNL d   1      23.663 -18.864  -0.493  0.00  0.00     0.026 A 
ATOM     37  C   UNL d   1      22.376 -18.333  -0.535  0.00  0.00     0.034 A 
ATOM     38 CL   UNL d   1      21.025 -19.325  -0.143  0.00  0.00    -0.084 Cl
ATOM     39  C   UNL d   1      22.184 -17.001  -0.889  0.00  0.00     0.026 A 
ATOM     40  C   UNL d   1      23.290 -16.207  -1.226  0.00  0.00     0.038 A 
ENDBRANCH  33  34
ENDBRANCH  32  33
ENDBRANCH  29  32
ENDBRANCH  26  28
ENDBRANCH   4  24
TORSDOF 10
ENDMDL
