MODEL 1
REMARK VINA RESULT:    -9.237      0.000      0.000
REMARK INTER + INTRA:         -12.893
REMARK INTER:                 -11.027
REMARK INTRA:                  -1.866
REMARK CONF_INDEPENDENT:        1.790
REMARK UNBOUND:                -1.866
REMARK  6 active torsions:
REMARK  status: ('A' for Active; 'I' for Inactive)
REMARK    1  A    between atoms: O_2  and  C_3 
REMARK    2  A    between atoms: C_3  and  C_4 
REMARK    3  A    between atoms: C_3  and  C_26 
REMARK       I    between atoms: C_4  and  N_6 
REMARK    4  A    between atoms: N_6  and  C_7 
REMARK    5  A    between atoms: N_11  and  C_12 
REMARK    6  A    between atoms: C_15  and  C_16 
ROOT
ATOM      1  C   UNL d   1      26.800 -15.556  -2.152  0.00  0.00     0.043 A 
ATOM      2  C   UNL d   1      25.392 -15.561  -2.335  0.00  0.00     0.066 A 
ATOM      3  C   UNL d   1      24.698 -16.548  -1.580  0.00  0.00     0.111 A 
ATOM      4  N   UNL d   1      23.394 -16.893  -1.568  0.00  0.00    -0.147 NA
ATOM      5  N   UNL d   1      23.331 -17.807  -0.562  0.00  0.00    -0.150 N 
ATOM      6  N   UNL d   1      24.488 -18.150   0.033  0.00  0.00    -0.147 NA
ATOM      7  C   UNL d   1      25.389 -17.423  -0.636  0.00  0.00     0.110 A 
ATOM      8  C   UNL d   1      26.774 -17.412  -0.476  0.00  0.00     0.045 A 
ATOM      9  C   UNL d   1      27.453 -16.443  -1.238  0.00  0.00    -0.033 A 
ATOM     10  C   UNL d   1      28.935 -16.363  -1.040  0.00  0.00     0.050 C 
ENDROOT
BRANCH   1  11
ATOM     11  N   UNL d   1      27.622 -14.615  -2.845  0.00  0.00    -0.324 N 
ATOM     12  C   UNL d   1      27.818 -14.717  -4.238  0.00  0.00     0.255 C 
ATOM     13  O   UNL d   1      27.197 -15.548  -4.918  0.00  0.00    -0.270 OA
ATOM     14  H   UNL d   1      27.731 -13.713  -2.403  0.00  0.00     0.169 HD
BRANCH  12  15
ATOM     15  C   UNL d   1      28.805 -13.689  -4.907  0.00  0.00     0.247 C 
BRANCH  15  16
ATOM     16  O   UNL d   1      29.324 -12.813  -3.876  0.00  0.00    -0.377 OA
ATOM     17  C   UNL d   1      30.734 -12.669  -3.856  0.00  0.00     0.203 C 
ENDBRANCH  15  16
BRANCH  15  18
ATOM     18  C   UNL d   1      28.113 -12.798  -5.981  0.00  0.00     0.001 C 
ATOM     19  C   UNL d   1      28.714 -12.615  -7.246  0.00  0.00     0.012 C 
ATOM     20  C   UNL d   1      28.271 -11.626  -8.139  0.00  0.00     0.001 C 
ATOM     21  C   UNL d   1      27.168 -10.841  -7.829  0.00  0.00     0.002 C 
ATOM     22  C   UNL d   1      26.454 -11.120  -6.675  0.00  0.00     0.024 C 
ATOM     23  C   UNL d   1      26.899 -12.109  -5.784  0.00  0.00     0.043 C 
ATOM     24 CL   UNL d   1      25.771 -12.501  -4.553  0.00  0.00    -0.084 Cl
ENDBRANCH  15  18
ENDBRANCH  12  15
ENDBRANCH   1  11
BRANCH   5  25
ATOM     25  C   UNL d   1      22.132 -18.459  -0.191  0.00  0.00     0.079 A 
ATOM     26  C   UNL d   1      21.769 -18.577   1.157  0.00  0.00     0.034 A 
ATOM     27  C   UNL d   1      20.658 -19.350   1.518  0.00  0.00     0.010 A 
ATOM     28  C   UNL d   1      19.872 -19.981   0.539  0.00  0.00    -0.055 A 
ATOM     29  C   UNL d   1      20.217 -19.777  -0.810  0.00  0.00     0.010 A 
ATOM     30  C   UNL d   1      21.351 -19.053  -1.177  0.00  0.00     0.034 A 
BRANCH  28  31
ATOM     31  C   UNL d   1      18.722 -20.898   0.950  0.00  0.00     0.010 C 
ATOM     32  C   UNL d   1      18.054 -20.433   2.248  0.00  0.00     0.015 C 
ATOM     33  C   UNL d   1      17.649 -21.048  -0.137  0.00  0.00     0.015 C 
ENDBRANCH  28  31
ENDBRANCH   5  25
TORSDOF 6
ENDMDL
MODEL 2
REMARK VINA RESULT:    -8.758      1.847      2.661
REMARK INTER + INTRA:         -11.971
REMARK INTER:                 -10.548
REMARK INTRA:                  -1.423
REMARK CONF_INDEPENDENT:        1.790
REMARK UNBOUND:                -1.423
REMARK  6 active torsions:
REMARK  status: ('A' for Active; 'I' for Inactive)
REMARK    1  A    between atoms: O_2  and  C_3 
REMARK    2  A    between atoms: C_3  and  C_4 
REMARK    3  A    between atoms: C_3  and  C_26 
REMARK       I    between atoms: C_4  and  N_6 
REMARK    4  A    between atoms: N_6  and  C_7 
REMARK    5  A    between atoms: N_11  and  C_12 
REMARK    6  A    between atoms: C_15  and  C_16 
ROOT
ATOM      1  C   UNL d   1      26.701 -15.511  -2.269  0.00  0.00     0.043 A 
ATOM      2  C   UNL d   1      25.296 -15.558  -2.468  0.00  0.00     0.066 A 
ATOM      3  C   UNL d   1      24.614 -16.519  -1.669  0.00  0.00     0.111 A 
ATOM      4  N   UNL d   1      23.318 -16.892  -1.653  0.00  0.00    -0.147 NA
ATOM      5  N   UNL d   1      23.262 -17.752  -0.599  0.00  0.00    -0.150 N 
ATOM      6  N   UNL d   1      24.419 -18.035   0.027  0.00  0.00    -0.147 NA
ATOM      7  C   UNL d   1      25.312 -17.325  -0.670  0.00  0.00     0.110 A 
ATOM      8  C   UNL d   1      26.694 -17.274  -0.495  0.00  0.00     0.045 A 
ATOM      9  C   UNL d   1      27.361 -16.332  -1.300  0.00  0.00    -0.033 A 
ATOM     10  C   UNL d   1      28.838 -16.208  -1.089  0.00  0.00     0.050 C 
ENDROOT
BRANCH   1  11
ATOM     11  N   UNL d   1      27.511 -14.590  -3.002  0.00  0.00    -0.324 N 
ATOM     12  C   UNL d   1      27.752 -14.780  -4.378  0.00  0.00     0.255 C 
ATOM     13  O   UNL d   1      27.181 -15.677  -5.016  0.00  0.00    -0.270 OA
ATOM     14  H   UNL d   1      27.576 -13.657  -2.620  0.00  0.00     0.169 HD
BRANCH  12  15
ATOM     15  C   UNL d   1      28.723 -13.764  -5.090  0.00  0.00     0.247 C 
BRANCH  15  16
ATOM     16  O   UNL d   1      27.969 -13.030  -6.086  0.00  0.00    -0.377 OA
ATOM     17  C   UNL d   1      27.814 -11.645  -5.830  0.00  0.00     0.203 C 
ENDBRANCH  15  16
BRANCH  15  18
ATOM     18  C   UNL d   1      29.907 -14.468  -5.815  0.00  0.00     0.001 C 
ATOM     19  C   UNL d   1      29.656 -15.475  -6.773  0.00  0.00     0.012 C 
ATOM     20  C   UNL d   1      30.678 -16.309  -7.254  0.00  0.00     0.001 C 
ATOM     21  C   UNL d   1      31.992 -16.117  -6.850  0.00  0.00     0.002 C 
ATOM     22  C   UNL d   1      32.291 -15.026  -6.050  0.00  0.00     0.024 C 
ATOM     23  C   UNL d   1      31.268 -14.193  -5.571  0.00  0.00     0.043 C 
ATOM     24 CL   UNL d   1      31.830 -12.757  -4.819  0.00  0.00    -0.084 Cl
ENDBRANCH  15  18
ENDBRANCH  12  15
ENDBRANCH   1  11
BRANCH   5  25
ATOM     25  C   UNL d   1      22.073 -18.411  -0.209  0.00  0.00     0.079 A 
ATOM     26  C   UNL d   1      21.760 -18.575   1.147  0.00  0.00     0.034 A 
ATOM     27  C   UNL d   1      20.657 -19.355   1.521  0.00  0.00     0.010 A 
ATOM     28  C   UNL d   1      19.831 -19.945   0.550  0.00  0.00    -0.055 A 
ATOM     29  C   UNL d   1      20.127 -19.694  -0.802  0.00  0.00     0.010 A 
ATOM     30  C   UNL d   1      21.252 -18.963  -1.186  0.00  0.00     0.034 A 
BRANCH  28  31
ATOM     31  C   UNL d   1      18.691 -20.870   0.970  0.00  0.00     0.010 C 
ATOM     32  C   UNL d   1      17.954 -20.346   2.206  0.00  0.00     0.015 C 
ATOM     33  C   UNL d   1      17.672 -21.122  -0.150  0.00  0.00     0.015 C 
ENDBRANCH  28  31
ENDBRANCH   5  25
TORSDOF 6
ENDMDL
MODEL 3
REMARK VINA RESULT:    -8.550      7.660     10.524
REMARK INTER + INTRA:         -11.904
REMARK INTER:                 -10.340
REMARK INTRA:                  -1.563
REMARK CONF_INDEPENDENT:        1.790
REMARK UNBOUND:                -1.563
REMARK  6 active torsions:
REMARK  status: ('A' for Active; 'I' for Inactive)
REMARK    1  A    between atoms: O_2  and  C_3 
REMARK    2  A    between atoms: C_3  and  C_4 
REMARK    3  A    between atoms: C_3  and  C_26 
REMARK       I    between atoms: C_4  and  N_6 
REMARK    4  A    between atoms: N_6  and  C_7 
REMARK    5  A    between atoms: N_11  and  C_12 
REMARK    6  A    between atoms: C_15  and  C_16 
ROOT
ATOM      1  C   UNL d   1      27.372 -13.611   2.711  0.00  0.00     0.043 A 
ATOM      2  C   UNL d   1      27.778 -14.628   3.614  0.00  0.00     0.066 A 
ATOM      3  C   UNL d   1      28.332 -14.153   4.836  0.00  0.00     0.111 A 
ATOM      4  N   UNL d   1      28.889 -14.817   5.869  0.00  0.00    -0.147 NA
ATOM      5  N   UNL d   1      29.113 -13.831   6.780  0.00  0.00    -0.150 N 
ATOM      6  N   UNL d   1      28.825 -12.570   6.406  0.00  0.00    -0.147 NA
ATOM      7  C   UNL d   1      28.393 -12.728   5.151  0.00  0.00     0.110 A 
ATOM      8  C   UNL d   1      28.000 -11.740   4.248  0.00  0.00     0.045 A 
ATOM      9  C   UNL d   1      27.467 -12.220   3.037  0.00  0.00    -0.033 A 
ATOM     10  C   UNL d   1      26.976 -11.185   2.073  0.00  0.00     0.050 C 
ENDROOT
BRANCH   1  11
ATOM     11  N   UNL d   1      26.795 -13.945   1.448  0.00  0.00    -0.324 N 
ATOM     12  C   UNL d   1      27.097 -15.170   0.819  0.00  0.00     0.255 C 
ATOM     13  O   UNL d   1      27.775 -16.038   1.389  0.00  0.00    -0.270 OA
ATOM     14  H   UNL d   1      25.923 -13.485   1.223  0.00  0.00     0.169 HD
BRANCH  12  15
ATOM     15  C   UNL d   1      26.484 -15.422  -0.609  0.00  0.00     0.247 C 
BRANCH  15  16
ATOM     16  O   UNL d   1      25.961 -14.167  -1.112  0.00  0.00    -0.377 OA
ATOM     17  C   UNL d   1      26.504 -13.735  -2.347  0.00  0.00     0.203 C 
ENDBRANCH  15  16
BRANCH  15  18
ATOM     18  C   UNL d   1      25.315 -16.449  -0.593  0.00  0.00     0.001 C 
ATOM     19  C   UNL d   1      24.052 -16.098  -1.119  0.00  0.00     0.012 C 
ATOM     20  C   UNL d   1      22.911 -16.884  -0.892  0.00  0.00     0.001 C 
ATOM     21  C   UNL d   1      23.008 -18.081  -0.196  0.00  0.00     0.002 C 
ATOM     22  C   UNL d   1      24.262 -18.536   0.176  0.00  0.00     0.024 C 
ATOM     23  C   UNL d   1      25.402 -17.749  -0.053  0.00  0.00     0.043 C 
ATOM     24 CL   UNL d   1      26.885 -18.565   0.230  0.00  0.00    -0.084 Cl
ENDBRANCH  15  18
ENDBRANCH  12  15
ENDBRANCH   1  11
BRANCH   5  25
ATOM     25  C   UNL d   1      29.707 -14.070   8.041  0.00  0.00     0.079 A 
ATOM     26  C   UNL d   1      31.098 -14.005   8.199  0.00  0.00     0.034 A 
ATOM     27  C   UNL d   1      31.683 -14.387   9.414  0.00  0.00     0.010 A 
ATOM     28  C   UNL d   1      30.887 -14.799  10.497  0.00  0.00    -0.055 A 
ATOM     29  C   UNL d   1      29.491 -14.777  10.330  0.00  0.00     0.010 A 
ATOM     30  C   UNL d   1      28.901 -14.448   9.109  0.00  0.00     0.034 A 
BRANCH  28  31
ATOM     31  C   UNL d   1      31.541 -15.304  11.781  0.00  0.00     0.010 C 
ATOM     32  C   UNL d   1      31.146 -16.751  12.095  0.00  0.00     0.015 C 
ATOM     33  C   UNL d   1      33.071 -15.197  11.764  0.00  0.00     0.015 C 
ENDBRANCH  28  31
ENDBRANCH   5  25
TORSDOF 6
ENDMDL
MODEL 4
REMARK VINA RESULT:    -8.503      2.705      3.630
REMARK INTER + INTRA:         -11.794
REMARK INTER:                 -10.293
REMARK INTRA:                  -1.502
REMARK CONF_INDEPENDENT:        1.790
REMARK UNBOUND:                -1.502
REMARK  6 active torsions:
REMARK  status: ('A' for Active; 'I' for Inactive)
REMARK    1  A    between atoms: O_2  and  C_3 
REMARK    2  A    between atoms: C_3  and  C_4 
REMARK    3  A    between atoms: C_3  and  C_26 
REMARK       I    between atoms: C_4  and  N_6 
REMARK    4  A    between atoms: N_6  and  C_7 
REMARK    5  A    between atoms: N_11  and  C_12 
REMARK    6  A    between atoms: C_15  and  C_16 
ROOT
ATOM      1  C   UNL d   1      27.013 -15.892  -2.090  0.00  0.00     0.043 A 
ATOM      2  C   UNL d   1      26.538 -17.151  -1.635  0.00  0.00     0.066 A 
ATOM      3  C   UNL d   1      25.147 -17.190  -1.338  0.00  0.00     0.111 A 
ATOM      4  N   UNL d   1      24.385 -18.172  -0.815  0.00  0.00    -0.147 NA
ATOM      5  N   UNL d   1      23.128 -17.654  -0.887  0.00  0.00    -0.150 N 
ATOM      6  N   UNL d   1      23.009 -16.391  -1.338  0.00  0.00    -0.147 NA
ATOM      7  C   UNL d   1      24.278 -16.039  -1.567  0.00  0.00     0.110 A 
ATOM      8  C   UNL d   1      24.761 -14.806  -2.004  0.00  0.00     0.045 A 
ATOM      9  C   UNL d   1      26.140 -14.773  -2.281  0.00  0.00    -0.033 A 
ATOM     10  C   UNL d   1      26.678 -13.481  -2.814  0.00  0.00     0.050 C 
ENDROOT
BRANCH   1  11
ATOM     11  N   UNL d   1      28.388 -15.710  -2.429  0.00  0.00    -0.324 N 
ATOM     12  C   UNL d   1      28.818 -15.801  -3.769  0.00  0.00     0.255 C 
ATOM     13  O   UNL d   1      28.008 -15.924  -4.700  0.00  0.00    -0.270 OA
ATOM     14  H   UNL d   1      28.937 -15.166  -1.778  0.00  0.00     0.169 HD
BRANCH  12  15
ATOM     15  C   UNL d   1      30.363 -15.671  -4.044  0.00  0.00     0.247 C 
BRANCH  15  16
ATOM     16  O   UNL d   1      30.653 -14.294  -4.388  0.00  0.00    -0.377 OA
ATOM     17  C   UNL d   1      29.653 -13.355  -4.032  0.00  0.00     0.203 C 
ENDBRANCH  15  16
BRANCH  15  18
ATOM     18  C   UNL d   1      30.845 -16.565  -5.224  0.00  0.00     0.001 C 
ATOM     19  C   UNL d   1      31.154 -15.986  -6.474  0.00  0.00     0.012 C 
ATOM     20  C   UNL d   1      31.336 -16.767  -7.626  0.00  0.00     0.001 C 
ATOM     21  C   UNL d   1      31.288 -18.153  -7.552  0.00  0.00     0.002 C 
ATOM     22  C   UNL d   1      31.162 -18.750  -6.309  0.00  0.00     0.024 C 
ATOM     23  C   UNL d   1      30.981 -17.967  -5.158  0.00  0.00     0.043 C 
ATOM     24 CL   UNL d   1      31.103 -18.844  -3.688  0.00  0.00    -0.084 Cl
ENDBRANCH  15  18
ENDBRANCH  12  15
ENDBRANCH   1  11
BRANCH   5  25
ATOM     25  C   UNL d   1      21.984 -18.348  -0.431  0.00  0.00     0.079 A 
ATOM     26  C   UNL d   1      21.784 -18.574   0.937  0.00  0.00     0.034 A 
ATOM     27  C   UNL d   1      20.725 -19.388   1.364  0.00  0.00     0.010 A 
ATOM     28  C   UNL d   1      19.831 -19.951   0.437  0.00  0.00    -0.055 A 
ATOM     29  C   UNL d   1      20.014 -19.638  -0.922  0.00  0.00     0.010 A 
ATOM     30  C   UNL d   1      21.094 -18.873  -1.362  0.00  0.00     0.034 A 
BRANCH  28  31
ATOM     31  C   UNL d   1      18.742 -20.911   0.907  0.00  0.00     0.010 C 
ATOM     32  C   UNL d   1      18.038 -20.406   2.170  0.00  0.00     0.015 C 
ATOM     33  C   UNL d   1      17.687 -21.203  -0.169  0.00  0.00     0.015 C 
ENDBRANCH  28  31
ENDBRANCH   5  25
TORSDOF 6
ENDMDL
MODEL 5
REMARK VINA RESULT:    -8.439      7.183     10.045
REMARK INTER + INTRA:         -11.720
REMARK INTER:                 -10.229
REMARK INTRA:                  -1.491
REMARK CONF_INDEPENDENT:        1.790
REMARK UNBOUND:                -1.491
REMARK  6 active torsions:
REMARK  status: ('A' for Active; 'I' for Inactive)
REMARK    1  A    between atoms: O_2  and  C_3 
REMARK    2  A    between atoms: C_3  and  C_4 
REMARK    3  A    between atoms: C_3  and  C_26 
REMARK       I    between atoms: C_4  and  N_6 
REMARK    4  A    between atoms: N_6  and  C_7 
REMARK    5  A    between atoms: N_11  and  C_12 
REMARK    6  A    between atoms: C_15  and  C_16 
ROOT
ATOM      1  C   UNL d   1      28.529 -14.781   1.669  0.00  0.00     0.043 A 
ATOM      2  C   UNL d   1      27.849 -14.870   2.913  0.00  0.00     0.066 A 
ATOM      3  C   UNL d   1      28.584 -14.377   4.028  0.00  0.00     0.111 A 
ATOM      4  N   UNL d   1      28.295 -14.380   5.345  0.00  0.00    -0.147 NA
ATOM      5  N   UNL d   1      29.321 -13.665   5.884  0.00  0.00    -0.150 N 
ATOM      6  N   UNL d   1      30.296 -13.263   5.048  0.00  0.00    -0.147 NA
ATOM      7  C   UNL d   1      29.898 -13.758   3.872  0.00  0.00     0.110 A 
ATOM      8  C   UNL d   1      30.556 -13.689   2.644  0.00  0.00     0.045 A 
ATOM      9  C   UNL d   1      29.828 -14.192   1.550  0.00  0.00    -0.033 A 
ATOM     10  C   UNL d   1      30.480 -14.072   0.208  0.00  0.00     0.050 C 
ENDROOT
BRANCH   1  11
ATOM     11  N   UNL d   1      27.907 -15.235   0.465  0.00  0.00    -0.324 N 
ATOM     12  C   UNL d   1      26.682 -14.683   0.034  0.00  0.00     0.255 C 
ATOM     13  O   UNL d   1      26.169 -13.716   0.618  0.00  0.00    -0.270 OA
ATOM     14  H   UNL d   1      28.521 -15.652  -0.221  0.00  0.00     0.169 HD
BRANCH  12  15
ATOM     15  C   UNL d   1      26.026 -15.299  -1.257  0.00  0.00     0.247 C 
BRANCH  15  16
ATOM     16  O   UNL d   1      25.319 -14.247  -1.959  0.00  0.00    -0.377 OA
ATOM     17  C   UNL d   1      25.617 -14.133  -3.340  0.00  0.00     0.203 C 
ENDBRANCH  15  16
BRANCH  15  18
ATOM     18  C   UNL d   1      25.001 -16.426  -0.936  0.00  0.00     0.001 C 
ATOM     19  C   UNL d   1      23.655 -16.300  -1.346  0.00  0.00     0.012 C 
ATOM     20  C   UNL d   1      22.650 -17.151  -0.859  0.00  0.00     0.001 C 
ATOM     21  C   UNL d   1      22.969 -18.200  -0.006  0.00  0.00     0.002 C 
ATOM     22  C   UNL d   1      24.302 -18.453   0.270  0.00  0.00     0.024 C 
ATOM     23  C   UNL d   1      25.305 -17.601  -0.219  0.00  0.00     0.043 C 
ATOM     24 CL   UNL d   1      26.898 -18.200  -0.004  0.00  0.00    -0.084 Cl
ENDBRANCH  15  18
ENDBRANCH  12  15
ENDBRANCH   1  11
BRANCH   5  25
ATOM     25  C   UNL d   1      29.439 -13.417   7.270  0.00  0.00     0.079 A 
ATOM     26  C   UNL d   1      30.411 -14.075   8.035  0.00  0.00     0.034 A 
ATOM     27  C   UNL d   1      30.421 -13.931   9.429  0.00  0.00     0.010 A 
ATOM     28  C   UNL d   1      29.490 -13.098  10.073  0.00  0.00    -0.055 A 
ATOM     29  C   UNL d   1      28.579 -12.390   9.269  0.00  0.00     0.010 A 
ATOM     30  C   UNL d   1      28.526 -12.566   7.886  0.00  0.00     0.034 A 
BRANCH  28  31
ATOM     31  C   UNL d   1      29.451 -13.025  11.598  0.00  0.00     0.010 C 
ATOM     32  C   UNL d   1      29.656 -11.595  12.108  0.00  0.00     0.015 C 
ATOM     33  C   UNL d   1      28.155 -13.588  12.197  0.00  0.00     0.015 C 
ENDBRANCH  28  31
ENDBRANCH   5  25
TORSDOF 6
ENDMDL
MODEL 6
REMARK VINA RESULT:    -8.334      1.786      2.296
REMARK INTER + INTRA:         -11.423
REMARK INTER:                 -10.124
REMARK INTRA:                  -1.299
REMARK CONF_INDEPENDENT:        1.790
REMARK UNBOUND:                -1.299
REMARK  6 active torsions:
REMARK  status: ('A' for Active; 'I' for Inactive)
REMARK    1  A    between atoms: O_2  and  C_3 
REMARK    2  A    between atoms: C_3  and  C_4 
REMARK    3  A    between atoms: C_3  and  C_26 
REMARK       I    between atoms: C_4  and  N_6 
REMARK    4  A    between atoms: N_6  and  C_7 
REMARK    5  A    between atoms: N_11  and  C_12 
REMARK    6  A    between atoms: C_15  and  C_16 
ROOT
ATOM      1  C   UNL d   1      26.797 -16.323  -1.836  0.00  0.00     0.043 A 
ATOM      2  C   UNL d   1      25.446 -16.388  -2.268  0.00  0.00     0.066 A 
ATOM      3  C   UNL d   1      24.585 -17.139  -1.419  0.00  0.00     0.111 A 
ATOM      4  N   UNL d   1      23.287 -17.478  -1.556  0.00  0.00    -0.147 NA
ATOM      5  N   UNL d   1      23.004 -18.086  -0.372  0.00  0.00    -0.150 N 
ATOM      6  N   UNL d   1      24.020 -18.245   0.496  0.00  0.00    -0.147 NA
ATOM      7  C   UNL d   1      25.056 -17.720  -0.164  0.00  0.00     0.110 A 
ATOM      8  C   UNL d   1      26.389 -17.656   0.241  0.00  0.00     0.045 A 
ATOM      9  C   UNL d   1      27.235 -16.924  -0.612  0.00  0.00    -0.033 A 
ATOM     10  C   UNL d   1      28.659 -16.782  -0.172  0.00  0.00     0.050 C 
ENDROOT
BRANCH   1  11
ATOM     11  N   UNL d   1      27.770 -15.598  -2.590  0.00  0.00    -0.324 N 
ATOM     12  C   UNL d   1      28.132 -14.284  -2.225  0.00  0.00     0.255 C 
ATOM     13  O   UNL d   1      27.709 -13.764  -1.182  0.00  0.00    -0.270 OA
ATOM     14  H   UNL d   1      28.427 -16.156  -3.117  0.00  0.00     0.169 HD
BRANCH  12  15
ATOM     15  C   UNL d   1      29.149 -13.528  -3.160  0.00  0.00     0.247 C 
BRANCH  15  16
ATOM     16  O   UNL d   1      28.594 -12.230  -3.486  0.00  0.00    -0.377 OA
ATOM     17  C   UNL d   1      27.195 -12.104  -3.301  0.00  0.00     0.203 C 
ENDBRANCH  15  16
BRANCH  15  18
ATOM     18  C   UNL d   1      29.415 -14.280  -4.497  0.00  0.00     0.001 C 
ATOM     19  C   UNL d   1      30.717 -14.722  -4.817  0.00  0.00     0.012 C 
ATOM     20  C   UNL d   1      31.053 -15.163  -6.107  0.00  0.00     0.001 C 
ATOM     21  C   UNL d   1      30.083 -15.246  -7.097  0.00  0.00     0.002 C 
ATOM     22  C   UNL d   1      28.765 -14.987  -6.762  0.00  0.00     0.024 C 
ATOM     23  C   UNL d   1      28.431 -14.547  -5.471  0.00  0.00     0.043 C 
ATOM     24 CL   UNL d   1      26.745 -14.524  -5.153  0.00  0.00    -0.084 Cl
ENDBRANCH  15  18
ENDBRANCH  12  15
ENDBRANCH   1  11
BRANCH   5  25
ATOM     25  C   UNL d   1      21.731 -18.622  -0.069  0.00  0.00     0.079 A 
ATOM     26  C   UNL d   1      21.389 -18.949   1.249  0.00  0.00     0.034 A 
ATOM     27  C   UNL d   1      20.184 -19.614   1.515  0.00  0.00     0.010 A 
ATOM     28  C   UNL d   1      19.289 -19.924   0.477  0.00  0.00    -0.055 A 
ATOM     29  C   UNL d   1      19.628 -19.511  -0.825  0.00  0.00     0.010 A 
ATOM     30  C   UNL d   1      20.847 -18.895  -1.108  0.00  0.00     0.034 A 
BRANCH  28  31
ATOM     31  C   UNL d   1      18.027 -20.733   0.766  0.00  0.00     0.010 C 
ATOM     32  C   UNL d   1      17.338 -21.201  -0.520  0.00  0.00     0.015 C 
ATOM     33  C   UNL d   1      18.281 -21.950   1.667  0.00  0.00     0.015 C 
ENDBRANCH  28  31
ENDBRANCH   5  25
TORSDOF 6
ENDMDL
MODEL 7
REMARK VINA RESULT:    -8.235      1.873      2.527
REMARK INTER + INTRA:         -11.424
REMARK INTER:                 -10.025
REMARK INTRA:                  -1.399
REMARK CONF_INDEPENDENT:        1.790
REMARK UNBOUND:                -1.399
REMARK  6 active torsions:
REMARK  status: ('A' for Active; 'I' for Inactive)
REMARK    1  A    between atoms: O_2  and  C_3 
REMARK    2  A    between atoms: C_3  and  C_4 
REMARK    3  A    between atoms: C_3  and  C_26 
REMARK       I    between atoms: C_4  and  N_6 
REMARK    4  A    between atoms: N_6  and  C_7 
REMARK    5  A    between atoms: N_11  and  C_12 
REMARK    6  A    between atoms: C_15  and  C_16 
ROOT
ATOM      1  C   UNL d   1      26.535 -14.955  -2.239  0.00  0.00     0.043 A 
ATOM      2  C   UNL d   1      25.131 -15.093  -2.403  0.00  0.00     0.066 A 
ATOM      3  C   UNL d   1      24.548 -16.162  -1.666  0.00  0.00     0.111 A 
ATOM      4  N   UNL d   1      23.285 -16.633  -1.645  0.00  0.00    -0.147 NA
ATOM      5  N   UNL d   1      23.327 -17.574  -0.662  0.00  0.00    -0.150 N 
ATOM      6  N   UNL d   1      24.522 -17.816  -0.092  0.00  0.00    -0.147 NA
ATOM      7  C   UNL d   1      25.336 -16.988  -0.754  0.00  0.00     0.110 A 
ATOM      8  C   UNL d   1      26.716 -16.846  -0.612  0.00  0.00     0.045 A 
ATOM      9  C   UNL d   1      27.285 -15.796  -1.356  0.00  0.00    -0.033 A 
ATOM     10  C   UNL d   1      28.755 -15.577  -1.176  0.00  0.00     0.050 C 
ENDROOT
BRANCH   1  11
ATOM     11  N   UNL d   1      27.250 -13.921  -2.917  0.00  0.00    -0.324 N 
ATOM     12  C   UNL d   1      26.657 -12.661  -3.140  0.00  0.00     0.255 C 
ATOM     13  O   UNL d   1      25.551 -12.374  -2.658  0.00  0.00    -0.270 OA
ATOM     14  H   UNL d   1      28.258 -13.986  -2.886  0.00  0.00     0.169 HD
BRANCH  12  15
ATOM     15  C   UNL d   1      27.484 -11.608  -3.969  0.00  0.00     0.247 C 
BRANCH  15  16
ATOM     16  O   UNL d   1      28.525 -11.070  -3.117  0.00  0.00    -0.377 OA
ATOM     17  C   UNL d   1      28.256 -11.115  -1.726  0.00  0.00     0.203 C 
ENDBRANCH  15  16
BRANCH  15  18
ATOM     18  C   UNL d   1      26.616 -10.415  -4.467  0.00  0.00     0.001 C 
ATOM     19  C   UNL d   1      26.194  -9.417  -3.562  0.00  0.00     0.012 C 
ATOM     20  C   UNL d   1      25.207  -8.478  -3.904  0.00  0.00     0.001 C 
ATOM     21  C   UNL d   1      24.665  -8.460  -5.182  0.00  0.00     0.002 C 
ATOM     22  C   UNL d   1      25.188  -9.313  -6.140  0.00  0.00     0.024 C 
ATOM     23  C   UNL d   1      26.175 -10.250  -5.796  0.00  0.00     0.043 C 
ATOM     24 CL   UNL d   1      26.890 -11.039  -7.142  0.00  0.00    -0.084 Cl
ENDBRANCH  15  18
ENDBRANCH  12  15
ENDBRANCH   1  11
BRANCH   5  25
ATOM     25  C   UNL d   1      22.203 -18.349  -0.294  0.00  0.00     0.079 A 
ATOM     26  C   UNL d   1      21.309 -18.819  -1.265  0.00  0.00     0.034 A 
ATOM     27  C   UNL d   1      20.125 -19.459  -0.875  0.00  0.00     0.010 A 
ATOM     28  C   UNL d   1      19.837 -19.674   0.484  0.00  0.00    -0.055 A 
ATOM     29  C   UNL d   1      20.794 -19.261   1.429  0.00  0.00     0.010 A 
ATOM     30  C   UNL d   1      21.951 -18.577   1.055  0.00  0.00     0.034 A 
BRANCH  28  31
ATOM     31  C   UNL d   1      18.501 -20.285   0.899  0.00  0.00     0.010 C 
ATOM     32  C   UNL d   1      18.442 -21.787   0.606  0.00  0.00     0.015 C 
ATOM     33  C   UNL d   1      18.162 -20.051   2.378  0.00  0.00     0.015 C 
ENDBRANCH  28  31
ENDBRANCH   5  25
TORSDOF 6
ENDMDL
MODEL 8
REMARK VINA RESULT:    -8.042      1.800      2.578
REMARK INTER + INTRA:         -11.763
REMARK INTER:                  -9.832
REMARK INTRA:                  -1.931
REMARK CONF_INDEPENDENT:        1.790
REMARK UNBOUND:                -1.931
REMARK  6 active torsions:
REMARK  status: ('A' for Active; 'I' for Inactive)
REMARK    1  A    between atoms: O_2  and  C_3 
REMARK    2  A    between atoms: C_3  and  C_4 
REMARK    3  A    between atoms: C_3  and  C_26 
REMARK       I    between atoms: C_4  and  N_6 
REMARK    4  A    between atoms: N_6  and  C_7 
REMARK    5  A    between atoms: N_11  and  C_12 
REMARK    6  A    between atoms: C_15  and  C_16 
ROOT
ATOM      1  C   UNL d   1      28.383 -14.751  -3.964  0.00  0.00     0.043 A 
ATOM      2  C   UNL d   1      26.977 -14.932  -4.051  0.00  0.00     0.066 A 
ATOM      3  C   UNL d   1      26.420 -15.762  -3.037  0.00  0.00     0.111 A 
ATOM      4  N   UNL d   1      25.161 -16.212  -2.859  0.00  0.00    -0.147 NA
ATOM      5  N   UNL d   1      25.233 -16.850  -1.659  0.00  0.00    -0.150 N 
ATOM      6  N   UNL d   1      26.442 -16.925  -1.073  0.00  0.00    -0.147 NA
ATOM      7  C   UNL d   1      27.235 -16.306  -1.953  0.00  0.00     0.110 A 
ATOM      8  C   UNL d   1      28.616 -16.127  -1.888  0.00  0.00     0.045 A 
ATOM      9  C   UNL d   1      29.160 -15.318  -2.903  0.00  0.00    -0.033 A 
ATOM     10  C   UNL d   1      30.631 -15.054  -2.824  0.00  0.00     0.050 C 
ENDROOT
BRANCH   1  11
ATOM     11  N   UNL d   1      29.073 -13.939  -4.914  0.00  0.00    -0.324 N 
ATOM     12  C   UNL d   1      28.959 -14.193  -6.297  0.00  0.00     0.255 C 
ATOM     13  O   UNL d   1      28.173 -15.046  -6.734  0.00  0.00    -0.270 OA
ATOM     14  H   UNL d   1      29.312 -13.006  -4.609  0.00  0.00     0.169 HD
BRANCH  12  15
ATOM     15  C   UNL d   1      29.820 -13.302  -7.270  0.00  0.00     0.247 C 
BRANCH  15  16
ATOM     16  O   UNL d   1      30.771 -12.547  -6.480  0.00  0.00    -0.377 OA
ATOM     17  C   UNL d   1      31.881 -12.033  -7.195  0.00  0.00     0.203 C 
ENDBRANCH  15  16
BRANCH  15  18
ATOM     18  C   UNL d   1      28.961 -12.285  -8.077  0.00  0.00     0.001 C 
ATOM     19  C   UNL d   1      28.712 -12.499  -9.451  0.00  0.00     0.012 C 
ATOM     20  C   UNL d   1      28.174 -11.493 -10.270  0.00  0.00     0.001 C 
ATOM     21  C   UNL d   1      27.801 -10.270  -9.730  0.00  0.00     0.002 C 
ATOM     22  C   UNL d   1      27.869 -10.099  -8.357  0.00  0.00     0.024 C 
ATOM     23  C   UNL d   1      28.407 -11.106  -7.540  0.00  0.00     0.043 C 
ATOM     24 CL   UNL d   1      28.180 -10.839  -5.860  0.00  0.00    -0.084 Cl
ENDBRANCH  15  18
ENDBRANCH  12  15
ENDBRANCH   1  11
BRANCH   5  25
ATOM     25  C   UNL d   1      24.125 -17.499  -1.067  0.00  0.00     0.079 A 
ATOM     26  C   UNL d   1      24.235 -18.813  -0.594  0.00  0.00     0.034 A 
ATOM     27  C   UNL d   1      23.094 -19.493  -0.145  0.00  0.00     0.010 A 
ATOM     28  C   UNL d   1      21.841 -18.858  -0.123  0.00  0.00    -0.055 A 
ATOM     29  C   UNL d   1      21.780 -17.513  -0.529  0.00  0.00     0.010 A 
ATOM     30  C   UNL d   1      22.899 -16.844  -1.027  0.00  0.00     0.034 A 
BRANCH  28  31
ATOM     31  C   UNL d   1      20.591 -19.640   0.277  0.00  0.00     0.010 C 
ATOM     32  C   UNL d   1      20.161 -19.334   1.715  0.00  0.00     0.015 C 
ATOM     33  C   UNL d   1      19.401 -19.400  -0.662  0.00  0.00     0.015 C 
ENDBRANCH  28  31
ENDBRANCH   5  25
TORSDOF 6
ENDMDL
MODEL 9
REMARK VINA RESULT:    -7.987      7.818     10.543
REMARK INTER + INTRA:         -11.499
REMARK INTER:                  -9.777
REMARK INTRA:                  -1.722
REMARK CONF_INDEPENDENT:        1.790
REMARK UNBOUND:                -1.722
REMARK  6 active torsions:
REMARK  status: ('A' for Active; 'I' for Inactive)
REMARK    1  A    between atoms: O_2  and  C_3 
REMARK    2  A    between atoms: C_3  and  C_4 
REMARK    3  A    between atoms: C_3  and  C_26 
REMARK       I    between atoms: C_4  and  N_6 
REMARK    4  A    between atoms: N_6  and  C_7 
REMARK    5  A    between atoms: N_11  and  C_12 
REMARK    6  A    between atoms: C_15  and  C_16 
ROOT
ATOM      1  C   UNL d   1      27.071 -13.186   2.414  0.00  0.00     0.043 A 
ATOM      2  C   UNL d   1      27.201 -14.037   3.543  0.00  0.00     0.066 A 
ATOM      3  C   UNL d   1      27.697 -13.400   4.715  0.00  0.00     0.111 A 
ATOM      4  N   UNL d   1      28.021 -13.904   5.923  0.00  0.00    -0.147 NA
ATOM      5  N   UNL d   1      28.313 -12.791   6.650  0.00  0.00    -0.150 N 
ATOM      6  N   UNL d   1      28.285 -11.610   6.005  0.00  0.00    -0.147 NA
ATOM      7  C   UNL d   1      27.966 -11.965   4.756  0.00  0.00     0.110 A 
ATOM      8  C   UNL d   1      27.844 -11.144   3.635  0.00  0.00     0.045 A 
ATOM      9  C   UNL d   1      27.367 -11.787   2.477  0.00  0.00    -0.033 A 
ATOM     10  C   UNL d   1      27.163 -10.919   1.274  0.00  0.00     0.050 C 
ENDROOT
BRANCH   1  11
ATOM     11  N   UNL d   1      26.580 -13.692   1.172  0.00  0.00    -0.324 N 
ATOM     12  C   UNL d   1      27.032 -14.930   0.669  0.00  0.00     0.255 C 
ATOM     13  O   UNL d   1      27.773 -15.667   1.338  0.00  0.00    -0.270 OA
ATOM     14  H   UNL d   1      25.676 -13.349   0.880  0.00  0.00     0.169 HD
BRANCH  12  15
ATOM     15  C   UNL d   1      26.503 -15.373  -0.746  0.00  0.00     0.247 C 
BRANCH  15  16
ATOM     16  O   UNL d   1      26.002 -14.202  -1.436  0.00  0.00    -0.377 OA
ATOM     17  C   UNL d   1      26.760 -13.789  -2.560  0.00  0.00     0.203 C 
ENDBRANCH  15  16
BRANCH  15  18
ATOM     18  C   UNL d   1      25.342 -16.407  -0.661  0.00  0.00     0.001 C 
ATOM     19  C   UNL d   1      24.068 -16.087  -1.180  0.00  0.00     0.012 C 
ATOM     20  C   UNL d   1      22.937 -16.869  -0.897  0.00  0.00     0.001 C 
ATOM     21  C   UNL d   1      23.055 -18.034  -0.150  0.00  0.00     0.002 C 
ATOM     22  C   UNL d   1      24.319 -18.463   0.220  0.00  0.00     0.024 C 
ATOM     23  C   UNL d   1      25.448 -17.680  -0.064  0.00  0.00     0.043 C 
ATOM     24 CL   UNL d   1      26.941 -18.472   0.228  0.00  0.00    -0.084 Cl
ENDBRANCH  15  18
ENDBRANCH  12  15
ENDBRANCH   1  11
BRANCH   5  25
ATOM     25  C   UNL d   1      28.723 -12.842   8.002  0.00  0.00     0.079 A 
ATOM     26  C   UNL d   1      29.018 -11.667   8.704  0.00  0.00     0.034 A 
ATOM     27  C   UNL d   1      29.562 -11.740   9.994  0.00  0.00     0.010 A 
ATOM     28  C   UNL d   1      29.780 -12.982  10.613  0.00  0.00    -0.055 A 
ATOM     29  C   UNL d   1      29.398 -14.140   9.911  0.00  0.00     0.010 A 
ATOM     30  C   UNL d   1      28.905 -14.081   8.608  0.00  0.00     0.034 A 
BRANCH  28  31
ATOM     31  C   UNL d   1      30.462 -13.051  11.978  0.00  0.00     0.010 C 
ATOM     32  C   UNL d   1      31.203 -14.376  12.182  0.00  0.00     0.015 C 
ATOM     33  C   UNL d   1      31.434 -11.891  12.228  0.00  0.00     0.015 C 
ENDBRANCH  28  31
ENDBRANCH   5  25
TORSDOF 6
ENDMDL
