MODEL 1
REMARK VINA RESULT:   -10.049      0.000      0.000
REMARK INTER + INTRA:         -16.865
REMARK INTER:                 -13.330
REMARK INTRA:                  -3.535
REMARK CONF_INDEPENDENT:        3.281
REMARK UNBOUND:                -3.535
REMARK  11 active torsions:
REMARK  status: ('A' for Active; 'I' for Inactive)
REMARK    1  A    between atoms: O_2  and  C_3 
REMARK    2  A    between atoms: C_5  and  C_6 
REMARK    3  A    between atoms: C_9  and  S_10 
REMARK    4  A    between atoms: S_10  and  C_11 
REMARK    5  A    between atoms: C_11  and  C_12 
REMARK       I    between atoms: C_12  and  N_14 
REMARK    6  A    between atoms: N_14  and  N_15 
REMARK    7  A    between atoms: C_16  and  C_17 
REMARK    8  A    between atoms: C_20  and  C_21 
REMARK    9  A    between atoms: N_29  and  C_30 
REMARK   10  A    between atoms: C_37  and  O_38 
REMARK   11  A    between atoms: C_40  and  O_41 
ROOT
ATOM      1  C   UNL d   1      30.604 -18.006  -4.146  0.00  0.00     0.169 A 
ATOM      2  N   UNL d   1      30.053 -17.327  -3.154  0.00  0.00    -0.128 NA
ATOM      3  N   UNL d   1      29.434 -16.192  -3.680  0.00  0.00    -0.122 NA
ATOM      4  C   UNL d   1      29.586 -16.189  -4.993  0.00  0.00     0.197 A 
ATOM      5  N   UNL d   1      30.360 -17.294  -5.325  0.00  0.00    -0.271 N 
ENDROOT
BRANCH   4   6
ATOM      6  S   UNL d   1      28.750 -15.030  -6.063  0.00  0.00    -0.080 SA
BRANCH   6   7
ATOM      7  C   UNL d   1      27.564 -14.041  -5.100  0.00  0.00     0.187 C 
BRANCH   7   8
ATOM      8  C   UNL d   1      26.331 -14.686  -4.499  0.00  0.00     0.247 C 
ATOM      9  O   UNL d   1      25.188 -14.458  -4.928  0.00  0.00    -0.271 OA
ATOM     10  N   UNL d   1      26.595 -15.640  -3.484  0.00  0.00    -0.247 N 
ATOM     11  H   UNL d   1      27.531 -15.857  -3.147  0.00  0.00     0.192 HD
BRANCH  10  12
ATOM     12  N   UNL d   1      25.519 -16.320  -2.959  0.00  0.00    -0.184 NA
ATOM     13  C   UNL d   1      25.393 -16.484  -1.683  0.00  0.00     0.150 C 
BRANCH  13  14
ATOM     14  C   UNL d   1      24.204 -17.202  -1.145  0.00  0.00    -0.017 A 
ATOM     15  C   UNL d   1      24.325 -18.479  -0.592  0.00  0.00     0.014 A 
ATOM     16  C   UNL d   1      23.178 -19.156  -0.147  0.00  0.00     0.013 A 
ATOM     17  C   UNL d   1      21.908 -18.550  -0.184  0.00  0.00    -0.026 A 
ATOM     18  C   UNL d   1      21.806 -17.273  -0.756  0.00  0.00     0.013 A 
ATOM     19  C   UNL d   1      22.944 -16.602  -1.223  0.00  0.00     0.014 A 
BRANCH  17  20
ATOM     20  C   UNL d   1      20.737 -19.241   0.381  0.00  0.00    -0.026 A 
ATOM     21  C   UNL d   1      20.562 -19.335   1.773  0.00  0.00     0.012 A 
ATOM     22  C   UNL d   1      19.527 -20.099   2.320  0.00  0.00     0.001 A 
ATOM     23  C   UNL d   1      18.600 -20.712   1.481  0.00  0.00     0.000 A 
ATOM     24  C   UNL d   1      18.727 -20.589   0.099  0.00  0.00     0.001 A 
ATOM     25  C   UNL d   1      19.790 -19.862  -0.447  0.00  0.00     0.012 A 
ENDBRANCH  17  20
ENDBRANCH  13  14
ENDBRANCH  10  12
ENDBRANCH   7   8
ENDBRANCH   6   7
ENDBRANCH   4   6
BRANCH   5  26
ATOM     26  C   UNL d   1      30.756 -17.700  -6.605  0.00  0.00     0.043 C 
ATOM     27  C   UNL d   1      30.404 -18.976  -7.040  0.00  0.00     0.030 C 
ATOM     28  C   UNL d   1      31.136 -19.542  -8.083  0.00  0.00     0.002 C 
ATOM     29  C   UNL d   1      32.079 -18.776  -8.769  0.00  0.00     0.000 C 
ATOM     30  C   UNL d   1      32.302 -17.443  -8.412  0.00  0.00     0.002 C 
ATOM     31  C   UNL d   1      31.650 -16.897  -7.312  0.00  0.00     0.030 C 
ENDBRANCH   5  26
BRANCH   1  32
ATOM     32  C   UNL d   1      31.388 -19.279  -4.105  0.00  0.00     0.018 A 
ATOM     33  C   UNL d   1      30.782 -20.541  -3.896  0.00  0.00     0.055 A 
ATOM     34  C   UNL d   1      31.445 -21.768  -4.213  0.00  0.00     0.105 A 
ATOM     35  C   UNL d   1      32.758 -21.710  -4.730  0.00  0.00     0.135 A 
ATOM     36  C   UNL d   1      33.409 -20.457  -4.852  0.00  0.00     0.105 A 
ATOM     37  C   UNL d   1      32.735 -19.270  -4.511  0.00  0.00     0.055 A 
BRANCH  34  38
ATOM     38  O   UNL d   1      30.609 -22.870  -4.269  0.00  0.00    -0.353 OA
ATOM     39  C   UNL d   1      30.263 -23.581  -3.076  0.00  0.00     0.210 C 
ENDBRANCH  34  38
BRANCH  35  40
ATOM     40  O   UNL d   1      33.497 -22.709  -5.273  0.00  0.00    -0.351 OA
ATOM     41  C   UNL d   1      33.228 -23.277  -6.508  0.00  0.00     0.210 C 
ENDBRANCH  35  40
BRANCH  36  42
ATOM     42  O   UNL d   1      34.680 -20.247  -5.375  0.00  0.00    -0.353 OA
ATOM     43  C   UNL d   1      35.817 -20.603  -4.578  0.00  0.00     0.210 C 
ENDBRANCH  36  42
ENDBRANCH   1  32
TORSDOF 11
ENDMDL
MODEL 2
REMARK VINA RESULT:    -9.810      1.539      2.463
REMARK INTER + INTRA:         -16.192
REMARK INTER:                 -13.091
REMARK INTRA:                  -3.101
REMARK CONF_INDEPENDENT:        3.281
REMARK UNBOUND:                -3.101
REMARK  11 active torsions:
REMARK  status: ('A' for Active; 'I' for Inactive)
REMARK    1  A    between atoms: O_2  and  C_3 
REMARK    2  A    between atoms: C_5  and  C_6 
REMARK    3  A    between atoms: C_9  and  S_10 
REMARK    4  A    between atoms: S_10  and  C_11 
REMARK    5  A    between atoms: C_11  and  C_12 
REMARK       I    between atoms: C_12  and  N_14 
REMARK    6  A    between atoms: N_14  and  N_15 
REMARK    7  A    between atoms: C_16  and  C_17 
REMARK    8  A    between atoms: C_20  and  C_21 
REMARK    9  A    between atoms: N_29  and  C_30 
REMARK   10  A    between atoms: C_37  and  O_38 
REMARK   11  A    between atoms: C_40  and  O_41 
ROOT
ATOM      1  C   UNL d   1      30.524 -17.660  -3.407  0.00  0.00     0.169 A 
ATOM      2  N   UNL d   1      29.833 -16.911  -2.564  0.00  0.00    -0.128 NA
ATOM      3  N   UNL d   1      29.271 -15.847  -3.271  0.00  0.00    -0.122 NA
ATOM      4  C   UNL d   1      29.598 -15.957  -4.547  0.00  0.00     0.197 A 
ATOM      5  N   UNL d   1      30.428 -17.063  -4.669  0.00  0.00    -0.271 N 
ENDROOT
BRANCH   4   6
ATOM      6  S   UNL d   1      28.894 -14.923  -5.820  0.00  0.00    -0.080 SA
BRANCH   6   7
ATOM      7  C   UNL d   1      27.521 -13.944  -5.137  0.00  0.00     0.187 C 
BRANCH   7   8
ATOM      8  C   UNL d   1      26.309 -14.629  -4.538  0.00  0.00     0.247 C 
ATOM      9  O   UNL d   1      25.160 -14.437  -4.967  0.00  0.00    -0.271 OA
ATOM     10  N   UNL d   1      26.602 -15.576  -3.524  0.00  0.00    -0.247 N 
ATOM     11  H   UNL d   1      27.544 -15.763  -3.186  0.00  0.00     0.192 HD
BRANCH  10  12
ATOM     12  N   UNL d   1      25.549 -16.291  -3.001  0.00  0.00    -0.184 NA
ATOM     13  C   UNL d   1      25.400 -16.419  -1.723  0.00  0.00     0.150 C 
BRANCH  13  14
ATOM     14  C   UNL d   1      24.235 -17.177  -1.188  0.00  0.00    -0.017 A 
ATOM     15  C   UNL d   1      24.331 -18.542  -0.911  0.00  0.00     0.014 A 
ATOM     16  C   UNL d   1      23.200 -19.244  -0.464  0.00  0.00     0.013 A 
ATOM     17  C   UNL d   1      21.978 -18.587  -0.224  0.00  0.00    -0.026 A 
ATOM     18  C   UNL d   1      21.898 -17.219  -0.521  0.00  0.00     0.013 A 
ATOM     19  C   UNL d   1      23.018 -16.518  -0.990  0.00  0.00     0.014 A 
BRANCH  17  20
ATOM     20  C   UNL d   1      20.835 -19.325   0.341  0.00  0.00    -0.026 A 
ATOM     21  C   UNL d   1      19.880 -19.922  -0.502  0.00  0.00     0.012 A 
ATOM     22  C   UNL d   1      18.724 -20.509   0.020  0.00  0.00     0.001 A 
ATOM     23  C   UNL d   1      18.547 -20.583   1.399  0.00  0.00     0.000 A 
ATOM     24  C   UNL d   1      19.506 -20.042   2.252  0.00  0.00     0.001 A 
ATOM     25  C   UNL d   1      20.639 -19.413   1.727  0.00  0.00     0.012 A 
ENDBRANCH  17  20
ENDBRANCH  13  14
ENDBRANCH  10  12
ENDBRANCH   7   8
ENDBRANCH   6   7
ENDBRANCH   4   6
BRANCH   5  26
ATOM     26  C   UNL d   1      31.000 -17.571  -5.842  0.00  0.00     0.043 C 
ATOM     27  C   UNL d   1      31.807 -16.735  -6.609  0.00  0.00     0.030 C 
ATOM     28  C   UNL d   1      32.012 -17.064  -7.949  0.00  0.00     0.002 C 
ATOM     29  C   UNL d   1      31.554 -18.283  -8.445  0.00  0.00     0.000 C 
ATOM     30  C   UNL d   1      30.879 -19.179  -7.609  0.00  0.00     0.002 C 
ATOM     31  C   UNL d   1      30.583 -18.821  -6.299  0.00  0.00     0.030 C 
ENDBRANCH   5  26
BRANCH   1  32
ATOM     32  C   UNL d   1      31.317 -18.901  -3.145  0.00  0.00     0.018 A 
ATOM     33  C   UNL d   1      32.356 -18.952  -2.186  0.00  0.00     0.055 A 
ATOM     34  C   UNL d   1      32.862 -20.189  -1.675  0.00  0.00     0.105 A 
ATOM     35  C   UNL d   1      32.316 -21.394  -2.166  0.00  0.00     0.135 A 
ATOM     36  C   UNL d   1      31.343 -21.355  -3.197  0.00  0.00     0.105 A 
ATOM     37  C   UNL d   1      30.882 -20.121  -3.692  0.00  0.00     0.055 A 
BRANCH  34  38
ATOM     38  O   UNL d   1      33.620 -20.063  -0.523  0.00  0.00    -0.353 OA
ATOM     39  C   UNL d   1      33.119 -20.538   0.731  0.00  0.00     0.210 C 
ENDBRANCH  34  38
BRANCH  35  40
ATOM     40  O   UNL d   1      32.495 -22.655  -1.700  0.00  0.00    -0.351 OA
ATOM     41  C   UNL d   1      33.314 -23.590  -2.313  0.00  0.00     0.210 C 
ENDBRANCH  35  40
BRANCH  36  42
ATOM     42  O   UNL d   1      30.697 -22.455  -3.748  0.00  0.00    -0.353 OA
ATOM     43  C   UNL d   1      29.981 -23.339  -2.875  0.00  0.00     0.210 C 
ENDBRANCH  36  42
ENDBRANCH   1  32
TORSDOF 11
ENDMDL
MODEL 3
REMARK VINA RESULT:    -9.809      5.967      9.455
REMARK INTER + INTRA:         -16.380
REMARK INTER:                 -13.091
REMARK INTRA:                  -3.289
REMARK CONF_INDEPENDENT:        3.281
REMARK UNBOUND:                -3.289
REMARK  11 active torsions:
REMARK  status: ('A' for Active; 'I' for Inactive)
REMARK    1  A    between atoms: O_2  and  C_3 
REMARK    2  A    between atoms: C_5  and  C_6 
REMARK    3  A    between atoms: C_9  and  S_10 
REMARK    4  A    between atoms: S_10  and  C_11 
REMARK    5  A    between atoms: C_11  and  C_12 
REMARK       I    between atoms: C_12  and  N_14 
REMARK    6  A    between atoms: N_14  and  N_15 
REMARK    7  A    between atoms: C_16  and  C_17 
REMARK    8  A    between atoms: C_20  and  C_21 
REMARK    9  A    between atoms: N_29  and  C_30 
REMARK   10  A    between atoms: C_37  and  O_38 
REMARK   11  A    between atoms: C_40  and  O_41 
ROOT
ATOM      1  C   UNL d   1      28.048 -10.626  -1.107  0.00  0.00     0.169 A 
ATOM      2  N   UNL d   1      28.417  -9.862  -2.121  0.00  0.00    -0.128 NA
ATOM      3  N   UNL d   1      28.834 -10.682  -3.170  0.00  0.00    -0.122 NA
ATOM      4  C   UNL d   1      28.699 -11.947  -2.807  0.00  0.00     0.197 A 
ATOM      5  N   UNL d   1      28.249 -11.956  -1.493  0.00  0.00    -0.271 N 
ENDROOT
BRANCH   4   6
ATOM      6  S   UNL d   1      28.909 -13.308  -3.942  0.00  0.00    -0.080 SA
BRANCH   6   7
ATOM      7  C   UNL d   1      27.387 -13.553  -4.907  0.00  0.00     0.187 C 
BRANCH   7   8
ATOM      8  C   UNL d   1      26.207 -14.295  -4.311  0.00  0.00     0.247 C 
ATOM      9  O   UNL d   1      25.040 -14.091  -4.683  0.00  0.00    -0.271 OA
ATOM     10  N   UNL d   1      26.551 -15.304  -3.376  0.00  0.00    -0.247 N 
ATOM     11  H   UNL d   1      27.507 -15.501  -3.088  0.00  0.00     0.192 HD
BRANCH  10  12
ATOM     12  N   UNL d   1      25.527 -16.069  -2.864  0.00  0.00    -0.184 NA
ATOM     13  C   UNL d   1      25.370 -16.203  -1.588  0.00  0.00     0.150 C 
BRANCH  13  14
ATOM     14  C   UNL d   1      24.237 -17.016  -1.065  0.00  0.00    -0.017 A 
ATOM     15  C   UNL d   1      24.420 -18.350  -0.694  0.00  0.00     0.014 A 
ATOM     16  C   UNL d   1      23.321 -19.109  -0.260  0.00  0.00     0.013 A 
ATOM     17  C   UNL d   1      22.042 -18.537  -0.128  0.00  0.00    -0.026 A 
ATOM     18  C   UNL d   1      21.876 -17.200  -0.519  0.00  0.00     0.013 A 
ATOM     19  C   UNL d   1      22.964 -16.444  -0.975  0.00  0.00     0.014 A 
BRANCH  17  20
ATOM     20  C   UNL d   1      20.927 -19.326   0.424  0.00  0.00    -0.026 A 
ATOM     21  C   UNL d   1      20.073 -20.053  -0.426  0.00  0.00     0.012 A 
ATOM     22  C   UNL d   1      18.937 -20.696   0.073  0.00  0.00     0.001 A 
ATOM     23  C   UNL d   1      18.683 -20.693   1.442  0.00  0.00     0.000 A 
ATOM     24  C   UNL d   1      19.545 -20.020   2.306  0.00  0.00     0.001 A 
ATOM     25  C   UNL d   1      20.655 -19.338   1.800  0.00  0.00     0.012 A 
ENDBRANCH  17  20
ENDBRANCH  13  14
ENDBRANCH  10  12
ENDBRANCH   7   8
ENDBRANCH   6   7
ENDBRANCH   4   6
BRANCH   5  26
ATOM     26  C   UNL d   1      27.949 -13.074  -0.706  0.00  0.00     0.043 C 
ATOM     27  C   UNL d   1      26.646 -13.233  -0.238  0.00  0.00     0.030 C 
ATOM     28  C   UNL d   1      26.438 -14.059   0.865  0.00  0.00     0.002 C 
ATOM     29  C   UNL d   1      27.487 -14.826   1.370  0.00  0.00     0.000 C 
ATOM     30  C   UNL d   1      28.754 -14.766   0.781  0.00  0.00     0.002 C 
ATOM     31  C   UNL d   1      28.999 -13.875  -0.256  0.00  0.00     0.030 C 
ENDBRANCH   5  26
BRANCH   1  32
ATOM     32  C   UNL d   1      27.538 -10.233   0.243  0.00  0.00     0.018 A 
ATOM     33  C   UNL d   1      28.121 -10.704   1.444  0.00  0.00     0.055 A 
ATOM     34  C   UNL d   1      27.889 -10.068   2.704  0.00  0.00     0.105 A 
ATOM     35  C   UNL d   1      27.032  -8.948   2.746  0.00  0.00     0.135 A 
ATOM     36  C   UNL d   1      26.368  -8.528   1.566  0.00  0.00     0.105 A 
ATOM     37  C   UNL d   1      26.602  -9.189   0.346  0.00  0.00     0.055 A 
BRANCH  34  38
ATOM     38  O   UNL d   1      28.779 -10.434   3.700  0.00  0.00    -0.353 OA
ATOM     39  C   UNL d   1      28.935 -11.809   4.066  0.00  0.00     0.210 C 
ENDBRANCH  34  38
BRANCH  35  40
ATOM     40  O   UNL d   1      26.820  -8.083   3.769  0.00  0.00    -0.351 OA
ATOM     41  C   UNL d   1      27.805  -7.263   4.296  0.00  0.00     0.210 C 
ENDBRANCH  35  40
BRANCH  36  42
ATOM     42  O   UNL d   1      25.528  -7.426   1.452  0.00  0.00    -0.353 OA
ATOM     43  C   UNL d   1      25.988  -6.159   1.940  0.00  0.00     0.210 C 
ENDBRANCH  36  42
ENDBRANCH   1  32
TORSDOF 11
ENDMDL
MODEL 4
REMARK VINA RESULT:    -9.678      5.132      9.261
REMARK INTER + INTRA:         -16.120
REMARK INTER:                 -12.960
REMARK INTRA:                  -3.160
REMARK CONF_INDEPENDENT:        3.281
REMARK UNBOUND:                -3.160
REMARK  11 active torsions:
REMARK  status: ('A' for Active; 'I' for Inactive)
REMARK    1  A    between atoms: O_2  and  C_3 
REMARK    2  A    between atoms: C_5  and  C_6 
REMARK    3  A    between atoms: C_9  and  S_10 
REMARK    4  A    between atoms: S_10  and  C_11 
REMARK    5  A    between atoms: C_11  and  C_12 
REMARK       I    between atoms: C_12  and  N_14 
REMARK    6  A    between atoms: N_14  and  N_15 
REMARK    7  A    between atoms: C_16  and  C_17 
REMARK    8  A    between atoms: C_20  and  C_21 
REMARK    9  A    between atoms: N_29  and  C_30 
REMARK   10  A    between atoms: C_37  and  O_38 
REMARK   11  A    between atoms: C_40  and  O_41 
ROOT
ATOM      1  C   UNL d   1      28.242 -11.681  -0.382  0.00  0.00     0.169 A 
ATOM      2  N   UNL d   1      29.114 -12.328   0.373  0.00  0.00    -0.128 NA
ATOM      3  N   UNL d   1      29.753 -13.290  -0.410  0.00  0.00    -0.122 NA
ATOM      4  C   UNL d   1      29.291 -13.215  -1.647  0.00  0.00     0.197 A 
ATOM      5  N   UNL d   1      28.301 -12.242  -1.662  0.00  0.00    -0.271 N 
ENDROOT
BRANCH   4   6
ATOM      6  S   UNL d   1      30.012 -14.120  -3.007  0.00  0.00    -0.080 SA
BRANCH   6   7
ATOM      7  C   UNL d   1      28.776 -14.352  -4.322  0.00  0.00     0.187 C 
BRANCH   7   8
ATOM      8  C   UNL d   1      27.467 -15.059  -4.034  0.00  0.00     0.247 C 
ATOM      9  O   UNL d   1      26.816 -15.635  -4.921  0.00  0.00    -0.271 OA
ATOM     10  N   UNL d   1      27.101 -15.097  -2.665  0.00  0.00    -0.247 N 
ATOM     11  H   UNL d   1      27.645 -14.655  -1.926  0.00  0.00     0.192 HD
BRANCH  10  12
ATOM     12  N   UNL d   1      25.965 -15.798  -2.332  0.00  0.00    -0.184 NA
ATOM     13  C   UNL d   1      25.857 -16.388  -1.186  0.00  0.00     0.150 C 
BRANCH  13  14
ATOM     14  C   UNL d   1      24.604 -17.117  -0.845  0.00  0.00    -0.017 A 
ATOM     15  C   UNL d   1      24.621 -18.486  -0.569  0.00  0.00     0.014 A 
ATOM     16  C   UNL d   1      23.416 -19.158  -0.309  0.00  0.00     0.013 A 
ATOM     17  C   UNL d   1      22.189 -18.470  -0.257  0.00  0.00    -0.026 A 
ATOM     18  C   UNL d   1      22.191 -17.099  -0.551  0.00  0.00     0.013 A 
ATOM     19  C   UNL d   1      23.388 -16.427  -0.834  0.00  0.00     0.014 A 
BRANCH  17  20
ATOM     20  C   UNL d   1      20.953 -19.179   0.116  0.00  0.00    -0.026 A 
ATOM     21  C   UNL d   1      20.009 -19.539  -0.863  0.00  0.00     0.012 A 
ATOM     22  C   UNL d   1      18.776 -20.092  -0.507  0.00  0.00     0.001 A 
ATOM     23  C   UNL d   1      18.502 -20.373   0.829  0.00  0.00     0.000 A 
ATOM     24  C   UNL d   1      19.445 -20.071   1.809  0.00  0.00     0.001 A 
ATOM     25  C   UNL d   1      20.659 -19.474   1.456  0.00  0.00     0.012 A 
ENDBRANCH  17  20
ENDBRANCH  13  14
ENDBRANCH  10  12
ENDBRANCH   7   8
ENDBRANCH   6   7
ENDBRANCH   4   6
BRANCH   5  26
ATOM     26  C   UNL d   1      27.550 -11.811  -2.763  0.00  0.00     0.043 C 
ATOM     27  C   UNL d   1      26.213 -12.192  -2.850  0.00  0.00     0.030 C 
ATOM     28  C   UNL d   1      25.597 -12.152  -4.100  0.00  0.00     0.002 C 
ATOM     29  C   UNL d   1      26.263 -11.589  -5.188  0.00  0.00     0.000 C 
ATOM     30  C   UNL d   1      27.552 -11.070  -5.037  0.00  0.00     0.002 C 
ATOM     31  C   UNL d   1      28.214 -11.191  -3.821  0.00  0.00     0.030 C 
ENDBRANCH   5  26
BRANCH   1  32
ATOM     32  C   UNL d   1      27.306 -10.573  -0.015  0.00  0.00     0.018 A 
ATOM     33  C   UNL d   1      26.774 -10.426   1.288  0.00  0.00     0.055 A 
ATOM     34  C   UNL d   1      26.189  -9.201   1.739  0.00  0.00     0.105 A 
ATOM     35  C   UNL d   1      26.124  -8.115   0.841  0.00  0.00     0.135 A 
ATOM     36  C   UNL d   1      26.566  -8.282  -0.496  0.00  0.00     0.105 A 
ATOM     37  C   UNL d   1      27.117  -9.508  -0.913  0.00  0.00     0.055 A 
BRANCH  34  38
ATOM     38  O   UNL d   1      26.030  -9.117   3.113  0.00  0.00    -0.353 OA
ATOM     39  C   UNL d   1      27.077  -9.542   3.992  0.00  0.00     0.210 C 
ENDBRANCH  34  38
BRANCH  35  40
ATOM     40  O   UNL d   1      25.798  -6.823   1.098  0.00  0.00    -0.351 OA
ATOM     41  C   UNL d   1      24.759  -6.155   0.471  0.00  0.00     0.210 C 
ENDBRANCH  35  40
BRANCH  36  42
ATOM     42  O   UNL d   1      26.594  -7.295  -1.474  0.00  0.00    -0.353 OA
ATOM     43  C   UNL d   1      25.792  -7.470  -2.649  0.00  0.00     0.210 C 
ENDBRANCH  36  42
ENDBRANCH   1  32
TORSDOF 11
ENDMDL
MODEL 5
REMARK VINA RESULT:    -9.568      2.062      3.836
REMARK INTER + INTRA:         -16.058
REMARK INTER:                 -12.850
REMARK INTRA:                  -3.208
REMARK CONF_INDEPENDENT:        3.281
REMARK UNBOUND:                -3.208
REMARK  11 active torsions:
REMARK  status: ('A' for Active; 'I' for Inactive)
REMARK    1  A    between atoms: O_2  and  C_3 
REMARK    2  A    between atoms: C_5  and  C_6 
REMARK    3  A    between atoms: C_9  and  S_10 
REMARK    4  A    between atoms: S_10  and  C_11 
REMARK    5  A    between atoms: C_11  and  C_12 
REMARK       I    between atoms: C_12  and  N_14 
REMARK    6  A    between atoms: N_14  and  N_15 
REMARK    7  A    between atoms: C_16  and  C_17 
REMARK    8  A    between atoms: C_20  and  C_21 
REMARK    9  A    between atoms: N_29  and  C_30 
REMARK   10  A    between atoms: C_37  and  O_38 
REMARK   11  A    between atoms: C_40  and  O_41 
ROOT
ATOM      1  C   UNL d   1      31.076 -18.490  -5.059  0.00  0.00     0.169 A 
ATOM      2  N   UNL d   1      31.068 -18.658  -6.371  0.00  0.00    -0.128 NA
ATOM      3  N   UNL d   1      30.487 -17.535  -6.961  0.00  0.00    -0.122 NA
ATOM      4  C   UNL d   1      30.162 -16.671  -6.015  0.00  0.00     0.197 A 
ATOM      5  N   UNL d   1      30.475 -17.255  -4.795  0.00  0.00    -0.271 N 
ENDROOT
BRANCH   4   6
ATOM      6  S   UNL d   1      29.602 -15.013  -6.367  0.00  0.00    -0.080 SA
BRANCH   6   7
ATOM      7  C   UNL d   1      28.585 -14.395  -4.991  0.00  0.00     0.187 C 
BRANCH   7   8
ATOM      8  C   UNL d   1      27.304 -15.106  -4.600  0.00  0.00     0.247 C 
ATOM      9  O   UNL d   1      26.537 -15.601  -5.441  0.00  0.00    -0.271 OA
ATOM     10  N   UNL d   1      27.107 -15.249  -3.202  0.00  0.00    -0.247 N 
ATOM     11  H   UNL d   1      27.746 -14.874  -2.504  0.00  0.00     0.192 HD
BRANCH  10  12
ATOM     12  N   UNL d   1      26.004 -15.960  -2.788  0.00  0.00    -0.184 NA
ATOM     13  C   UNL d   1      25.717 -16.072  -1.532  0.00  0.00     0.150 C 
BRANCH  13  14
ATOM     14  C   UNL d   1      24.502 -16.826  -1.117  0.00  0.00    -0.017 A 
ATOM     15  C   UNL d   1      23.271 -16.182  -0.970  0.00  0.00     0.014 A 
ATOM     16  C   UNL d   1      22.156 -16.907  -0.520  0.00  0.00     0.013 A 
ATOM     17  C   UNL d   1      22.231 -18.291  -0.274  0.00  0.00    -0.026 A 
ATOM     18  C   UNL d   1      23.479 -18.916  -0.414  0.00  0.00     0.013 A 
ATOM     19  C   UNL d   1      24.601 -18.193  -0.840  0.00  0.00     0.014 A 
BRANCH  17  20
ATOM     20  C   UNL d   1      21.024 -19.047   0.100  0.00  0.00    -0.026 A 
ATOM     21  C   UNL d   1      20.111 -19.473  -0.881  0.00  0.00     0.012 A 
ATOM     22  C   UNL d   1      18.900 -20.074  -0.527  0.00  0.00     0.001 A 
ATOM     23  C   UNL d   1      18.622 -20.337   0.811  0.00  0.00     0.000 A 
ATOM     24  C   UNL d   1      19.537 -19.968   1.796  0.00  0.00     0.001 A 
ATOM     25  C   UNL d   1      20.726 -19.325   1.443  0.00  0.00     0.012 A 
ENDBRANCH  17  20
ENDBRANCH  13  14
ENDBRANCH  10  12
ENDBRANCH   7   8
ENDBRANCH   6   7
ENDBRANCH   4   6
BRANCH   5  26
ATOM     26  C   UNL d   1      30.319 -16.695  -3.520  0.00  0.00     0.043 C 
ATOM     27  C   UNL d   1      31.156 -15.647  -3.143  0.00  0.00     0.030 C 
ATOM     28  C   UNL d   1      31.313 -15.386  -1.783  0.00  0.00     0.002 C 
ATOM     29  C   UNL d   1      30.522 -16.054  -0.848  0.00  0.00     0.000 C 
ATOM     30  C   UNL d   1      29.575 -16.993  -1.267  0.00  0.00     0.002 C 
ATOM     31  C   UNL d   1      29.476 -17.334  -2.610  0.00  0.00     0.030 C 
ENDBRANCH   5  26
BRANCH   1  32
ATOM     32  C   UNL d   1      31.576 -19.405  -3.987  0.00  0.00     0.018 A 
ATOM     33  C   UNL d   1      32.438 -18.967  -2.954  0.00  0.00     0.055 A 
ATOM     34  C   UNL d   1      32.624 -19.715  -1.749  0.00  0.00     0.105 A 
ATOM     35  C   UNL d   1      31.939 -20.941  -1.604  0.00  0.00     0.135 A 
ATOM     36  C   UNL d   1      31.150 -21.434  -2.673  0.00  0.00     0.105 A 
ATOM     37  C   UNL d   1      31.005 -20.683  -3.854  0.00  0.00     0.055 A 
BRANCH  34  38
ATOM     38  O   UNL d   1      33.217 -19.002  -0.720  0.00  0.00    -0.353 OA
ATOM     39  C   UNL d   1      32.439 -18.115   0.091  0.00  0.00     0.210 C 
ENDBRANCH  34  38
BRANCH  35  40
ATOM     40  O   UNL d   1      31.810 -21.712  -0.495  0.00  0.00    -0.351 OA
ATOM     41  C   UNL d   1      31.576 -21.200   0.772  0.00  0.00     0.210 C 
ENDBRANCH  35  40
BRANCH  36  42
ATOM     42  O   UNL d   1      30.396 -22.602  -2.658  0.00  0.00    -0.353 OA
ATOM     43  C   UNL d   1      31.041 -23.840  -2.983  0.00  0.00     0.210 C 
ENDBRANCH  36  42
ENDBRANCH   1  32
TORSDOF 11
ENDMDL
MODEL 6
REMARK VINA RESULT:    -9.529      1.467      2.141
REMARK INTER + INTRA:         -16.392
REMARK INTER:                 -12.810
REMARK INTRA:                  -3.582
REMARK CONF_INDEPENDENT:        3.281
REMARK UNBOUND:                -3.582
REMARK  11 active torsions:
REMARK  status: ('A' for Active; 'I' for Inactive)
REMARK    1  A    between atoms: O_2  and  C_3 
REMARK    2  A    between atoms: C_5  and  C_6 
REMARK    3  A    between atoms: C_9  and  S_10 
REMARK    4  A    between atoms: S_10  and  C_11 
REMARK    5  A    between atoms: C_11  and  C_12 
REMARK       I    between atoms: C_12  and  N_14 
REMARK    6  A    between atoms: N_14  and  N_15 
REMARK    7  A    between atoms: C_16  and  C_17 
REMARK    8  A    between atoms: C_20  and  C_21 
REMARK    9  A    between atoms: N_29  and  C_30 
REMARK   10  A    between atoms: C_37  and  O_38 
REMARK   11  A    between atoms: C_40  and  O_41 
ROOT
ATOM      1  C   UNL d   1      30.231 -17.337  -2.986  0.00  0.00     0.169 A 
ATOM      2  N   UNL d   1      29.515 -17.044  -1.914  0.00  0.00    -0.128 NA
ATOM      3  N   UNL d   1      29.080 -15.722  -2.015  0.00  0.00    -0.122 NA
ATOM      4  C   UNL d   1      29.510 -15.214  -3.158  0.00  0.00     0.197 A 
ATOM      5  N   UNL d   1      30.280 -16.187  -3.781  0.00  0.00    -0.271 N 
ENDROOT
BRANCH   4   6
ATOM      6  S   UNL d   1      28.981 -13.624  -3.772  0.00  0.00    -0.080 SA
BRANCH   6   7
ATOM      7  C   UNL d   1      27.492 -13.818  -4.799  0.00  0.00     0.187 C 
BRANCH   7   8
ATOM      8  C   UNL d   1      26.260 -14.509  -4.248  0.00  0.00     0.247 C 
ATOM      9  O   UNL d   1      25.124 -14.303  -4.706  0.00  0.00    -0.271 OA
ATOM     10  N   UNL d   1      26.520 -15.477  -3.246  0.00  0.00    -0.247 N 
ATOM     11  H   UNL d   1      27.452 -15.676  -2.885  0.00  0.00     0.192 HD
BRANCH  10  12
ATOM     12  N   UNL d   1      25.449 -16.197  -2.767  0.00  0.00    -0.184 NA
ATOM     13  C   UNL d   1      25.362 -16.509  -1.515  0.00  0.00     0.150 C 
BRANCH  13  14
ATOM     14  C   UNL d   1      24.178 -17.267  -1.024  0.00  0.00    -0.017 A 
ATOM     15  C   UNL d   1      24.307 -18.573  -0.547  0.00  0.00     0.014 A 
ATOM     16  C   UNL d   1      23.164 -19.284  -0.146  0.00  0.00     0.013 A 
ATOM     17  C   UNL d   1      21.890 -18.686  -0.152  0.00  0.00    -0.026 A 
ATOM     18  C   UNL d   1      21.779 -17.379  -0.648  0.00  0.00     0.013 A 
ATOM     19  C   UNL d   1      22.913 -16.673  -1.072  0.00  0.00     0.014 A 
BRANCH  17  20
ATOM     20  C   UNL d   1      20.722 -19.418   0.367  0.00  0.00    -0.026 A 
ATOM     21  C   UNL d   1      19.768 -19.963  -0.511  0.00  0.00     0.012 A 
ATOM     22  C   UNL d   1      18.592 -20.543  -0.028  0.00  0.00     0.001 A 
ATOM     23  C   UNL d   1      18.390 -20.663   1.344  0.00  0.00     0.000 A 
ATOM     24  C   UNL d   1      19.347 -20.174   2.231  0.00  0.00     0.001 A 
ATOM     25  C   UNL d   1      20.501 -19.552   1.746  0.00  0.00     0.012 A 
ENDBRANCH  17  20
ENDBRANCH  13  14
ENDBRANCH  10  12
ENDBRANCH   7   8
ENDBRANCH   6   7
ENDBRANCH   4   6
BRANCH   5  26
ATOM     26  C   UNL d   1      30.920 -16.098  -5.023  0.00  0.00     0.043 C 
ATOM     27  C   UNL d   1      30.148 -16.169  -6.181  0.00  0.00     0.030 C 
ATOM     28  C   UNL d   1      30.779 -16.517  -7.374  0.00  0.00     0.002 C 
ATOM     29  C   UNL d   1      32.168 -16.625  -7.422  0.00  0.00     0.000 C 
ATOM     30  C   UNL d   1      32.936 -16.394  -6.277  0.00  0.00     0.002 C 
ATOM     31  C   UNL d   1      32.314 -16.142  -5.060  0.00  0.00     0.030 C 
ENDBRANCH   5  26
BRANCH   1  32
ATOM     32  C   UNL d   1      30.923 -18.613  -3.346  0.00  0.00     0.018 A 
ATOM     33  C   UNL d   1      31.520 -19.455  -2.378  0.00  0.00     0.055 A 
ATOM     34  C   UNL d   1      31.852 -20.819  -2.655  0.00  0.00     0.105 A 
ATOM     35  C   UNL d   1      31.593 -21.327  -3.945  0.00  0.00     0.135 A 
ATOM     36  C   UNL d   1      31.085 -20.465  -4.950  0.00  0.00     0.105 A 
ATOM     37  C   UNL d   1      30.788 -19.123  -4.650  0.00  0.00     0.055 A 
BRANCH  34  38
ATOM     38  O   UNL d   1      32.107 -21.583  -1.528  0.00  0.00    -0.353 OA
ATOM     39  C   UNL d   1      31.793 -21.083  -0.225  0.00  0.00     0.210 C 
ENDBRANCH  34  38
BRANCH  35  40
ATOM     40  O   UNL d   1      31.642 -22.614  -4.373  0.00  0.00    -0.351 OA
ATOM     41  C   UNL d   1      32.345 -23.023  -5.495  0.00  0.00     0.210 C 
ENDBRANCH  35  40
BRANCH  36  42
ATOM     42  O   UNL d   1      30.750 -20.835  -6.247  0.00  0.00    -0.353 OA
ATOM     43  C   UNL d   1      30.787 -19.837  -7.276  0.00  0.00     0.210 C 
ENDBRANCH  36  42
ENDBRANCH   1  32
TORSDOF 11
ENDMDL
MODEL 7
REMARK VINA RESULT:    -9.311      5.238      8.433
REMARK INTER + INTRA:         -16.391
REMARK INTER:                 -12.592
REMARK INTRA:                  -3.799
REMARK CONF_INDEPENDENT:        3.281
REMARK UNBOUND:                -3.799
REMARK  11 active torsions:
REMARK  status: ('A' for Active; 'I' for Inactive)
REMARK    1  A    between atoms: O_2  and  C_3 
REMARK    2  A    between atoms: C_5  and  C_6 
REMARK    3  A    between atoms: C_9  and  S_10 
REMARK    4  A    between atoms: S_10  and  C_11 
REMARK    5  A    between atoms: C_11  and  C_12 
REMARK       I    between atoms: C_12  and  N_14 
REMARK    6  A    between atoms: N_14  and  N_15 
REMARK    7  A    between atoms: C_16  and  C_17 
REMARK    8  A    between atoms: C_20  and  C_21 
REMARK    9  A    between atoms: N_29  and  C_30 
REMARK   10  A    between atoms: C_37  and  O_38 
REMARK   11  A    between atoms: C_40  and  O_41 
ROOT
ATOM      1  C   UNL d   1      27.642 -12.691  -0.209  0.00  0.00     0.169 A 
ATOM      2  N   UNL d   1      26.805 -12.372  -1.182  0.00  0.00    -0.128 NA
ATOM      3  N   UNL d   1      27.446 -12.571  -2.405  0.00  0.00    -0.122 NA
ATOM      4  C   UNL d   1      28.664 -13.034  -2.182  0.00  0.00     0.197 A 
ATOM      5  N   UNL d   1      28.845 -13.080  -0.807  0.00  0.00    -0.271 N 
ENDROOT
BRANCH   4   6
ATOM      6  S   UNL d   1      29.727 -13.630  -3.486  0.00  0.00    -0.080 SA
BRANCH   6   7
ATOM      7  C   UNL d   1      28.734 -14.446  -4.774  0.00  0.00     0.187 C 
BRANCH   7   8
ATOM      8  C   UNL d   1      27.447 -15.163  -4.416  0.00  0.00     0.247 C 
ATOM      9  O   UNL d   1      26.728 -15.702  -5.273  0.00  0.00    -0.271 OA
ATOM     10  N   UNL d   1      27.186 -15.256  -3.025  0.00  0.00    -0.247 N 
ATOM     11  H   UNL d   1      27.785 -14.844  -2.312  0.00  0.00     0.192 HD
BRANCH  10  12
ATOM     12  N   UNL d   1      26.075 -15.969  -2.636  0.00  0.00    -0.184 NA
ATOM     13  C   UNL d   1      25.749 -16.066  -1.388  0.00  0.00     0.150 C 
BRANCH  13  14
ATOM     14  C   UNL d   1      24.526 -16.823  -1.001  0.00  0.00    -0.017 A 
ATOM     15  C   UNL d   1      23.280 -16.195  -0.941  0.00  0.00     0.014 A 
ATOM     16  C   UNL d   1      22.155 -16.919  -0.516  0.00  0.00     0.013 A 
ATOM     17  C   UNL d   1      22.239 -18.290  -0.208  0.00  0.00    -0.026 A 
ATOM     18  C   UNL d   1      23.502 -18.899  -0.261  0.00  0.00     0.013 A 
ATOM     19  C   UNL d   1      24.633 -18.175  -0.662  0.00  0.00     0.014 A 
BRANCH  17  20
ATOM     20  C   UNL d   1      21.027 -19.052   0.138  0.00  0.00    -0.026 A 
ATOM     21  C   UNL d   1      20.133 -19.472  -0.863  0.00  0.00     0.012 A 
ATOM     22  C   UNL d   1      18.917 -20.078  -0.536  0.00  0.00     0.001 A 
ATOM     23  C   UNL d   1      18.614 -20.350   0.796  0.00  0.00     0.000 A 
ATOM     24  C   UNL d   1      19.510 -19.987   1.799  0.00  0.00     0.001 A 
ATOM     25  C   UNL d   1      20.705 -19.339   1.473  0.00  0.00     0.012 A 
ENDBRANCH  17  20
ENDBRANCH  13  14
ENDBRANCH  10  12
ENDBRANCH   7   8
ENDBRANCH   6   7
ENDBRANCH   4   6
BRANCH   5  26
ATOM     26  C   UNL d   1      29.978 -13.524  -0.113  0.00  0.00     0.043 C 
ATOM     27  C   UNL d   1      30.230 -14.893  -0.050  0.00  0.00     0.030 C 
ATOM     28  C   UNL d   1      31.063 -15.363   0.964  0.00  0.00     0.002 C 
ATOM     29  C   UNL d   1      31.747 -14.462   1.779  0.00  0.00     0.000 C 
ATOM     30  C   UNL d   1      31.597 -13.085   1.592  0.00  0.00     0.002 C 
ATOM     31  C   UNL d   1      30.696 -12.603   0.650  0.00  0.00     0.030 C 
ENDBRANCH   5  26
BRANCH   1  32
ATOM     32  C   UNL d   1      27.440 -12.641   1.272  0.00  0.00     0.018 A 
ATOM     33  C   UNL d   1      27.711 -13.746   2.115  0.00  0.00     0.055 A 
ATOM     34  C   UNL d   1      27.872 -13.604   3.529  0.00  0.00     0.105 A 
ATOM     35  C   UNL d   1      27.732 -12.320   4.098  0.00  0.00     0.135 A 
ATOM     36  C   UNL d   1      27.366 -11.224   3.276  0.00  0.00     0.105 A 
ATOM     37  C   UNL d   1      27.194 -11.402   1.890  0.00  0.00     0.055 A 
BRANCH  34  38
ATOM     38  O   UNL d   1      28.457 -14.696   4.149  0.00  0.00    -0.353 OA
ATOM     39  C   UNL d   1      29.722 -14.567   4.805  0.00  0.00     0.210 C 
ENDBRANCH  34  38
BRANCH  35  40
ATOM     40  O   UNL d   1      28.026 -11.917   5.360  0.00  0.00    -0.351 OA
ATOM     41  C   UNL d   1      29.116 -11.122   5.677  0.00  0.00     0.210 C 
ENDBRANCH  35  40
BRANCH  36  42
ATOM     42  O   UNL d   1      27.228  -9.905   3.691  0.00  0.00    -0.353 OA
ATOM     43  C   UNL d   1      27.932  -8.883   2.974  0.00  0.00     0.210 C 
ENDBRANCH  36  42
ENDBRANCH   1  32
TORSDOF 11
ENDMDL
MODEL 8
REMARK VINA RESULT:    -9.260      5.925      9.727
REMARK INTER + INTRA:         -16.342
REMARK INTER:                 -12.541
REMARK INTRA:                  -3.800
REMARK CONF_INDEPENDENT:        3.281
REMARK UNBOUND:                -3.800
REMARK  11 active torsions:
REMARK  status: ('A' for Active; 'I' for Inactive)
REMARK    1  A    between atoms: O_2  and  C_3 
REMARK    2  A    between atoms: C_5  and  C_6 
REMARK    3  A    between atoms: C_9  and  S_10 
REMARK    4  A    between atoms: S_10  and  C_11 
REMARK    5  A    between atoms: C_11  and  C_12 
REMARK       I    between atoms: C_12  and  N_14 
REMARK    6  A    between atoms: N_14  and  N_15 
REMARK    7  A    between atoms: C_16  and  C_17 
REMARK    8  A    between atoms: C_20  and  C_21 
REMARK    9  A    between atoms: N_29  and  C_30 
REMARK   10  A    between atoms: C_37  and  O_38 
REMARK   11  A    between atoms: C_40  and  O_41 
ROOT
ATOM      1  C   UNL d   1      27.611 -12.282   0.405  0.00  0.00     0.169 A 
ATOM      2  N   UNL d   1      27.565 -13.603   0.343  0.00  0.00    -0.128 NA
ATOM      3  N   UNL d   1      27.931 -14.002  -0.943  0.00  0.00    -0.122 NA
ATOM      4  C   UNL d   1      28.223 -12.929  -1.659  0.00  0.00     0.197 A 
ATOM      5  N   UNL d   1      27.990 -11.819  -0.859  0.00  0.00    -0.271 N 
ENDROOT
BRANCH   4   6
ATOM      6  S   UNL d   1      28.952 -13.020  -3.286  0.00  0.00    -0.080 SA
BRANCH   6   7
ATOM      7  C   UNL d   1      27.706 -13.561  -4.496  0.00  0.00     0.187 C 
BRANCH   7   8
ATOM      8  C   UNL d   1      26.462 -14.301  -4.044  0.00  0.00     0.247 C 
ATOM      9  O   UNL d   1      25.367 -14.164  -4.612  0.00  0.00    -0.271 OA
ATOM     10  N   UNL d   1      26.673 -15.231  -2.994  0.00  0.00    -0.247 N 
ATOM     11  H   UNL d   1      27.575 -15.373  -2.543  0.00  0.00     0.192 HD
BRANCH  10  12
ATOM     12  N   UNL d   1      25.598 -15.993  -2.598  0.00  0.00    -0.184 NA
ATOM     13  C   UNL d   1      25.381 -16.240  -1.348  0.00  0.00     0.150 C 
BRANCH  13  14
ATOM     14  C   UNL d   1      24.194 -17.047  -0.950  0.00  0.00    -0.017 A 
ATOM     15  C   UNL d   1      24.339 -18.345  -0.456  0.00  0.00     0.014 A 
ATOM     16  C   UNL d   1      23.200 -19.104  -0.145  0.00  0.00     0.013 A 
ATOM     17  C   UNL d   1      21.906 -18.561  -0.257  0.00  0.00    -0.026 A 
ATOM     18  C   UNL d   1      21.780 -17.261  -0.768  0.00  0.00     0.013 A 
ATOM     19  C   UNL d   1      22.913 -16.507  -1.102  0.00  0.00     0.014 A 
BRANCH  17  20
ATOM     20  C   UNL d   1      20.732 -19.341   0.170  0.00  0.00    -0.026 A 
ATOM     21  C   UNL d   1      19.736 -19.705  -0.755  0.00  0.00     0.012 A 
ATOM     22  C   UNL d   1      18.557 -20.329  -0.337  0.00  0.00     0.001 A 
ATOM     23  C   UNL d   1      18.393 -20.675   1.001  0.00  0.00     0.000 A 
ATOM     24  C   UNL d   1      19.389 -20.368   1.925  0.00  0.00     0.001 A 
ATOM     25  C   UNL d   1      20.548 -19.702   1.513  0.00  0.00     0.012 A 
ENDBRANCH  17  20
ENDBRANCH  13  14
ENDBRANCH  10  12
ENDBRANCH   7   8
ENDBRANCH   6   7
ENDBRANCH   4   6
BRANCH   5  26
ATOM     26  C   UNL d   1      28.183 -10.473  -1.196  0.00  0.00     0.043 C 
ATOM     27  C   UNL d   1      29.182  -9.757  -0.541  0.00  0.00     0.030 C 
ATOM     28  C   UNL d   1      29.100  -8.365  -0.537  0.00  0.00     0.002 C 
ATOM     29  C   UNL d   1      28.134  -7.721  -1.309  0.00  0.00     0.000 C 
ATOM     30  C   UNL d   1      27.238  -8.463  -2.083  0.00  0.00     0.002 C 
ATOM     31  C   UNL d   1      27.246  -9.852  -2.021  0.00  0.00     0.030 C 
ENDBRANCH   5  26
BRANCH   1  32
ATOM     32  C   UNL d   1      27.300 -11.374   1.552  0.00  0.00     0.018 A 
ATOM     33  C   UNL d   1      28.090 -11.332   2.726  0.00  0.00     0.055 A 
ATOM     34  C   UNL d   1      28.026 -10.241   3.649  0.00  0.00     0.105 A 
ATOM     35  C   UNL d   1      27.126  -9.186   3.384  0.00  0.00     0.135 A 
ATOM     36  C   UNL d   1      26.262  -9.266   2.263  0.00  0.00     0.105 A 
ATOM     37  C   UNL d   1      26.337 -10.363   1.386  0.00  0.00     0.055 A 
BRANCH  34  38
ATOM     38  O   UNL d   1      29.081 -10.189   4.545  0.00  0.00    -0.353 OA
ATOM     39  C   UNL d   1      28.893 -10.571   5.911  0.00  0.00     0.210 C 
ENDBRANCH  34  38
BRANCH  35  40
ATOM     40  O   UNL d   1      27.032  -7.980   3.999  0.00  0.00    -0.351 OA
ATOM     41  C   UNL d   1      28.102  -7.113   4.153  0.00  0.00     0.210 C 
ENDBRANCH  35  40
BRANCH  36  42
ATOM     42  O   UNL d   1      25.357  -8.291   1.862  0.00  0.00    -0.353 OA
ATOM     43  C   UNL d   1      25.377  -7.854   0.496  0.00  0.00     0.210 C 
ENDBRANCH  36  42
ENDBRANCH   1  32
TORSDOF 11
ENDMDL
MODEL 9
REMARK VINA RESULT:    -9.059      1.400      1.968
REMARK INTER + INTRA:         -16.250
REMARK INTER:                 -12.341
REMARK INTRA:                  -3.909
REMARK CONF_INDEPENDENT:        3.281
REMARK UNBOUND:                -3.909
REMARK  11 active torsions:
REMARK  status: ('A' for Active; 'I' for Inactive)
REMARK    1  A    between atoms: O_2  and  C_3 
REMARK    2  A    between atoms: C_5  and  C_6 
REMARK    3  A    between atoms: C_9  and  S_10 
REMARK    4  A    between atoms: S_10  and  C_11 
REMARK    5  A    between atoms: C_11  and  C_12 
REMARK       I    between atoms: C_12  and  N_14 
REMARK    6  A    between atoms: N_14  and  N_15 
REMARK    7  A    between atoms: C_16  and  C_17 
REMARK    8  A    between atoms: C_20  and  C_21 
REMARK    9  A    between atoms: N_29  and  C_30 
REMARK   10  A    between atoms: C_37  and  O_38 
REMARK   11  A    between atoms: C_40  and  O_41 
ROOT
ATOM      1  C   UNL d   1      30.305 -17.463  -3.414  0.00  0.00     0.169 A 
ATOM      2  N   UNL d   1      29.576 -17.282  -2.325  0.00  0.00    -0.128 NA
ATOM      3  N   UNL d   1      29.120 -15.963  -2.308  0.00  0.00    -0.122 NA
ATOM      4  C   UNL d   1      29.549 -15.345  -3.395  0.00  0.00     0.197 A 
ATOM      5  N   UNL d   1      30.340 -16.243  -4.098  0.00  0.00    -0.271 N 
ENDROOT
BRANCH   4   6
ATOM      6  S   UNL d   1      28.998 -13.713  -3.863  0.00  0.00    -0.080 SA
BRANCH   6   7
ATOM      7  C   UNL d   1      27.493 -13.833  -4.879  0.00  0.00     0.187 C 
BRANCH   7   8
ATOM      8  C   UNL d   1      26.257 -14.532  -4.347  0.00  0.00     0.247 C 
ATOM      9  O   UNL d   1      25.155 -14.450  -4.913  0.00  0.00    -0.271 OA
ATOM     10  N   UNL d   1      26.484 -15.363  -3.220  0.00  0.00    -0.247 N 
ATOM     11  H   UNL d   1      27.391 -15.461  -2.768  0.00  0.00     0.192 HD
BRANCH  10  12
ATOM     12  N   UNL d   1      25.416 -16.089  -2.744  0.00  0.00    -0.184 NA
ATOM     13  C   UNL d   1      25.359 -16.456  -1.506  0.00  0.00     0.150 C 
BRANCH  13  14
ATOM     14  C   UNL d   1      24.177 -17.219  -1.015  0.00  0.00    -0.017 A 
ATOM     15  C   UNL d   1      24.310 -18.527  -0.546  0.00  0.00     0.014 A 
ATOM     16  C   UNL d   1      23.170 -19.243  -0.145  0.00  0.00     0.013 A 
ATOM     17  C   UNL d   1      21.895 -18.648  -0.144  0.00  0.00    -0.026 A 
ATOM     18  C   UNL d   1      21.780 -17.338  -0.633  0.00  0.00     0.013 A 
ATOM     19  C   UNL d   1      22.911 -16.627  -1.056  0.00  0.00     0.014 A 
BRANCH  17  20
ATOM     20  C   UNL d   1      20.730 -19.385   0.374  0.00  0.00    -0.026 A 
ATOM     21  C   UNL d   1      19.803 -19.972  -0.505  0.00  0.00     0.012 A 
ATOM     22  C   UNL d   1      18.628 -20.559  -0.028  0.00  0.00     0.001 A 
ATOM     23  C   UNL d   1      18.401 -20.642   1.343  0.00  0.00     0.000 A 
ATOM     24  C   UNL d   1      19.332 -20.110   2.233  0.00  0.00     0.001 A 
ATOM     25  C   UNL d   1      20.485 -19.482   1.752  0.00  0.00     0.012 A 
ENDBRANCH  17  20
ENDBRANCH  13  14
ENDBRANCH  10  12
ENDBRANCH   7   8
ENDBRANCH   6   7
ENDBRANCH   4   6
BRANCH   5  26
ATOM     26  C   UNL d   1      30.988 -16.028  -5.321  0.00  0.00     0.043 C 
ATOM     27  C   UNL d   1      30.393 -16.506  -6.486  0.00  0.00     0.030 C 
ATOM     28  C   UNL d   1      31.198 -16.690  -7.610  0.00  0.00     0.002 C 
ATOM     29  C   UNL d   1      32.520 -16.249  -7.600  0.00  0.00     0.000 C 
ATOM     30  C   UNL d   1      33.050 -15.627  -6.465  0.00  0.00     0.002 C 
ATOM     31  C   UNL d   1      32.289 -15.525  -5.307  0.00  0.00     0.030 C 
ENDBRANCH   5  26
BRANCH   1  32
ATOM     32  C   UNL d   1      31.022 -18.688  -3.884  0.00  0.00     0.018 A 
ATOM     33  C   UNL d   1      30.560 -19.470  -4.970  0.00  0.00     0.055 A 
ATOM     34  C   UNL d   1      31.404 -20.405  -5.649  0.00  0.00     0.105 A 
ATOM     35  C   UNL d   1      32.733 -20.562  -5.201  0.00  0.00     0.135 A 
ATOM     36  C   UNL d   1      33.175 -19.854  -4.054  0.00  0.00     0.105 A 
ATOM     37  C   UNL d   1      32.313 -18.958  -3.397  0.00  0.00     0.055 A 
BRANCH  34  38
ATOM     38  O   UNL d   1      30.915 -20.829  -6.873  0.00  0.00    -0.353 OA
ATOM     39  C   UNL d   1      30.779 -19.907  -7.959  0.00  0.00     0.210 C 
ENDBRANCH  34  38
BRANCH  35  40
ATOM     40  O   UNL d   1      33.753 -21.230  -5.796  0.00  0.00    -0.351 OA
ATOM     41  C   UNL d   1      34.707 -20.619  -6.593  0.00  0.00     0.210 C 
ENDBRANCH  35  40
BRANCH  36  42
ATOM     42  O   UNL d   1      34.460 -19.884  -3.525  0.00  0.00    -0.353 OA
ATOM     43  C   UNL d   1      34.703 -20.683  -2.359  0.00  0.00     0.210 C 
ENDBRANCH  36  42
ENDBRANCH   1  32
TORSDOF 11
ENDMDL
