MODEL 1
REMARK VINA RESULT:    -9.215      0.000      0.000
REMARK INTER + INTRA:         -12.218
REMARK INTER:                 -11.303
REMARK INTRA:                  -0.915
REMARK CONF_INDEPENDENT:        2.088
REMARK UNBOUND:                -0.915
REMARK  7 active torsions:
REMARK  status: ('A' for Active; 'I' for Inactive)
REMARK    1  A    between atoms: O_2  and  C_3 
REMARK       I    between atoms: C_3  and  N_5 
REMARK    2  A    between atoms: N_5  and  C_6 
REMARK    3  A    between atoms: C_9  and  C_10 
REMARK    4  A    between atoms: C_10  and  N_11 
REMARK       I    between atoms: N_11  and  C_12 
REMARK    5  A    between atoms: C_12  and  C_14 
REMARK       I    between atoms: C_14  and  N_16 
REMARK    6  A    between atoms: N_16  and  C_17 
REMARK    7  A    between atoms: C_21  and  C_22 
ROOT
ATOM      1  N   UNL d   1      26.222 -15.618  -2.268  0.00  0.00    -0.349 N 
ATOM      2  C   UNL d   1      25.794 -15.105  -3.478  0.00  0.00     0.309 C 
ATOM      3  O   UNL d   1      24.780 -14.450  -3.662  0.00  0.00    -0.262 OA
ATOM      4  H   UNL d   1      27.114 -16.097  -2.306  0.00  0.00     0.163 HD
ENDROOT
BRANCH   2   5
ATOM      5  C   UNL d   1      26.750 -15.440  -4.660  0.00  0.00     0.313 C 
ATOM      6  O   UNL d   1      26.248 -15.651  -5.760  0.00  0.00    -0.262 OA
ATOM      7  N   UNL d   1      28.101 -15.518  -4.337  0.00  0.00    -0.319 N 
ATOM      8  H   UNL d   1      28.349 -15.476  -3.352  0.00  0.00     0.169 HD
BRANCH   7   9
ATOM      9  C   UNL d   1      29.120 -15.744  -5.292  0.00  0.00     0.035 A 
ATOM     10  C   UNL d   1      29.539 -14.725  -6.156  0.00  0.00     0.029 A 
ATOM     11  C   UNL d   1      30.506 -14.982  -7.142  0.00  0.00     0.003 A 
ATOM     12  C   UNL d   1      31.071 -16.252  -7.258  0.00  0.00     0.016 A 
ATOM     13  C   UNL d   1      30.642 -17.287  -6.419  0.00  0.00     0.050 A 
ATOM     14  C   UNL d   1      29.679 -17.015  -5.434  0.00  0.00     0.045 A 
BRANCH  13  15
ATOM     15  C   UNL d   1      31.161 -18.687  -6.602  0.00  0.00     0.417 C 
ATOM     16  F   UNL d   1      30.295 -19.620  -6.113  0.00  0.00    -0.166 F 
ATOM     17  F   UNL d   1      31.362 -19.010  -7.908  0.00  0.00    -0.166 F 
ATOM     18  F   UNL d   1      32.345 -18.917  -5.968  0.00  0.00    -0.166 F 
ENDBRANCH  13  15
ENDBRANCH   7   9
ENDBRANCH   2   5
BRANCH   1  19
ATOM     19  C   UNL d   1      25.513 -15.451  -1.006  0.00  0.00     0.161 C 
BRANCH  19  20
ATOM     20  C   UNL d   1      24.481 -16.523  -0.678  0.00  0.00    -0.040 A 
ATOM     21  C   UNL d   1      24.893 -17.831  -0.347  0.00  0.00     0.011 A 
ATOM     22  C   UNL d   1      23.954 -18.870  -0.145  0.00  0.00     0.030 A 
ATOM     23  C   UNL d   1      22.584 -18.613  -0.231  0.00  0.00     0.036 A 
ATOM     24  C   UNL d   1      22.174 -17.318  -0.537  0.00  0.00     0.030 A 
ATOM     25  C   UNL d   1      23.102 -16.291  -0.736  0.00  0.00     0.011 A 
BRANCH  23  26
ATOM     26  N   UNL d   1      21.629 -19.615   0.058  0.00  0.00    -0.303 N 
ATOM     27  C   UNL d   1      20.522 -19.876  -0.717  0.00  0.00     0.364 C 
ATOM     28  O   UNL d   1      20.278 -19.372  -1.814  0.00  0.00    -0.238 OA
ATOM     29  H   UNL d   1      21.780 -20.212   0.861  0.00  0.00     0.171 HD
BRANCH  27  30
ATOM     30  O   UNL d   1      19.722 -20.825  -0.150  0.00  0.00    -0.309 OA
ATOM     31  C   UNL d   1      18.845 -20.299   0.860  0.00  0.00     0.215 C 
ENDBRANCH  27  30
ENDBRANCH  23  26
ENDBRANCH  19  20
ENDBRANCH   1  19
TORSDOF 7
ENDMDL
MODEL 2
REMARK VINA RESULT:    -8.946      2.385      3.029
REMARK INTER + INTRA:         -11.867
REMARK INTER:                 -11.034
REMARK INTRA:                  -0.833
REMARK CONF_INDEPENDENT:        2.088
REMARK UNBOUND:                -0.833
REMARK  7 active torsions:
REMARK  status: ('A' for Active; 'I' for Inactive)
REMARK    1  A    between atoms: O_2  and  C_3 
REMARK       I    between atoms: C_3  and  N_5 
REMARK    2  A    between atoms: N_5  and  C_6 
REMARK    3  A    between atoms: C_9  and  C_10 
REMARK    4  A    between atoms: C_10  and  N_11 
REMARK       I    between atoms: N_11  and  C_12 
REMARK    5  A    between atoms: C_12  and  C_14 
REMARK       I    between atoms: C_14  and  N_16 
REMARK    6  A    between atoms: N_16  and  C_17 
REMARK    7  A    between atoms: C_21  and  C_22 
ROOT
ATOM      1  N   UNL d   1      26.505 -15.653  -2.300  0.00  0.00    -0.349 N 
ATOM      2  C   UNL d   1      25.924 -15.167  -3.457  0.00  0.00     0.309 C 
ATOM      3  O   UNL d   1      24.808 -14.682  -3.552  0.00  0.00    -0.262 OA
ATOM      4  H   UNL d   1      27.459 -15.976  -2.412  0.00  0.00     0.163 HD
ENDROOT
BRANCH   2   5
ATOM      5  C   UNL d   1      26.846 -15.289  -4.705  0.00  0.00     0.313 C 
ATOM      6  O   UNL d   1      26.323 -15.573  -5.778  0.00  0.00    -0.262 OA
ATOM      7  N   UNL d   1      28.206 -15.110  -4.468  0.00  0.00    -0.319 N 
ATOM      8  H   UNL d   1      28.506 -15.038  -3.500  0.00  0.00     0.169 HD
BRANCH   7   9
ATOM      9  C   UNL d   1      29.183 -15.117  -5.491  0.00  0.00     0.035 A 
ATOM     10  C   UNL d   1      30.033 -16.216  -5.671  0.00  0.00     0.029 A 
ATOM     11  C   UNL d   1      31.041 -16.182  -6.648  0.00  0.00     0.003 A 
ATOM     12  C   UNL d   1      31.195 -15.059  -7.461  0.00  0.00     0.016 A 
ATOM     13  C   UNL d   1      30.371 -13.943  -7.274  0.00  0.00     0.050 A 
ATOM     14  C   UNL d   1      29.364 -13.992  -6.298  0.00  0.00     0.045 A 
BRANCH  13  15
ATOM     15  C   UNL d   1      30.594 -12.684  -8.066  0.00  0.00     0.417 C 
ATOM     16  F   UNL d   1      29.571 -12.439  -8.934  0.00  0.00    -0.166 F 
ATOM     17  F   UNL d   1      30.695 -11.576  -7.283  0.00  0.00    -0.166 F 
ATOM     18  F   UNL d   1      31.723 -12.713  -8.829  0.00  0.00    -0.166 F 
ENDBRANCH  13  15
ENDBRANCH   7   9
ENDBRANCH   2   5
BRANCH   1  19
ATOM     19  C   UNL d   1      25.858 -15.658  -0.995  0.00  0.00     0.161 C 
BRANCH  19  20
ATOM     20  C   UNL d   1      24.761 -16.698  -0.803  0.00  0.00    -0.040 A 
ATOM     21  C   UNL d   1      23.403 -16.323  -0.873  0.00  0.00     0.011 A 
ATOM     22  C   UNL d   1      22.368 -17.246  -0.590  0.00  0.00     0.030 A 
ATOM     23  C   UNL d   1      22.669 -18.571  -0.270  0.00  0.00     0.036 A 
ATOM     24  C   UNL d   1      24.008 -18.949  -0.221  0.00  0.00     0.030 A 
ATOM     25  C   UNL d   1      25.031 -18.038  -0.501  0.00  0.00     0.011 A 
BRANCH  23  26
ATOM     26  N   UNL d   1      21.649 -19.530  -0.076  0.00  0.00    -0.303 N 
ATOM     27  C   UNL d   1      20.330 -19.338  -0.423  0.00  0.00     0.364 C 
ATOM     28  O   UNL d   1      19.886 -18.376  -1.052  0.00  0.00    -0.238 OA
ATOM     29  H   UNL d   1      21.897 -20.434   0.303  0.00  0.00     0.171 HD
BRANCH  27  30
ATOM     30  O   UNL d   1      19.549 -20.386  -0.032  0.00  0.00    -0.309 OA
ATOM     31  C   UNL d   1      19.331 -20.433   1.389  0.00  0.00     0.215 C 
ENDBRANCH  27  30
ENDBRANCH  23  26
ENDBRANCH  19  20
ENDBRANCH   1  19
TORSDOF 7
ENDMDL
MODEL 3
REMARK VINA RESULT:    -8.652      6.632      8.703
REMARK INTER + INTRA:         -12.497
REMARK INTER:                 -10.740
REMARK INTRA:                  -1.757
REMARK CONF_INDEPENDENT:        2.088
REMARK UNBOUND:                -1.757
REMARK  7 active torsions:
REMARK  status: ('A' for Active; 'I' for Inactive)
REMARK    1  A    between atoms: O_2  and  C_3 
REMARK       I    between atoms: C_3  and  N_5 
REMARK    2  A    between atoms: N_5  and  C_6 
REMARK    3  A    between atoms: C_9  and  C_10 
REMARK    4  A    between atoms: C_10  and  N_11 
REMARK       I    between atoms: N_11  and  C_12 
REMARK    5  A    between atoms: C_12  and  C_14 
REMARK       I    between atoms: C_14  and  N_16 
REMARK    6  A    between atoms: N_16  and  C_17 
REMARK    7  A    between atoms: C_21  and  C_22 
ROOT
ATOM      1  N   UNL d   1      26.250 -14.986   0.014  0.00  0.00    -0.349 N 
ATOM      2  C   UNL d   1      27.172 -15.382   0.965  0.00  0.00     0.309 C 
ATOM      3  O   UNL d   1      27.759 -16.452   0.994  0.00  0.00    -0.262 OA
ATOM      4  H   UNL d   1      25.903 -14.041   0.132  0.00  0.00     0.163 HD
ENDROOT
BRANCH   2   5
ATOM      5  C   UNL d   1      27.427 -14.305   2.060  0.00  0.00     0.313 C 
ATOM      6  O   UNL d   1      27.040 -13.162   1.840  0.00  0.00    -0.262 OA
ATOM      7  N   UNL d   1      28.127 -14.742   3.180  0.00  0.00    -0.319 N 
ATOM      8  H   UNL d   1      28.522 -15.678   3.149  0.00  0.00     0.169 HD
BRANCH   7   9
ATOM      9  C   UNL d   1      28.391 -13.924   4.304  0.00  0.00     0.035 A 
ATOM     10  C   UNL d   1      28.612 -14.482   5.568  0.00  0.00     0.029 A 
ATOM     11  C   UNL d   1      28.809 -13.655   6.686  0.00  0.00     0.003 A 
ATOM     12  C   UNL d   1      28.801 -12.267   6.544  0.00  0.00     0.016 A 
ATOM     13  C   UNL d   1      28.554 -11.695   5.291  0.00  0.00     0.050 A 
ATOM     14  C   UNL d   1      28.365 -12.533   4.181  0.00  0.00     0.045 A 
BRANCH  13  15
ATOM     15  C   UNL d   1      28.434 -10.203   5.139  0.00  0.00     0.417 C 
ATOM     16  F   UNL d   1      27.229  -9.838   4.615  0.00  0.00    -0.166 F 
ATOM     17  F   UNL d   1      28.545  -9.541   6.323  0.00  0.00    -0.166 F 
ATOM     18  F   UNL d   1      29.373  -9.662   4.313  0.00  0.00    -0.166 F 
ENDBRANCH  13  15
ENDBRANCH   7   9
ENDBRANCH   2   5
BRANCH   1  19
ATOM     19  C   UNL d   1      25.832 -15.803  -1.117  0.00  0.00     0.161 C 
BRANCH  19  20
ATOM     20  C   UNL d   1      24.684 -16.770  -0.849  0.00  0.00    -0.040 A 
ATOM     21  C   UNL d   1      23.349 -16.320  -0.894  0.00  0.00     0.011 A 
ATOM     22  C   UNL d   1      22.273 -17.169  -0.542  0.00  0.00     0.030 A 
ATOM     23  C   UNL d   1      22.509 -18.496  -0.177  0.00  0.00     0.036 A 
ATOM     24  C   UNL d   1      23.825 -18.949  -0.153  0.00  0.00     0.030 A 
ATOM     25  C   UNL d   1      24.888 -18.109  -0.500  0.00  0.00     0.011 A 
BRANCH  23  26
ATOM     26  N   UNL d   1      21.443 -19.386   0.087  0.00  0.00    -0.303 N 
ATOM     27  C   UNL d   1      20.466 -19.718  -0.826  0.00  0.00     0.364 C 
ATOM     28  O   UNL d   1      20.455 -19.393  -2.015  0.00  0.00    -0.238 OA
ATOM     29  H   UNL d   1      21.406 -19.847   0.986  0.00  0.00     0.171 HD
BRANCH  27  30
ATOM     30  O   UNL d   1      19.509 -20.517  -0.273  0.00  0.00    -0.309 OA
ATOM     31  C   UNL d   1      19.038 -20.040   0.999  0.00  0.00     0.215 C 
ENDBRANCH  27  30
ENDBRANCH  23  26
ENDBRANCH  19  20
ENDBRANCH   1  19
TORSDOF 7
ENDMDL
MODEL 4
REMARK VINA RESULT:    -8.498      6.782      8.767
REMARK INTER + INTRA:         -12.330
REMARK INTER:                 -10.587
REMARK INTRA:                  -1.744
REMARK CONF_INDEPENDENT:        2.088
REMARK UNBOUND:                -1.744
REMARK  7 active torsions:
REMARK  status: ('A' for Active; 'I' for Inactive)
REMARK    1  A    between atoms: O_2  and  C_3 
REMARK       I    between atoms: C_3  and  N_5 
REMARK    2  A    between atoms: N_5  and  C_6 
REMARK    3  A    between atoms: C_9  and  C_10 
REMARK    4  A    between atoms: C_10  and  N_11 
REMARK       I    between atoms: N_11  and  C_12 
REMARK    5  A    between atoms: C_12  and  C_14 
REMARK       I    between atoms: C_14  and  N_16 
REMARK    6  A    between atoms: N_16  and  C_17 
REMARK    7  A    between atoms: C_21  and  C_22 
ROOT
ATOM      1  N   UNL d   1      26.281 -14.962  -0.056  0.00  0.00    -0.349 N 
ATOM      2  C   UNL d   1      27.205 -15.274   0.924  0.00  0.00     0.309 C 
ATOM      3  O   UNL d   1      27.832 -16.318   1.014  0.00  0.00    -0.262 OA
ATOM      4  H   UNL d   1      25.897 -14.027   0.010  0.00  0.00     0.163 HD
ENDROOT
BRANCH   2   5
ATOM      5  C   UNL d   1      27.404 -14.135   1.966  0.00  0.00     0.313 C 
ATOM      6  O   UNL d   1      26.914 -13.038   1.717  0.00  0.00    -0.262 OA
ATOM      7  N   UNL d   1      28.176 -14.464   3.076  0.00  0.00    -0.319 N 
ATOM      8  H   UNL d   1      28.648 -15.364   3.067  0.00  0.00     0.169 HD
BRANCH   7   9
ATOM      9  C   UNL d   1      28.407 -13.580   4.156  0.00  0.00     0.035 A 
ATOM     10  C   UNL d   1      28.409 -12.192   3.966  0.00  0.00     0.029 A 
ATOM     11  C   UNL d   1      28.703 -11.329   5.034  0.00  0.00     0.003 A 
ATOM     12  C   UNL d   1      28.979 -11.846   6.300  0.00  0.00     0.016 A 
ATOM     13  C   UNL d   1      29.007 -13.231   6.498  0.00  0.00     0.050 A 
ATOM     14  C   UNL d   1      28.706 -14.082   5.423  0.00  0.00     0.045 A 
BRANCH  13  15
ATOM     15  C   UNL d   1      29.410 -13.807   7.828  0.00  0.00     0.417 C 
ATOM     16  F   UNL d   1      30.613 -14.447   7.765  0.00  0.00    -0.166 F 
ATOM     17  F   UNL d   1      29.538 -12.861   8.797  0.00  0.00    -0.166 F 
ATOM     18  F   UNL d   1      28.530 -14.728   8.312  0.00  0.00    -0.166 F 
ENDBRANCH  13  15
ENDBRANCH   7   9
ENDBRANCH   2   5
BRANCH   1  19
ATOM     19  C   UNL d   1      25.909 -15.851  -1.148  0.00  0.00     0.161 C 
BRANCH  19  20
ATOM     20  C   UNL d   1      24.746 -16.795  -0.869  0.00  0.00    -0.040 A 
ATOM     21  C   UNL d   1      23.418 -16.322  -0.911  0.00  0.00     0.011 A 
ATOM     22  C   UNL d   1      22.329 -17.149  -0.549  0.00  0.00     0.030 A 
ATOM     23  C   UNL d   1      22.543 -18.478  -0.177  0.00  0.00     0.036 A 
ATOM     24  C   UNL d   1      23.851 -18.954  -0.155  0.00  0.00     0.030 A 
ATOM     25  C   UNL d   1      24.927 -18.136  -0.513  0.00  0.00     0.011 A 
BRANCH  23  26
ATOM     26  N   UNL d   1      21.462 -19.347   0.098  0.00  0.00    -0.303 N 
ATOM     27  C   UNL d   1      20.499 -19.699  -0.822  0.00  0.00     0.364 C 
ATOM     28  O   UNL d   1      20.511 -19.414  -2.020  0.00  0.00    -0.238 OA
ATOM     29  H   UNL d   1      21.405 -19.777   1.011  0.00  0.00     0.171 HD
BRANCH  27  30
ATOM     30  O   UNL d   1      19.523 -20.469  -0.259  0.00  0.00    -0.309 OA
ATOM     31  C   UNL d   1      19.185 -20.068   1.080  0.00  0.00     0.215 C 
ENDBRANCH  27  30
ENDBRANCH  23  26
ENDBRANCH  19  20
ENDBRANCH   1  19
TORSDOF 7
ENDMDL
MODEL 5
REMARK VINA RESULT:    -8.236      5.700      6.743
REMARK INTER + INTRA:         -12.181
REMARK INTER:                 -10.324
REMARK INTRA:                  -1.857
REMARK CONF_INDEPENDENT:        2.088
REMARK UNBOUND:                -1.857
REMARK  7 active torsions:
REMARK  status: ('A' for Active; 'I' for Inactive)
REMARK    1  A    between atoms: O_2  and  C_3 
REMARK       I    between atoms: C_3  and  N_5 
REMARK    2  A    between atoms: N_5  and  C_6 
REMARK    3  A    between atoms: C_9  and  C_10 
REMARK    4  A    between atoms: C_10  and  N_11 
REMARK       I    between atoms: N_11  and  C_12 
REMARK    5  A    between atoms: C_12  and  C_14 
REMARK       I    between atoms: C_14  and  N_16 
REMARK    6  A    between atoms: N_16  and  C_17 
REMARK    7  A    between atoms: C_21  and  C_22 
ROOT
ATOM      1  N   UNL d   1      26.194 -14.955  -2.098  0.00  0.00    -0.349 N 
ATOM      2  C   UNL d   1      25.689 -14.272  -3.189  0.00  0.00     0.309 C 
ATOM      3  O   UNL d   1      25.127 -14.772  -4.151  0.00  0.00    -0.262 OA
ATOM      4  H   UNL d   1      26.587 -14.362  -1.376  0.00  0.00     0.163 HD
ENDROOT
BRANCH   2   5
ATOM      5  C   UNL d   1      25.899 -12.732  -3.102  0.00  0.00     0.313 C 
ATOM      6  O   UNL d   1      26.457 -12.286  -2.104  0.00  0.00    -0.262 OA
ATOM      7  N   UNL d   1      25.376 -11.994  -4.159  0.00  0.00    -0.319 N 
ATOM      8  H   UNL d   1      24.800 -12.488  -4.834  0.00  0.00     0.169 HD
BRANCH   7   9
ATOM      9  C   UNL d   1      25.530 -10.593  -4.284  0.00  0.00     0.035 A 
ATOM     10  C   UNL d   1      25.727  -9.997  -5.535  0.00  0.00     0.029 A 
ATOM     11  C   UNL d   1      25.943  -8.613  -5.637  0.00  0.00     0.003 A 
ATOM     12  C   UNL d   1      25.945  -7.816  -4.492  0.00  0.00     0.016 A 
ATOM     13  C   UNL d   1      25.777  -8.402  -3.232  0.00  0.00     0.050 A 
ATOM     14  C   UNL d   1      25.556  -9.786  -3.145  0.00  0.00     0.045 A 
BRANCH  13  15
ATOM     15  C   UNL d   1      25.885  -7.575  -1.980  0.00  0.00     0.417 C 
ATOM     16  F   UNL d   1      25.262  -6.369  -2.110  0.00  0.00    -0.166 F 
ATOM     17  F   UNL d   1      25.320  -8.176  -0.898  0.00  0.00    -0.166 F 
ATOM     18  F   UNL d   1      27.169  -7.288  -1.626  0.00  0.00    -0.166 F 
ENDBRANCH  13  15
ENDBRANCH   7   9
ENDBRANCH   2   5
BRANCH   1  19
ATOM     19  C   UNL d   1      26.130 -16.400  -1.930  0.00  0.00     0.161 C 
BRANCH  19  20
ATOM     20  C   UNL d   1      24.851 -16.940  -1.302  0.00  0.00    -0.040 A 
ATOM     21  C   UNL d   1      24.830 -18.222  -0.716  0.00  0.00     0.011 A 
ATOM     22  C   UNL d   1      23.629 -18.789  -0.226  0.00  0.00     0.030 A 
ATOM     23  C   UNL d   1      22.434 -18.068  -0.276  0.00  0.00     0.036 A 
ATOM     24  C   UNL d   1      22.456 -16.793  -0.835  0.00  0.00     0.030 A 
ATOM     25  C   UNL d   1      23.642 -16.233  -1.320  0.00  0.00     0.011 A 
BRANCH  23  26
ATOM     26  N   UNL d   1      21.245 -18.578   0.292  0.00  0.00    -0.303 N 
ATOM     27  C   UNL d   1      20.300 -19.299  -0.404  0.00  0.00     0.364 C 
ATOM     28  O   UNL d   1      20.415 -19.700  -1.564  0.00  0.00    -0.238 OA
ATOM     29  H   UNL d   1      21.085 -18.449   1.283  0.00  0.00     0.171 HD
BRANCH  27  30
ATOM     30  O   UNL d   1      19.211 -19.579   0.366  0.00  0.00    -0.309 OA
ATOM     31  C   UNL d   1      19.030 -20.986   0.605  0.00  0.00     0.215 C 
ENDBRANCH  27  30
ENDBRANCH  23  26
ENDBRANCH  19  20
ENDBRANCH   1  19
TORSDOF 7
ENDMDL
MODEL 6
REMARK VINA RESULT:    -8.200      6.565      8.243
REMARK INTER + INTRA:         -12.107
REMARK INTER:                 -10.288
REMARK INTRA:                  -1.819
REMARK CONF_INDEPENDENT:        2.088
REMARK UNBOUND:                -1.819
REMARK  7 active torsions:
REMARK  status: ('A' for Active; 'I' for Inactive)
REMARK    1  A    between atoms: O_2  and  C_3 
REMARK       I    between atoms: C_3  and  N_5 
REMARK    2  A    between atoms: N_5  and  C_6 
REMARK    3  A    between atoms: C_9  and  C_10 
REMARK    4  A    between atoms: C_10  and  N_11 
REMARK       I    between atoms: N_11  and  C_12 
REMARK    5  A    between atoms: C_12  and  C_14 
REMARK       I    between atoms: C_14  and  N_16 
REMARK    6  A    between atoms: N_16  and  C_17 
REMARK    7  A    between atoms: C_21  and  C_22 
ROOT
ATOM      1  N   UNL d   1      26.247 -14.994  -0.427  0.00  0.00    -0.349 N 
ATOM      2  C   UNL d   1      27.273 -15.418   0.396  0.00  0.00     0.309 C 
ATOM      3  O   UNL d   1      27.786 -16.526   0.391  0.00  0.00    -0.262 OA
ATOM      4  H   UNL d   1      25.984 -14.023  -0.306  0.00  0.00     0.163 HD
ENDROOT
BRANCH   2   5
ATOM      5  C   UNL d   1      27.759 -14.322   1.388  0.00  0.00     0.313 C 
ATOM      6  O   UNL d   1      27.214 -13.223   1.339  0.00  0.00    -0.262 OA
ATOM      7  N   UNL d   1      28.818 -14.685   2.214  0.00  0.00    -0.319 N 
ATOM      8  H   UNL d   1      29.270 -15.576   2.029  0.00  0.00     0.169 HD
BRANCH   7   9
ATOM      9  C   UNL d   1      29.346 -13.844   3.222  0.00  0.00     0.035 A 
ATOM     10  C   UNL d   1      30.634 -13.307   3.113  0.00  0.00     0.029 A 
ATOM     11  C   UNL d   1      31.168 -12.526   4.151  0.00  0.00     0.003 A 
ATOM     12  C   UNL d   1      30.413 -12.264   5.294  0.00  0.00     0.016 A 
ATOM     13  C   UNL d   1      29.134 -12.817   5.428  0.00  0.00     0.050 A 
ATOM     14  C   UNL d   1      28.610 -13.591   4.381  0.00  0.00     0.045 A 
BRANCH  13  15
ATOM     15  C   UNL d   1      28.350 -12.636   6.699  0.00  0.00     0.417 C 
ATOM     16  F   UNL d   1      28.397 -11.349   7.149  0.00  0.00    -0.166 F 
ATOM     17  F   UNL d   1      27.031 -12.935   6.553  0.00  0.00    -0.166 F 
ATOM     18  F   UNL d   1      28.800 -13.402   7.732  0.00  0.00    -0.166 F 
ENDBRANCH  13  15
ENDBRANCH   7   9
ENDBRANCH   2   5
BRANCH   1  19
ATOM     19  C   UNL d   1      25.611 -15.822  -1.443  0.00  0.00     0.161 C 
BRANCH  19  20
ATOM     20  C   UNL d   1      24.494 -16.736  -0.952  0.00  0.00    -0.040 A 
ATOM     21  C   UNL d   1      24.786 -18.041  -0.505  0.00  0.00     0.011 A 
ATOM     22  C   UNL d   1      23.757 -18.945  -0.148  0.00  0.00     0.030 A 
ATOM     23  C   UNL d   1      22.419 -18.547  -0.192  0.00  0.00     0.036 A 
ATOM     24  C   UNL d   1      22.130 -17.252  -0.612  0.00  0.00     0.030 A 
ATOM     25  C   UNL d   1      23.147 -16.359  -0.966  0.00  0.00     0.011 A 
BRANCH  23  26
ATOM     26  N   UNL d   1      21.384 -19.403   0.249  0.00  0.00    -0.303 N 
ATOM     27  C   UNL d   1      20.364 -19.863  -0.554  0.00  0.00     0.364 C 
ATOM     28  O   UNL d   1      20.281 -19.700  -1.773  0.00  0.00    -0.238 OA
ATOM     29  H   UNL d   1      21.406 -19.740   1.202  0.00  0.00     0.171 HD
BRANCH  27  30
ATOM     30  O   UNL d   1      19.453 -20.589   0.155  0.00  0.00    -0.309 OA
ATOM     31  C   UNL d   1      19.224 -20.076   1.479  0.00  0.00     0.215 C 
ENDBRANCH  27  30
ENDBRANCH  23  26
ENDBRANCH  19  20
ENDBRANCH   1  19
TORSDOF 7
ENDMDL
MODEL 7
REMARK VINA RESULT:    -8.180      5.736      6.808
REMARK INTER + INTRA:         -12.051
REMARK INTER:                 -10.268
REMARK INTRA:                  -1.783
REMARK CONF_INDEPENDENT:        2.088
REMARK UNBOUND:                -1.783
REMARK  7 active torsions:
REMARK  status: ('A' for Active; 'I' for Inactive)
REMARK    1  A    between atoms: O_2  and  C_3 
REMARK       I    between atoms: C_3  and  N_5 
REMARK    2  A    between atoms: N_5  and  C_6 
REMARK    3  A    between atoms: C_9  and  C_10 
REMARK    4  A    between atoms: C_10  and  N_11 
REMARK       I    between atoms: N_11  and  C_12 
REMARK    5  A    between atoms: C_12  and  C_14 
REMARK       I    between atoms: C_14  and  N_16 
REMARK    6  A    between atoms: N_16  and  C_17 
REMARK    7  A    between atoms: C_21  and  C_22 
ROOT
ATOM      1  N   UNL d   1      26.249 -14.870  -2.081  0.00  0.00    -0.349 N 
ATOM      2  C   UNL d   1      25.654 -14.091  -3.055  0.00  0.00     0.309 C 
ATOM      3  O   UNL d   1      24.979 -14.497  -3.987  0.00  0.00    -0.262 OA
ATOM      4  H   UNL d   1      26.734 -14.347  -1.361  0.00  0.00     0.163 HD
ENDROOT
BRANCH   2   5
ATOM      5  C   UNL d   1      25.918 -12.568  -2.870  0.00  0.00     0.313 C 
ATOM      6  O   UNL d   1      26.561 -12.213  -1.887  0.00  0.00    -0.262 OA
ATOM      7  N   UNL d   1      25.345 -11.738  -3.828  0.00  0.00    -0.319 N 
ATOM      8  H   UNL d   1      24.706 -12.164  -4.494  0.00  0.00     0.169 HD
BRANCH   7   9
ATOM      9  C   UNL d   1      25.534 -10.336  -3.860  0.00  0.00     0.035 A 
ATOM     10  C   UNL d   1      26.036  -9.649  -2.748  0.00  0.00     0.029 A 
ATOM     11  C   UNL d   1      26.158  -8.250  -2.773  0.00  0.00     0.003 A 
ATOM     12  C   UNL d   1      25.796  -7.532  -3.912  0.00  0.00     0.016 A 
ATOM     13  C   UNL d   1      25.267  -8.204  -5.021  0.00  0.00     0.050 A 
ATOM     14  C   UNL d   1      25.156  -9.602  -4.986  0.00  0.00     0.045 A 
BRANCH  13  15
ATOM     15  C   UNL d   1      24.770  -7.436  -6.216  0.00  0.00     0.417 C 
ATOM     16  F   UNL d   1      23.492  -7.778  -6.547  0.00  0.00    -0.166 F 
ATOM     17  F   UNL d   1      24.758  -6.091  -6.013  0.00  0.00    -0.166 F 
ATOM     18  F   UNL d   1      25.509  -7.643  -7.342  0.00  0.00    -0.166 F 
ENDBRANCH  13  15
ENDBRANCH   7   9
ENDBRANCH   2   5
BRANCH   1  19
ATOM     19  C   UNL d   1      26.160 -16.323  -2.021  0.00  0.00     0.161 C 
BRANCH  19  20
ATOM     20  C   UNL d   1      24.901 -16.884  -1.371  0.00  0.00    -0.040 A 
ATOM     21  C   UNL d   1      24.898 -18.186  -0.829  0.00  0.00     0.011 A 
ATOM     22  C   UNL d   1      23.714 -18.769  -0.319  0.00  0.00     0.030 A 
ATOM     23  C   UNL d   1      22.519 -18.047  -0.304  0.00  0.00     0.036 A 
ATOM     24  C   UNL d   1      22.524 -16.754  -0.819  0.00  0.00     0.030 A 
ATOM     25  C   UNL d   1      23.694 -16.177  -1.323  0.00  0.00     0.011 A 
BRANCH  23  26
ATOM     26  N   UNL d   1      21.348 -18.577   0.285  0.00  0.00    -0.303 N 
ATOM     27  C   UNL d   1      20.400 -19.308  -0.396  0.00  0.00     0.364 C 
ATOM     28  O   UNL d   1      20.497 -19.701  -1.559  0.00  0.00    -0.238 OA
ATOM     29  H   UNL d   1      21.207 -18.454   1.279  0.00  0.00     0.171 HD
BRANCH  27  30
ATOM     30  O   UNL d   1      19.330 -19.607   0.395  0.00  0.00    -0.309 OA
ATOM     31  C   UNL d   1      19.157 -21.018   0.606  0.00  0.00     0.215 C 
ENDBRANCH  27  30
ENDBRANCH  23  26
ENDBRANCH  19  20
ENDBRANCH   1  19
TORSDOF 7
ENDMDL
MODEL 8
REMARK VINA RESULT:    -7.944      4.556      5.485
REMARK INTER + INTRA:         -11.875
REMARK INTER:                 -10.032
REMARK INTRA:                  -1.843
REMARK CONF_INDEPENDENT:        2.088
REMARK UNBOUND:                -1.843
REMARK  7 active torsions:
REMARK  status: ('A' for Active; 'I' for Inactive)
REMARK    1  A    between atoms: O_2  and  C_3 
REMARK       I    between atoms: C_3  and  N_5 
REMARK    2  A    between atoms: N_5  and  C_6 
REMARK    3  A    between atoms: C_9  and  C_10 
REMARK    4  A    between atoms: C_10  and  N_11 
REMARK       I    between atoms: N_11  and  C_12 
REMARK    5  A    between atoms: C_12  and  C_14 
REMARK       I    between atoms: C_14  and  N_16 
REMARK    6  A    between atoms: N_16  and  C_17 
REMARK    7  A    between atoms: C_21  and  C_22 
ROOT
ATOM      1  N   UNL d   1      26.256 -15.237  -1.721  0.00  0.00    -0.349 N 
ATOM      2  C   UNL d   1      25.822 -14.829  -2.968  0.00  0.00     0.309 C 
ATOM      3  O   UNL d   1      25.352 -15.547  -3.835  0.00  0.00    -0.262 OA
ATOM      4  H   UNL d   1      26.575 -14.487  -1.119  0.00  0.00     0.163 HD
ENDROOT
BRANCH   2   5
ATOM      5  C   UNL d   1      25.984 -13.299  -3.204  0.00  0.00     0.313 C 
ATOM      6  O   UNL d   1      26.279 -12.598  -2.241  0.00  0.00    -0.262 OA
ATOM      7  N   UNL d   1      25.723 -12.860  -4.499  0.00  0.00    -0.319 N 
ATOM      8  H   UNL d   1      25.335 -13.535  -5.152  0.00  0.00     0.169 HD
BRANCH   7   9
ATOM      9  C   UNL d   1      25.885 -11.518  -4.915  0.00  0.00     0.035 A 
ATOM     10  C   UNL d   1      25.532 -10.454  -4.075  0.00  0.00     0.029 A 
ATOM     11  C   UNL d   1      25.638  -9.128  -4.526  0.00  0.00     0.003 A 
ATOM     12  C   UNL d   1      26.111  -8.857  -5.810  0.00  0.00     0.016 A 
ATOM     13  C   UNL d   1      26.440  -9.911  -6.669  0.00  0.00     0.050 A 
ATOM     14  C   UNL d   1      26.337 -11.231  -6.205  0.00  0.00     0.045 A 
BRANCH  13  15
ATOM     15  C   UNL d   1      26.848  -9.642  -8.092  0.00  0.00     0.417 C 
ATOM     16  F   UNL d   1      28.195  -9.760  -8.269  0.00  0.00    -0.166 F 
ATOM     17  F   UNL d   1      26.275 -10.501  -8.978  0.00  0.00    -0.166 F 
ATOM     18  F   UNL d   1      26.531  -8.388  -8.522  0.00  0.00    -0.166 F 
ENDBRANCH  13  15
ENDBRANCH   7   9
ENDBRANCH   2   5
BRANCH   1  19
ATOM     19  C   UNL d   1      26.217 -16.614  -1.246  0.00  0.00     0.161 C 
BRANCH  19  20
ATOM     20  C   UNL d   1      24.840 -17.146  -0.867  0.00  0.00    -0.040 A 
ATOM     21  C   UNL d   1      24.683 -18.484  -0.450  0.00  0.00     0.011 A 
ATOM     22  C   UNL d   1      23.403 -19.032  -0.198  0.00  0.00     0.030 A 
ATOM     23  C   UNL d   1      22.258 -18.242  -0.321  0.00  0.00     0.036 A 
ATOM     24  C   UNL d   1      22.412 -16.915  -0.713  0.00  0.00     0.030 A 
ATOM     25  C   UNL d   1      23.677 -16.373  -0.962  0.00  0.00     0.011 A 
BRANCH  23  26
ATOM     26  N   UNL d   1      20.980 -18.744   0.015  0.00  0.00    -0.303 N 
ATOM     27  C   UNL d   1      20.139 -19.378  -0.872  0.00  0.00     0.364 C 
ATOM     28  O   UNL d   1      20.425 -19.702  -2.026  0.00  0.00    -0.238 OA
ATOM     29  H   UNL d   1      20.669 -18.677   0.975  0.00  0.00     0.171 HD
BRANCH  27  30
ATOM     30  O   UNL d   1      18.933 -19.668  -0.304  0.00  0.00    -0.309 OA
ATOM     31  C   UNL d   1      18.982 -20.796   0.587  0.00  0.00     0.215 C 
ENDBRANCH  27  30
ENDBRANCH  23  26
ENDBRANCH  19  20
ENDBRANCH   1  19
TORSDOF 7
ENDMDL
MODEL 9
REMARK VINA RESULT:    -7.902      5.386      6.146
REMARK INTER + INTRA:         -11.725
REMARK INTER:                  -9.990
REMARK INTRA:                  -1.736
REMARK CONF_INDEPENDENT:        2.088
REMARK UNBOUND:                -1.736
REMARK  7 active torsions:
REMARK  status: ('A' for Active; 'I' for Inactive)
REMARK    1  A    between atoms: O_2  and  C_3 
REMARK       I    between atoms: C_3  and  N_5 
REMARK    2  A    between atoms: N_5  and  C_6 
REMARK    3  A    between atoms: C_9  and  C_10 
REMARK    4  A    between atoms: C_10  and  N_11 
REMARK       I    between atoms: N_11  and  C_12 
REMARK    5  A    between atoms: C_12  and  C_14 
REMARK       I    between atoms: C_14  and  N_16 
REMARK    6  A    between atoms: N_16  and  C_17 
REMARK    7  A    between atoms: C_21  and  C_22 
ROOT
ATOM      1  N   UNL d   1      25.709 -15.693  -2.550  0.00  0.00    -0.349 N 
ATOM      2  C   UNL d   1      26.071 -14.362  -2.450  0.00  0.00     0.309 C 
ATOM      3  O   UNL d   1      26.543 -13.819  -1.464  0.00  0.00    -0.262 OA
ATOM      4  H   UNL d   1      25.376 -15.970  -3.466  0.00  0.00     0.163 HD
ENDROOT
BRANCH   2   5
ATOM      5  C   UNL d   1      25.820 -13.557  -3.758  0.00  0.00     0.313 C 
ATOM      6  O   UNL d   1      25.122 -14.074  -4.625  0.00  0.00    -0.262 OA
ATOM      7  N   UNL d   1      26.467 -12.327  -3.840  0.00  0.00    -0.319 N 
ATOM      8  H   UNL d   1      27.140 -12.104  -3.112  0.00  0.00     0.169 HD
BRANCH   7   9
ATOM      9  C   UNL d   1      26.303 -11.430  -4.921  0.00  0.00     0.035 A 
ATOM     10  C   UNL d   1      26.962 -11.638  -6.139  0.00  0.00     0.029 A 
ATOM     11  C   UNL d   1      26.841 -10.705  -7.182  0.00  0.00     0.003 A 
ATOM     12  C   UNL d   1      26.048  -9.569  -7.020  0.00  0.00     0.016 A 
ATOM     13  C   UNL d   1      25.406  -9.334  -5.798  0.00  0.00     0.050 A 
ATOM     14  C   UNL d   1      25.531 -10.278  -4.767  0.00  0.00     0.045 A 
BRANCH  13  15
ATOM     15  C   UNL d   1      24.637  -8.062  -5.569  0.00  0.00     0.417 C 
ATOM     16  F   UNL d   1      25.321  -7.187  -4.777  0.00  0.00    -0.166 F 
ATOM     17  F   UNL d   1      24.366  -7.392  -6.722  0.00  0.00    -0.166 F 
ATOM     18  F   UNL d   1      23.437  -8.254  -4.952  0.00  0.00    -0.166 F 
ENDBRANCH  13  15
ENDBRANCH   7   9
ENDBRANCH   2   5
BRANCH   1  19
ATOM     19  C   UNL d   1      25.838 -16.664  -1.472  0.00  0.00     0.161 C 
BRANCH  19  20
ATOM     20  C   UNL d   1      24.534 -17.257  -0.953  0.00  0.00    -0.040 A 
ATOM     21  C   UNL d   1      24.482 -18.600  -0.525  0.00  0.00     0.011 A 
ATOM     22  C   UNL d   1      23.261 -19.204  -0.142  0.00  0.00     0.030 A 
ATOM     23  C   UNL d   1      22.076 -18.466  -0.141  0.00  0.00     0.036 A 
ATOM     24  C   UNL d   1      22.128 -17.135  -0.543  0.00  0.00     0.030 A 
ATOM     25  C   UNL d   1      23.334 -16.537  -0.921  0.00  0.00     0.011 A 
BRANCH  23  26
ATOM     26  N   UNL d   1      20.864 -19.025   0.326  0.00  0.00    -0.303 N 
ATOM     27  C   UNL d   1      19.884 -19.543  -0.491  0.00  0.00     0.364 C 
ATOM     28  O   UNL d   1      19.976 -19.705  -1.709  0.00  0.00    -0.238 OA
ATOM     29  H   UNL d   1      20.713 -19.092   1.324  0.00  0.00     0.171 HD
BRANCH  27  30
ATOM     30  O   UNL d   1      18.783 -19.922   0.220  0.00  0.00    -0.309 OA
ATOM     31  C   UNL d   1      19.087 -20.822   1.299  0.00  0.00     0.215 C 
ENDBRANCH  27  30
ENDBRANCH  23  26
ENDBRANCH  19  20
ENDBRANCH   1  19
TORSDOF 7
ENDMDL
