MODEL 1
REMARK VINA RESULT:    -9.954      0.000      0.000
REMARK INTER + INTRA:         -13.164
REMARK INTER:                 -12.042
REMARK INTRA:                  -1.121
REMARK CONF_INDEPENDENT:        2.088
REMARK UNBOUND:                -1.121
REMARK  7 active torsions:
REMARK  status: ('A' for Active; 'I' for Inactive)
REMARK    1  A    between atoms: C_2  and  O_3 
REMARK    2  A    between atoms: O_3  and  C_4 
REMARK    3  A    between atoms: C_4  and  C_6 
REMARK    4  A    between atoms: C_9  and  N_10 
REMARK       I    between atoms: N_10  and  C_11 
REMARK    5  A    between atoms: C_13  and  C_11 
REMARK    6  A    between atoms: C_18  and  N_19 
REMARK    7  A    between atoms: N_19  and  C_20 
ROOT
ATOM      1  C   UNL d   1      27.423 -15.060  -1.464  0.00  0.00     0.156 C 
ATOM      2  C   UNL d   1      27.235 -13.583  -1.695  0.00  0.00     0.130 C 
ATOM      3  C   UNL d   1      27.199 -12.716  -0.478  0.00  0.00     0.247 C 
ATOM      4  O   UNL d   1      27.041 -11.502  -0.642  0.00  0.00    -0.271 OA
ATOM      5  N   UNL d   1      27.257 -13.254   0.769  0.00  0.00    -0.189 NA
ATOM      6  C   UNL d   1      27.737 -14.412   1.062  0.00  0.00     0.171 C 
ATOM      7  S   UNL d   1      28.393 -15.543  -0.063  0.00  0.00    -0.077 SA
ENDROOT
BRANCH   1   8
ATOM      8  C   UNL d   1      26.107 -15.799  -1.606  0.00  0.00     0.236 C 
ATOM      9  N   UNL d   1      25.472 -16.285  -0.463  0.00  0.00    -0.326 N 
ATOM     10  H   UNL d   1      25.933 -16.180   0.433  0.00  0.00     0.169 HD
ATOM     11  O   UNL d   1      25.671 -15.876  -2.758  0.00  0.00    -0.272 OA
BRANCH   9  12
ATOM     12  C   UNL d   1      24.316 -17.118  -0.475  0.00  0.00     0.034 A 
ATOM     13  C   UNL d   1      24.408 -18.503  -0.262  0.00  0.00     0.030 A 
ATOM     14  C   UNL d   1      23.264 -19.326  -0.419  0.00  0.00     0.020 A 
ATOM     15  C   UNL d   1      22.016 -18.759  -0.733  0.00  0.00     0.039 A 
ATOM     16  C   UNL d   1      21.925 -17.385  -0.893  0.00  0.00     0.020 A 
ATOM     17  C   UNL d   1      23.056 -16.590  -0.755  0.00  0.00     0.030 A 
BRANCH  15  18
ATOM     18  C   UNL d   1      20.760 -19.545  -0.754  0.00  0.00     0.293 C 
ATOM     19  O   UNL d   1      20.093 -19.705  -1.770  0.00  0.00    -0.259 OA
BRANCH  18  20
ATOM     20  O   UNL d   1      20.499 -20.075   0.473  0.00  0.00    -0.318 OA
BRANCH  20  21
ATOM     21  C   UNL d   1      19.152 -19.879   0.941  0.00  0.00     0.174 C 
ATOM     22  C   UNL d   1      18.416 -21.211   0.983  0.00  0.00     0.034 C 
ENDBRANCH  20  21
ENDBRANCH  18  20
ENDBRANCH  15  18
ENDBRANCH   9  12
ENDBRANCH   1   8
BRANCH   6  23
ATOM     23  N   UNL d   1      27.783 -14.966   2.299  0.00  0.00    -0.335 N 
ATOM     24  H   UNL d   1      28.005 -15.949   2.362  0.00  0.00     0.168 HD
BRANCH  23  25
ATOM     25  C   UNL d   1      27.931 -14.234   3.470  0.00  0.00     0.034 A 
ATOM     26  C   UNL d   1      28.149 -14.887   4.682  0.00  0.00     0.030 A 
ATOM     27  C   UNL d   1      28.219 -14.148   5.857  0.00  0.00     0.009 A 
ATOM     28  C   UNL d   1      28.167 -12.747   5.817  0.00  0.00    -0.056 A 
ATOM     29  C   UNL d   1      28.388 -11.969   7.078  0.00  0.00     0.049 C 
ATOM     30  C   UNL d   1      27.973 -12.089   4.592  0.00  0.00    -0.054 A 
ATOM     31  C   UNL d   1      27.811 -10.605   4.458  0.00  0.00     0.049 C 
ATOM     32  C   UNL d   1      27.886 -12.845   3.426  0.00  0.00     0.036 A 
ENDBRANCH  23  25
ENDBRANCH   6  23
TORSDOF 7
ENDMDL
MODEL 2
REMARK VINA RESULT:    -9.920      4.556      7.369
REMARK INTER + INTRA:         -12.961
REMARK INTER:                 -12.009
REMARK INTRA:                  -0.952
REMARK CONF_INDEPENDENT:        2.088
REMARK UNBOUND:                -0.952
REMARK  7 active torsions:
REMARK  status: ('A' for Active; 'I' for Inactive)
REMARK    1  A    between atoms: C_2  and  O_3 
REMARK    2  A    between atoms: O_3  and  C_4 
REMARK    3  A    between atoms: C_4  and  C_6 
REMARK    4  A    between atoms: C_9  and  N_10 
REMARK       I    between atoms: N_10  and  C_11 
REMARK    5  A    between atoms: C_13  and  C_11 
REMARK    6  A    between atoms: C_18  and  N_19 
REMARK    7  A    between atoms: N_19  and  C_20 
ROOT
ATOM      1  C   UNL d   1      26.746 -14.444  -2.664  0.00  0.00     0.156 C 
ATOM      2  C   UNL d   1      27.598 -15.238  -3.620  0.00  0.00     0.130 C 
ATOM      3  C   UNL d   1      27.624 -14.769  -5.039  0.00  0.00     0.247 C 
ATOM      4  O   UNL d   1      28.312 -15.408  -5.842  0.00  0.00    -0.271 OA
ATOM      5  N   UNL d   1      26.855 -13.726  -5.449  0.00  0.00    -0.189 NA
ATOM      6  C   UNL d   1      26.375 -12.807  -4.685  0.00  0.00     0.171 C 
ATOM      7  S   UNL d   1      26.584 -12.708  -2.976  0.00  0.00    -0.077 SA
ENDROOT
BRANCH   1   8
ATOM      8  C   UNL d   1      25.439 -15.160  -2.385  0.00  0.00     0.236 C 
ATOM      9  N   UNL d   1      25.360 -16.035  -1.302  0.00  0.00    -0.326 N 
ATOM     10  H   UNL d   1      26.197 -16.215  -0.758  0.00  0.00     0.169 HD
ATOM     11  O   UNL d   1      24.509 -14.866  -3.140  0.00  0.00    -0.272 OA
BRANCH   9  12
ATOM     12  C   UNL d   1      24.243 -16.875  -1.023  0.00  0.00     0.034 A 
ATOM     13  C   UNL d   1      24.401 -18.248  -0.776  0.00  0.00     0.030 A 
ATOM     14  C   UNL d   1      23.264 -19.084  -0.642  0.00  0.00     0.020 A 
ATOM     15  C   UNL d   1      21.969 -18.539  -0.697  0.00  0.00     0.039 A 
ATOM     16  C   UNL d   1      21.824 -17.174  -0.892  0.00  0.00     0.020 A 
ATOM     17  C   UNL d   1      22.945 -16.367  -1.041  0.00  0.00     0.030 A 
BRANCH  15  18
ATOM     18  C   UNL d   1      20.751 -19.332  -0.407  0.00  0.00     0.293 C 
ATOM     19  O   UNL d   1      20.012 -19.759  -1.287  0.00  0.00    -0.259 OA
BRANCH  18  20
ATOM     20  O   UNL d   1      20.615 -19.540   0.932  0.00  0.00    -0.318 OA
BRANCH  20  21
ATOM     21  C   UNL d   1      19.257 -19.688   1.385  0.00  0.00     0.174 C 
ATOM     22  C   UNL d   1      18.717 -21.051   0.974  0.00  0.00     0.034 C 
ENDBRANCH  20  21
ENDBRANCH  18  20
ENDBRANCH  15  18
ENDBRANCH   9  12
ENDBRANCH   1   8
BRANCH   6  23
ATOM     23  N   UNL d   1      25.591 -11.773  -5.079  0.00  0.00    -0.335 N 
ATOM     24  H   UNL d   1      24.780 -11.561  -4.516  0.00  0.00     0.168 HD
BRANCH  23  25
ATOM     25  C   UNL d   1      26.011 -10.767  -5.940  0.00  0.00     0.034 A 
ATOM     26  C   UNL d   1      26.180  -9.466  -5.470  0.00  0.00     0.030 A 
ATOM     27  C   UNL d   1      26.526  -8.455  -6.358  0.00  0.00     0.009 A 
ATOM     28  C   UNL d   1      26.798  -8.754  -7.701  0.00  0.00    -0.056 A 
ATOM     29  C   UNL d   1      27.308  -7.672  -8.604  0.00  0.00     0.049 C 
ATOM     30  C   UNL d   1      26.653 -10.070  -8.168  0.00  0.00    -0.054 A 
ATOM     31  C   UNL d   1      26.830 -10.471  -9.601  0.00  0.00     0.049 C 
ATOM     32  C   UNL d   1      26.286 -11.068  -7.269  0.00  0.00     0.036 A 
ENDBRANCH  23  25
ENDBRANCH   6  23
TORSDOF 7
ENDMDL
MODEL 3
REMARK VINA RESULT:    -9.776      0.799      1.676
REMARK INTER + INTRA:         -12.924
REMARK INTER:                 -11.864
REMARK INTRA:                  -1.059
REMARK CONF_INDEPENDENT:        2.088
REMARK UNBOUND:                -1.059
REMARK  7 active torsions:
REMARK  status: ('A' for Active; 'I' for Inactive)
REMARK    1  A    between atoms: C_2  and  O_3 
REMARK    2  A    between atoms: O_3  and  C_4 
REMARK    3  A    between atoms: C_4  and  C_6 
REMARK    4  A    between atoms: C_9  and  N_10 
REMARK       I    between atoms: N_10  and  C_11 
REMARK    5  A    between atoms: C_13  and  C_11 
REMARK    6  A    between atoms: C_18  and  N_19 
REMARK    7  A    between atoms: N_19  and  C_20 
ROOT
ATOM      1  C   UNL d   1      27.666 -15.129  -0.903  0.00  0.00     0.156 C 
ATOM      2  C   UNL d   1      27.861 -13.678  -1.260  0.00  0.00     0.130 C 
ATOM      3  C   UNL d   1      27.980 -12.719  -0.119  0.00  0.00     0.247 C 
ATOM      4  O   UNL d   1      28.136 -11.524  -0.388  0.00  0.00    -0.271 OA
ATOM      5  N   UNL d   1      27.840 -13.137   1.167  0.00  0.00    -0.189 NA
ATOM      6  C   UNL d   1      28.003 -14.345   1.581  0.00  0.00     0.171 C 
ATOM      7  S   UNL d   1      28.414 -15.700   0.598  0.00  0.00    -0.077 SA
ENDROOT
BRANCH   1   8
ATOM      8  C   UNL d   1      26.217 -15.537  -1.081  0.00  0.00     0.236 C 
ATOM      9  N   UNL d   1      25.735 -16.654  -0.398  0.00  0.00    -0.326 N 
ATOM     10  H   UNL d   1      26.381 -17.200   0.160  0.00  0.00     0.169 HD
ATOM     11  O   UNL d   1      25.550 -14.797  -1.808  0.00  0.00    -0.272 OA
BRANCH   9  12
ATOM     12  C   UNL d   1      24.443 -17.224  -0.594  0.00  0.00     0.034 A 
ATOM     13  C   UNL d   1      23.316 -16.421  -0.833  0.00  0.00     0.030 A 
ATOM     14  C   UNL d   1      22.024 -17.003  -0.883  0.00  0.00     0.020 A 
ATOM     15  C   UNL d   1      21.864 -18.394  -0.753  0.00  0.00     0.039 A 
ATOM     16  C   UNL d   1      22.988 -19.184  -0.566  0.00  0.00     0.020 A 
ATOM     17  C   UNL d   1      24.248 -18.601  -0.500  0.00  0.00     0.030 A 
BRANCH  15  18
ATOM     18  C   UNL d   1      20.563 -19.074  -0.954  0.00  0.00     0.293 C 
ATOM     19  O   UNL d   1      20.288 -19.693  -1.976  0.00  0.00    -0.259 OA
BRANCH  18  20
ATOM     20  O   UNL d   1      19.773 -18.945   0.148  0.00  0.00    -0.318 OA
BRANCH  20  21
ATOM     21  C   UNL d   1      19.898 -20.009   1.108  0.00  0.00     0.174 C 
ATOM     22  C   UNL d   1      19.071 -21.209   0.667  0.00  0.00     0.034 C 
ENDBRANCH  20  21
ENDBRANCH  18  20
ENDBRANCH  15  18
ENDBRANCH   9  12
ENDBRANCH   1   8
BRANCH   6  23
ATOM     23  N   UNL d   1      27.848 -14.777   2.858  0.00  0.00    -0.335 N 
ATOM     24  H   UNL d   1      27.887 -15.773   3.022  0.00  0.00     0.168 HD
BRANCH  23  25
ATOM     25  C   UNL d   1      28.025 -13.971   3.975  0.00  0.00     0.034 A 
ATOM     26  C   UNL d   1      27.530 -12.668   3.987  0.00  0.00     0.030 A 
ATOM     27  C   UNL d   1      27.780 -11.848   5.080  0.00  0.00     0.009 A 
ATOM     28  C   UNL d   1      28.443 -12.354   6.208  0.00  0.00    -0.056 A 
ATOM     29  C   UNL d   1      28.575 -11.494   7.427  0.00  0.00     0.049 C 
ATOM     30  C   UNL d   1      28.919 -13.675   6.205  0.00  0.00    -0.054 A 
ATOM     31  C   UNL d   1      29.718 -14.276   7.322  0.00  0.00     0.049 C 
ATOM     32  C   UNL d   1      28.677 -14.478   5.094  0.00  0.00     0.036 A 
ENDBRANCH  23  25
ENDBRANCH   6  23
TORSDOF 7
ENDMDL
MODEL 4
REMARK VINA RESULT:    -9.652      4.542      6.716
REMARK INTER + INTRA:         -12.684
REMARK INTER:                 -11.740
REMARK INTRA:                  -0.944
REMARK CONF_INDEPENDENT:        2.088
REMARK UNBOUND:                -0.944
REMARK  7 active torsions:
REMARK  status: ('A' for Active; 'I' for Inactive)
REMARK    1  A    between atoms: C_2  and  O_3 
REMARK    2  A    between atoms: O_3  and  C_4 
REMARK    3  A    between atoms: C_4  and  C_6 
REMARK    4  A    between atoms: C_9  and  N_10 
REMARK       I    between atoms: N_10  and  C_11 
REMARK    5  A    between atoms: C_13  and  C_11 
REMARK    6  A    between atoms: C_18  and  N_19 
REMARK    7  A    between atoms: N_19  and  C_20 
ROOT
ATOM      1  C   UNL d   1      26.740 -14.478  -2.637  0.00  0.00     0.156 C 
ATOM      2  C   UNL d   1      27.526 -15.222  -3.685  0.00  0.00     0.130 C 
ATOM      3  C   UNL d   1      27.502 -14.655  -5.068  0.00  0.00     0.247 C 
ATOM      4  O   UNL d   1      28.136 -15.251  -5.944  0.00  0.00    -0.271 OA
ATOM      5  N   UNL d   1      26.743 -13.567  -5.367  0.00  0.00    -0.189 NA
ATOM      6  C   UNL d   1      26.323 -12.694  -4.519  0.00  0.00     0.171 C 
ATOM      7  S   UNL d   1      26.611 -12.721  -2.819  0.00  0.00    -0.077 SA
ENDROOT
BRANCH   1   8
ATOM      8  C   UNL d   1      25.429 -15.181  -2.348  0.00  0.00     0.236 C 
ATOM      9  N   UNL d   1      25.351 -16.061  -1.268  0.00  0.00    -0.326 N 
ATOM     10  H   UNL d   1      26.191 -16.252  -0.734  0.00  0.00     0.169 HD
ATOM     11  O   UNL d   1      24.494 -14.873  -3.092  0.00  0.00    -0.272 OA
BRANCH   9  12
ATOM     12  C   UNL d   1      24.227 -16.890  -0.982  0.00  0.00     0.034 A 
ATOM     13  C   UNL d   1      24.378 -18.256  -0.691  0.00  0.00     0.030 A 
ATOM     14  C   UNL d   1      23.237 -19.084  -0.551  0.00  0.00     0.020 A 
ATOM     15  C   UNL d   1      21.945 -18.539  -0.643  0.00  0.00     0.039 A 
ATOM     16  C   UNL d   1      21.805 -17.180  -0.881  0.00  0.00     0.020 A 
ATOM     17  C   UNL d   1      22.931 -16.380  -1.036  0.00  0.00     0.030 A 
BRANCH  15  18
ATOM     18  C   UNL d   1      20.720 -19.321  -0.349  0.00  0.00     0.293 C 
ATOM     19  O   UNL d   1      19.985 -19.759  -1.226  0.00  0.00    -0.259 OA
BRANCH  18  20
ATOM     20  O   UNL d   1      20.573 -19.504   0.993  0.00  0.00    -0.318 OA
BRANCH  20  21
ATOM     21  C   UNL d   1      19.210 -19.630   1.438  0.00  0.00     0.174 C 
ATOM     22  C   UNL d   1      18.659 -20.994   1.046  0.00  0.00     0.034 C 
ENDBRANCH  20  21
ENDBRANCH  18  20
ENDBRANCH  15  18
ENDBRANCH   9  12
ENDBRANCH   1   8
BRANCH   6  23
ATOM     23  N   UNL d   1      25.551 -11.616  -4.803  0.00  0.00    -0.335 N 
ATOM     24  H   UNL d   1      24.631 -11.578  -4.387  0.00  0.00     0.168 HD
BRANCH  23  25
ATOM     25  C   UNL d   1      26.048 -10.412  -5.286  0.00  0.00     0.034 A 
ATOM     26  C   UNL d   1      26.970 -10.402  -6.330  0.00  0.00     0.030 A 
ATOM     27  C   UNL d   1      27.516  -9.196  -6.752  0.00  0.00     0.009 A 
ATOM     28  C   UNL d   1      27.074  -7.986  -6.199  0.00  0.00    -0.056 A 
ATOM     29  C   UNL d   1      27.573  -6.694  -6.769  0.00  0.00     0.049 C 
ATOM     30  C   UNL d   1      26.124  -7.996  -5.165  0.00  0.00    -0.054 A 
ATOM     31  C   UNL d   1      25.659  -6.764  -4.448  0.00  0.00     0.049 C 
ATOM     32  C   UNL d   1      25.601  -9.214  -4.740  0.00  0.00     0.036 A 
ENDBRANCH  23  25
ENDBRANCH   6  23
TORSDOF 7
ENDMDL
MODEL 5
REMARK VINA RESULT:    -9.014      4.111      7.338
REMARK INTER + INTRA:         -12.102
REMARK INTER:                 -11.102
REMARK INTRA:                  -1.000
REMARK CONF_INDEPENDENT:        2.088
REMARK UNBOUND:                -1.000
REMARK  7 active torsions:
REMARK  status: ('A' for Active; 'I' for Inactive)
REMARK    1  A    between atoms: C_2  and  O_3 
REMARK    2  A    between atoms: O_3  and  C_4 
REMARK    3  A    between atoms: C_4  and  C_6 
REMARK    4  A    between atoms: C_9  and  N_10 
REMARK       I    between atoms: N_10  and  C_11 
REMARK    5  A    between atoms: C_13  and  C_11 
REMARK    6  A    between atoms: C_18  and  N_19 
REMARK    7  A    between atoms: N_19  and  C_20 
ROOT
ATOM      1  C   UNL d   1      27.937 -15.585  -0.896  0.00  0.00     0.156 C 
ATOM      2  C   UNL d   1      28.756 -16.725  -0.348  0.00  0.00     0.130 C 
ATOM      3  C   UNL d   1      29.643 -17.437  -1.317  0.00  0.00     0.247 C 
ATOM      4  O   UNL d   1      30.321 -18.378  -0.891  0.00  0.00    -0.271 OA
ATOM      5  N   UNL d   1      29.644 -17.113  -2.637  0.00  0.00    -0.189 NA
ATOM      6  C   UNL d   1      29.258 -15.988  -3.130  0.00  0.00     0.171 C 
ATOM      7  S   UNL d   1      28.637 -14.655  -2.230  0.00  0.00    -0.077 SA
ENDROOT
BRANCH   1   8
ATOM      8  C   UNL d   1      26.498 -16.011  -1.110  0.00  0.00     0.236 C 
ATOM      9  N   UNL d   1      25.876 -16.816  -0.155  0.00  0.00    -0.326 N 
ATOM     10  H   UNL d   1      26.420 -17.144   0.634  0.00  0.00     0.169 HD
ATOM     11  O   UNL d   1      25.964 -15.559  -2.126  0.00  0.00    -0.272 OA
BRANCH   9  12
ATOM     12  C   UNL d   1      24.586 -17.401  -0.311  0.00  0.00     0.034 A 
ATOM     13  C   UNL d   1      24.393 -18.789  -0.215  0.00  0.00     0.030 A 
ATOM     14  C   UNL d   1      23.128 -19.355  -0.513  0.00  0.00     0.020 A 
ATOM     15  C   UNL d   1      22.041 -18.531  -0.850  0.00  0.00     0.039 A 
ATOM     16  C   UNL d   1      22.227 -17.158  -0.894  0.00  0.00     0.020 A 
ATOM     17  C   UNL d   1      23.476 -16.614  -0.618  0.00  0.00     0.030 A 
BRANCH  15  18
ATOM     18  C   UNL d   1      20.662 -19.049  -1.016  0.00  0.00     0.293 C 
ATOM     19  O   UNL d   1      20.304 -19.681  -2.003  0.00  0.00    -0.259 OA
BRANCH  18  20
ATOM     20  O   UNL d   1      19.901 -18.761   0.077  0.00  0.00    -0.318 OA
BRANCH  20  21
ATOM     21  C   UNL d   1      18.978 -19.797   0.459  0.00  0.00     0.174 C 
ATOM     22  C   UNL d   1      19.436 -20.449   1.757  0.00  0.00     0.034 C 
ENDBRANCH  20  21
ENDBRANCH  18  20
ENDBRANCH  15  18
ENDBRANCH   9  12
ENDBRANCH   1   8
BRANCH   6  23
ATOM     23  N   UNL d   1      29.236 -15.661  -4.446  0.00  0.00    -0.335 N 
ATOM     24  H   UNL d   1      28.882 -14.748  -4.694  0.00  0.00     0.168 HD
BRANCH  23  25
ATOM     25  C   UNL d   1      29.998 -16.300  -5.416  0.00  0.00     0.034 A 
ATOM     26  C   UNL d   1      30.748 -15.555  -6.323  0.00  0.00     0.030 A 
ATOM     27  C   UNL d   1      31.444 -16.204  -7.336  0.00  0.00     0.009 A 
ATOM     28  C   UNL d   1      31.472 -17.605  -7.390  0.00  0.00    -0.056 A 
ATOM     29  C   UNL d   1      32.344 -18.282  -8.403  0.00  0.00     0.049 C 
ATOM     30  C   UNL d   1      30.737 -18.356  -6.459  0.00  0.00    -0.054 A 
ATOM     31  C   UNL d   1      30.629 -19.851  -6.492  0.00  0.00     0.049 C 
ATOM     32  C   UNL d   1      30.029 -17.690  -5.463  0.00  0.00     0.036 A 
ENDBRANCH  23  25
ENDBRANCH   6  23
TORSDOF 7
ENDMDL
MODEL 6
REMARK VINA RESULT:    -8.972      4.062      6.042
REMARK INTER + INTRA:         -12.366
REMARK INTER:                 -11.060
REMARK INTRA:                  -1.306
REMARK CONF_INDEPENDENT:        2.088
REMARK UNBOUND:                -1.306
REMARK  7 active torsions:
REMARK  status: ('A' for Active; 'I' for Inactive)
REMARK    1  A    between atoms: C_2  and  O_3 
REMARK    2  A    between atoms: O_3  and  C_4 
REMARK    3  A    between atoms: C_4  and  C_6 
REMARK    4  A    between atoms: C_9  and  N_10 
REMARK       I    between atoms: N_10  and  C_11 
REMARK    5  A    between atoms: C_13  and  C_11 
REMARK    6  A    between atoms: C_18  and  N_19 
REMARK    7  A    between atoms: N_19  and  C_20 
ROOT
ATOM      1  C   UNL d   1      28.460 -16.324  -0.491  0.00  0.00     0.156 C 
ATOM      2  C   UNL d   1      29.660 -17.191  -0.212  0.00  0.00     0.130 C 
ATOM      3  C   UNL d   1      30.444 -17.649  -1.400  0.00  0.00     0.247 C 
ATOM      4  O   UNL d   1      31.429 -18.365  -1.196  0.00  0.00    -0.271 OA
ATOM      5  N   UNL d   1      30.038 -17.356  -2.664  0.00  0.00    -0.189 NA
ATOM      6  C   UNL d   1      29.259 -16.385  -2.992  0.00  0.00     0.171 C 
ATOM      7  S   UNL d   1      28.542 -15.258  -1.902  0.00  0.00    -0.077 SA
ENDROOT
BRANCH   1   8
ATOM      8  C   UNL d   1      27.178 -17.127  -0.380  0.00  0.00     0.236 C 
ATOM      9  N   UNL d   1      26.005 -16.616  -0.934  0.00  0.00    -0.326 N 
ATOM     10  H   UNL d   1      26.024 -15.693  -1.351  0.00  0.00     0.169 HD
ATOM     11  O   UNL d   1      27.293 -18.224   0.173  0.00  0.00    -0.272 OA
BRANCH   9  12
ATOM     12  C   UNL d   1      24.715 -17.199  -0.770  0.00  0.00     0.034 A 
ATOM     13  C   UNL d   1      24.557 -18.572  -0.520  0.00  0.00     0.030 A 
ATOM     14  C   UNL d   1      23.262 -19.149  -0.502  0.00  0.00     0.020 A 
ATOM     15  C   UNL d   1      22.122 -18.345  -0.675  0.00  0.00     0.039 A 
ATOM     16  C   UNL d   1      22.285 -16.983  -0.872  0.00  0.00     0.020 A 
ATOM     17  C   UNL d   1      23.560 -16.431  -0.907  0.00  0.00     0.030 A 
BRANCH  15  18
ATOM     18  C   UNL d   1      20.742 -18.862  -0.509  0.00  0.00     0.293 C 
ATOM     19  O   UNL d   1      19.755 -18.263  -0.919  0.00  0.00    -0.259 OA
BRANCH  18  20
ATOM     20  O   UNL d   1      20.751 -20.077   0.107  0.00  0.00    -0.318 OA
BRANCH  20  21
ATOM     21  C   UNL d   1      19.874 -20.183   1.243  0.00  0.00     0.174 C 
ATOM     22  C   UNL d   1      18.726 -21.133   0.928  0.00  0.00     0.034 C 
ENDBRANCH  20  21
ENDBRANCH  18  20
ENDBRANCH  15  18
ENDBRANCH   9  12
ENDBRANCH   1   8
BRANCH   6  23
ATOM     23  N   UNL d   1      28.833 -16.094  -4.246  0.00  0.00    -0.335 N 
ATOM     24  H   UNL d   1      28.782 -16.854  -4.910  0.00  0.00     0.168 HD
BRANCH  23  25
ATOM     25  C   UNL d   1      28.112 -14.953  -4.574  0.00  0.00     0.034 A 
ATOM     26  C   UNL d   1      28.738 -13.890  -5.223  0.00  0.00     0.030 A 
ATOM     27  C   UNL d   1      28.025 -12.725  -5.477  0.00  0.00     0.009 A 
ATOM     28  C   UNL d   1      26.658 -12.650  -5.171  0.00  0.00    -0.056 A 
ATOM     29  C   UNL d   1      25.880 -11.439  -5.583  0.00  0.00     0.049 C 
ATOM     30  C   UNL d   1      26.022 -13.732  -4.541  0.00  0.00    -0.054 A 
ATOM     31  C   UNL d   1      24.593 -13.713  -4.091  0.00  0.00     0.049 C 
ATOM     32  C   UNL d   1      26.756 -14.885  -4.276  0.00  0.00     0.036 A 
ENDBRANCH  23  25
ENDBRANCH   6  23
TORSDOF 7
ENDMDL
MODEL 7
REMARK VINA RESULT:    -8.871      3.612      5.517
REMARK INTER + INTRA:         -12.345
REMARK INTER:                 -10.959
REMARK INTRA:                  -1.386
REMARK CONF_INDEPENDENT:        2.088
REMARK UNBOUND:                -1.386
REMARK  7 active torsions:
REMARK  status: ('A' for Active; 'I' for Inactive)
REMARK    1  A    between atoms: C_2  and  O_3 
REMARK    2  A    between atoms: O_3  and  C_4 
REMARK    3  A    between atoms: C_4  and  C_6 
REMARK    4  A    between atoms: C_9  and  N_10 
REMARK       I    between atoms: N_10  and  C_11 
REMARK    5  A    between atoms: C_13  and  C_11 
REMARK    6  A    between atoms: C_18  and  N_19 
REMARK    7  A    between atoms: N_19  and  C_20 
ROOT
ATOM      1  C   UNL d   1      27.864 -16.615   0.436  0.00  0.00     0.156 C 
ATOM      2  C   UNL d   1      28.808 -17.159  -0.605  0.00  0.00     0.130 C 
ATOM      3  C   UNL d   1      28.959 -16.356  -1.856  0.00  0.00     0.247 C 
ATOM      4  O   UNL d   1      29.724 -16.785  -2.725  0.00  0.00    -0.271 OA
ATOM      5  N   UNL d   1      28.219 -15.235  -2.064  0.00  0.00    -0.189 NA
ATOM      6  C   UNL d   1      27.661 -14.527  -1.145  0.00  0.00     0.171 C 
ATOM      7  S   UNL d   1      27.711 -14.854   0.547  0.00  0.00    -0.077 SA
ENDROOT
BRANCH   1   8
ATOM      8  C   UNL d   1      26.545 -17.362   0.409  0.00  0.00     0.236 C 
ATOM      9  N   UNL d   1      25.554 -16.965  -0.489  0.00  0.00    -0.326 N 
ATOM     10  H   UNL d   1      25.720 -16.149  -1.067  0.00  0.00     0.169 HD
ATOM     11  O   UNL d   1      26.470 -18.320   1.184  0.00  0.00    -0.272 OA
BRANCH   9  12
ATOM     12  C   UNL d   1      24.228 -17.486  -0.510  0.00  0.00     0.034 A 
ATOM     13  C   UNL d   1      23.976 -18.858  -0.346  0.00  0.00     0.030 A 
ATOM     14  C   UNL d   1      22.663 -19.366  -0.512  0.00  0.00     0.020 A 
ATOM     15  C   UNL d   1      21.592 -18.497  -0.783  0.00  0.00     0.039 A 
ATOM     16  C   UNL d   1      21.842 -17.138  -0.894  0.00  0.00     0.020 A 
ATOM     17  C   UNL d   1      23.136 -16.653  -0.749  0.00  0.00     0.030 A 
BRANCH  15  18
ATOM     18  C   UNL d   1      20.180 -18.947  -0.810  0.00  0.00     0.293 C 
ATOM     19  O   UNL d   1      19.237 -18.169  -0.895  0.00  0.00    -0.259 OA
BRANCH  18  20
ATOM     20  O   UNL d   1      20.104 -20.306  -0.770  0.00  0.00    -0.318 OA
BRANCH  20  21
ATOM     21  C   UNL d   1      19.859 -20.859   0.536  0.00  0.00     0.174 C 
ATOM     22  C   UNL d   1      19.391 -19.764   1.485  0.00  0.00     0.034 C 
ENDBRANCH  20  21
ENDBRANCH  18  20
ENDBRANCH  15  18
ENDBRANCH   9  12
ENDBRANCH   1   8
BRANCH   6  23
ATOM     23  N   UNL d   1      26.905 -13.418  -1.342  0.00  0.00    -0.335 N 
ATOM     24  H   UNL d   1      26.735 -12.821  -0.545  0.00  0.00     0.168 HD
BRANCH  23  25
ATOM     25  C   UNL d   1      26.679 -12.847  -2.588  0.00  0.00     0.034 A 
ATOM     26  C   UNL d   1      25.602 -13.266  -3.368  0.00  0.00     0.030 A 
ATOM     27  C   UNL d   1      25.432 -12.740  -4.642  0.00  0.00     0.009 A 
ATOM     28  C   UNL d   1      26.279 -11.724  -5.109  0.00  0.00    -0.056 A 
ATOM     29  C   UNL d   1      25.988 -11.075  -6.427  0.00  0.00     0.049 C 
ATOM     30  C   UNL d   1      27.348 -11.284  -4.311  0.00  0.00    -0.054 A 
ATOM     31  C   UNL d   1      28.360 -10.272  -4.758  0.00  0.00     0.049 C 
ATOM     32  C   UNL d   1      27.516 -11.835  -3.044  0.00  0.00     0.036 A 
ENDBRANCH  23  25
ENDBRANCH   6  23
TORSDOF 7
ENDMDL
MODEL 8
REMARK VINA RESULT:    -8.490      4.274      7.459
REMARK INTER + INTRA:         -11.547
REMARK INTER:                 -10.579
REMARK INTRA:                  -0.968
REMARK CONF_INDEPENDENT:        2.088
REMARK UNBOUND:                -0.968
REMARK  7 active torsions:
REMARK  status: ('A' for Active; 'I' for Inactive)
REMARK    1  A    between atoms: C_2  and  O_3 
REMARK    2  A    between atoms: O_3  and  C_4 
REMARK    3  A    between atoms: C_4  and  C_6 
REMARK    4  A    between atoms: C_9  and  N_10 
REMARK       I    between atoms: N_10  and  C_11 
REMARK    5  A    between atoms: C_13  and  C_11 
REMARK    6  A    between atoms: C_18  and  N_19 
REMARK    7  A    between atoms: N_19  and  C_20 
ROOT
ATOM      1  C   UNL d   1      27.253 -15.008  -2.044  0.00  0.00     0.156 C 
ATOM      2  C   UNL d   1      28.318 -16.064  -2.185  0.00  0.00     0.130 C 
ATOM      3  C   UNL d   1      28.937 -16.213  -3.537  0.00  0.00     0.247 C 
ATOM      4  O   UNL d   1      29.809 -17.076  -3.677  0.00  0.00    -0.271 OA
ATOM      5  N   UNL d   1      28.498 -15.481  -4.595  0.00  0.00    -0.189 NA
ATOM      6  C   UNL d   1      27.861 -14.365  -4.517  0.00  0.00     0.171 C 
ATOM      7  S   UNL d   1      27.406 -13.564  -3.059  0.00  0.00    -0.077 SA
ENDROOT
BRANCH   1   8
ATOM      8  C   UNL d   1      25.872 -15.633  -2.040  0.00  0.00     0.236 C 
ATOM      9  N   UNL d   1      25.495 -16.448  -0.972  0.00  0.00    -0.326 N 
ATOM     10  H   UNL d   1      26.176 -16.647  -0.249  0.00  0.00     0.169 HD
ATOM     11  O   UNL d   1      25.154 -15.325  -2.996  0.00  0.00    -0.272 OA
BRANCH   9  12
ATOM     12  C   UNL d   1      24.290 -17.207  -0.923  0.00  0.00     0.034 A 
ATOM     13  C   UNL d   1      23.034 -16.602  -1.090  0.00  0.00     0.030 A 
ATOM     14  C   UNL d   1      21.849 -17.355  -0.895  0.00  0.00     0.020 A 
ATOM     15  C   UNL d   1      21.917 -18.725  -0.591  0.00  0.00     0.039 A 
ATOM     16  C   UNL d   1      23.162 -19.326  -0.478  0.00  0.00     0.020 A 
ATOM     17  C   UNL d   1      24.318 -18.575  -0.651  0.00  0.00     0.030 A 
BRANCH  15  18
ATOM     18  C   UNL d   1      20.719 -19.596  -0.533  0.00  0.00     0.293 C 
ATOM     19  O   UNL d   1      19.929 -19.701  -1.465  0.00  0.00    -0.259 OA
BRANCH  18  20
ATOM     20  O   UNL d   1      20.662 -20.263   0.652  0.00  0.00    -0.318 OA
BRANCH  20  21
ATOM     21  C   UNL d   1      19.415 -20.132   1.359  0.00  0.00     0.174 C 
ATOM     22  C   UNL d   1      18.350 -20.998   0.702  0.00  0.00     0.034 C 
ENDBRANCH  20  21
ENDBRANCH  18  20
ENDBRANCH  15  18
ENDBRANCH   9  12
ENDBRANCH   1   8
BRANCH   6  23
ATOM     23  N   UNL d   1      27.402 -13.635  -5.564  0.00  0.00    -0.335 N 
ATOM     24  H   UNL d   1      26.512 -13.169  -5.454  0.00  0.00     0.168 HD
BRANCH  23  25
ATOM     25  C   UNL d   1      28.207 -13.169  -6.595  0.00  0.00     0.034 A 
ATOM     26  C   UNL d   1      27.730 -12.199  -7.475  0.00  0.00     0.030 A 
ATOM     27  C   UNL d   1      28.517 -11.797  -8.547  0.00  0.00     0.009 A 
ATOM     28  C   UNL d   1      29.821 -12.291  -8.693  0.00  0.00    -0.056 A 
ATOM     29  C   UNL d   1      30.699 -11.736  -9.773  0.00  0.00     0.049 C 
ATOM     30  C   UNL d   1      30.311 -13.249  -7.791  0.00  0.00    -0.054 A 
ATOM     31  C   UNL d   1      31.653 -13.904  -7.917  0.00  0.00     0.049 C 
ATOM     32  C   UNL d   1      29.502 -13.656  -6.733  0.00  0.00     0.036 A 
ENDBRANCH  23  25
ENDBRANCH   6  23
TORSDOF 7
ENDMDL
MODEL 9
REMARK VINA RESULT:    -7.981      2.731      4.812
REMARK INTER + INTRA:         -11.595
REMARK INTER:                 -10.069
REMARK INTRA:                  -1.526
REMARK CONF_INDEPENDENT:        2.088
REMARK UNBOUND:                -1.526
REMARK  7 active torsions:
REMARK  status: ('A' for Active; 'I' for Inactive)
REMARK    1  A    between atoms: C_2  and  O_3 
REMARK    2  A    between atoms: O_3  and  C_4 
REMARK    3  A    between atoms: C_4  and  C_6 
REMARK    4  A    between atoms: C_9  and  N_10 
REMARK       I    between atoms: N_10  and  C_11 
REMARK    5  A    between atoms: C_13  and  C_11 
REMARK    6  A    between atoms: C_18  and  N_19 
REMARK    7  A    between atoms: N_19  and  C_20 
ROOT
ATOM      1  C   UNL d   1      27.802 -10.244   1.092  0.00  0.00     0.156 C 
ATOM      2  C   UNL d   1      26.732  -9.285   0.640  0.00  0.00     0.130 C 
ATOM      3  C   UNL d   1      26.054  -8.488   1.707  0.00  0.00     0.247 C 
ATOM      4  O   UNL d   1      25.170  -7.699   1.360  0.00  0.00    -0.271 OA
ATOM      5  N   UNL d   1      26.342  -8.685   3.020  0.00  0.00    -0.189 NA
ATOM      6  C   UNL d   1      27.427  -9.207   3.476  0.00  0.00     0.171 C 
ATOM      7  S   UNL d   1      28.741  -9.791   2.525  0.00  0.00    -0.077 SA
ENDROOT
BRANCH   1   8
ATOM      8  C   UNL d   1      27.280 -11.667   1.104  0.00  0.00     0.236 C 
ATOM      9  N   UNL d   1      27.942 -12.641   0.356  0.00  0.00    -0.326 N 
ATOM     10  H   UNL d   1      28.726 -12.363  -0.223  0.00  0.00     0.169 HD
ATOM     11  O   UNL d   1      26.304 -11.861   1.832  0.00  0.00    -0.272 OA
BRANCH   9  12
ATOM     12  C   UNL d   1      27.468 -13.972   0.166  0.00  0.00     0.034 A 
ATOM     13  C   UNL d   1      26.487 -14.272  -0.793  0.00  0.00     0.030 A 
ATOM     14  C   UNL d   1      25.934 -15.576  -0.863  0.00  0.00     0.020 A 
ATOM     15  C   UNL d   1      26.401 -16.594  -0.015  0.00  0.00     0.039 A 
ATOM     16  C   UNL d   1      27.405 -16.301   0.896  0.00  0.00     0.020 A 
ATOM     17  C   UNL d   1      27.927 -15.016   0.969  0.00  0.00     0.030 A 
BRANCH  15  18
ATOM     18  C   UNL d   1      25.976 -18.008  -0.148  0.00  0.00     0.293 C 
ATOM     19  O   UNL d   1      26.584 -18.936   0.373  0.00  0.00    -0.259 OA
BRANCH  18  20
ATOM     20  O   UNL d   1      24.828 -18.103  -0.874  0.00  0.00    -0.318 OA
BRANCH  20  21
ATOM     21  C   UNL d   1      23.617 -18.031  -0.099  0.00  0.00     0.174 C 
ATOM     22  C   UNL d   1      22.455 -18.609  -0.896  0.00  0.00     0.034 C 
ENDBRANCH  20  21
ENDBRANCH  18  20
ENDBRANCH  15  18
ENDBRANCH   9  12
ENDBRANCH   1   8
BRANCH   6  23
ATOM     23  N   UNL d   1      27.718  -9.426   4.783  0.00  0.00    -0.335 N 
ATOM     24  H   UNL d   1      27.362  -8.765   5.458  0.00  0.00     0.168 HD
BRANCH  23  25
ATOM     25  C   UNL d   1      28.119 -10.655   5.292  0.00  0.00     0.034 A 
ATOM     26  C   UNL d   1      28.837 -10.720   6.484  0.00  0.00     0.030 A 
ATOM     27  C   UNL d   1      29.298 -11.948   6.942  0.00  0.00     0.009 A 
ATOM     28  C   UNL d   1      28.963 -13.128   6.263  0.00  0.00    -0.056 A 
ATOM     29  C   UNL d   1      29.350 -14.450   6.854  0.00  0.00     0.049 C 
ATOM     30  C   UNL d   1      28.216 -13.064   5.076  0.00  0.00    -0.054 A 
ATOM     31  C   UNL d   1      27.888 -14.258   4.231  0.00  0.00     0.049 C 
ATOM     32  C   UNL d   1      27.779 -11.824   4.620  0.00  0.00     0.036 A 
ENDBRANCH  23  25
ENDBRANCH   6  23
TORSDOF 7
ENDMDL
