MODEL 1
REMARK VINA RESULT:   -31.495      0.000      0.000
REMARK INTER + INTRA:         -35.222
REMARK INTER:                 -33.583
REMARK INTRA:                  -1.639
REMARK CONF_INDEPENDENT:        2.088
REMARK UNBOUND:                -1.639
REMARK  7 active torsions:
REMARK  status: ('A' for Active; 'I' for Inactive)
REMARK    1  A    between atoms: N_7  and  C_8 
REMARK    2  A    between atoms: C_8  and  C_9 
REMARK    3  A    between atoms: C_10  and  C_11 
REMARK       I    between atoms: C_11  and  N_13 
REMARK    4  A    between atoms: N_13  and  N_14 
REMARK    5  A    between atoms: C_15  and  C_16 
REMARK    6  A    between atoms: N_23  and  C_24 
REMARK    7  A    between atoms: C_28  and  N_29 
ROOT
ATOM      1  C   UNL d   1      24.405 -16.962  -0.587  0.00  0.00     0.096 C 
ATOM      2  C   UNL d   1      25.610 -17.411   0.013  0.00  0.00     0.170 C 
ATOM      3  N   UNL d   1      25.308 -18.632   0.589  0.00  0.00    -0.152 NA
ATOM      4  N   UNL d   1      24.003 -18.857   0.546  0.00  0.00     0.012 NA
ATOM      5  N   UNL d   1      23.400 -17.881  -0.159  0.00  0.00    -0.215 N 
ENDROOT
BRANCH   2   6
ATOM      6  C   UNL d   1      27.078 -16.937   0.044  0.00  0.00     0.293 C 
ATOM      7  O   UNL d   1      27.905 -17.453  -0.748  0.00  0.00    -0.264 OA
ATOM      8  N   UNL d   1      27.474 -15.892   0.916  0.00  0.00    -0.242 N 
ATOM      9  H   UNL d   1      26.838 -15.533   1.581  0.00  0.00     0.192 HD
BRANCH   8  10
ATOM     10  N   UNL d   1      28.614 -15.110   0.758  0.00  0.00    -0.183 NA
ATOM     11  C   UNL d   1      29.183 -14.421   1.726  0.00  0.00     0.150 C 
BRANCH  11  12
ATOM     12  C   UNL d   1      28.867 -14.280   3.171  0.00  0.00    -0.010 C 
ATOM     13  C   UNL d   1      29.734 -14.400   4.347  0.00  0.00     0.020 C 
ATOM     14  C   UNL d   1      29.051 -14.251   5.569  0.00  0.00     0.050 C 
ATOM     15  S   UNL d   1      27.419 -13.696   5.288  0.00  0.00    -0.113 SA
ATOM     16  C   UNL d   1      27.543 -14.090   3.596  0.00  0.00     0.062 C 
ENDBRANCH  11  12
ENDBRANCH   8  10
ENDBRANCH   2   6
BRANCH   1  17
ATOM     17  C   UNL d   1      23.964 -15.849  -1.460  0.00  0.00     0.296 C 
BRANCH  17  18
ATOM     18  N   UNL d   1      24.780 -15.549  -2.664  0.00  0.00    -0.062 N 
ATOM     19  C   UNL d   1      24.429 -14.220  -3.344  0.00  0.00     0.235 C 
ATOM     20  C   UNL d   1      25.153 -13.031  -2.769  0.00  0.00     0.028 C 
ATOM     21  C   UNL d   1      26.648 -13.211  -2.777  0.00  0.00     0.004 C 
ATOM     22  C   UNL d   1      26.945 -14.435  -1.865  0.00  0.00     0.033 C 
ATOM     23  C   UNL d   1      26.288 -15.675  -2.402  0.00  0.00     0.184 C 
ATOM     24  C   UNL d   1      27.007 -15.637  -3.687  0.00  0.00     0.040 C 
ATOM     25  H   UNL d   1      24.564 -16.376  -3.225  0.00  0.00     0.280 HD
ENDBRANCH  17  18
ENDBRANCH   1  17
BRANCH   5  26
ATOM     26  C   UNL d   1      21.994 -17.897  -0.473  0.00  0.00     0.225 A 
ATOM     27  N   UNL d   1      21.402 -16.821  -1.001  0.00  0.00    -0.081 NA
ATOM     28  O   UNL d   1      20.090 -17.246  -1.271  0.00  0.00    -0.103 OA
ATOM     29  N   UNL d   1      19.905 -18.575  -0.895  0.00  0.00    -0.083 NA
ATOM     30  C   UNL d   1      21.071 -18.959  -0.385  0.00  0.00     0.201 A 
BRANCH  30  31
ATOM     31  N   UNL d   1      21.303 -20.185   0.136  0.00  0.00    -0.379 N 
ATOM     32  H   UNL d   1      20.734 -20.441   0.943  0.00  0.00     0.158 HD
ATOM     33  H   UNL d   1      22.261 -20.507   0.256  0.00  0.00     0.158 HD
ENDBRANCH  30  31
ENDBRANCH   5  26
TORSDOF 7
ENDMDL
MODEL 2
REMARK VINA RESULT:   -31.185      0.511      1.370
REMARK INTER + INTRA:         -34.978
REMARK INTER:                 -33.273
REMARK INTRA:                  -1.705
REMARK CONF_INDEPENDENT:        2.088
REMARK UNBOUND:                -1.705
REMARK  7 active torsions:
REMARK  status: ('A' for Active; 'I' for Inactive)
REMARK    1  A    between atoms: N_7  and  C_8 
REMARK    2  A    between atoms: C_8  and  C_9 
REMARK    3  A    between atoms: C_10  and  C_11 
REMARK       I    between atoms: C_11  and  N_13 
REMARK    4  A    between atoms: N_13  and  N_14 
REMARK    5  A    between atoms: C_15  and  C_16 
REMARK    6  A    between atoms: N_23  and  C_24 
REMARK    7  A    between atoms: C_28  and  N_29 
ROOT
ATOM      1  C   UNL d   1      24.420 -17.032  -0.590  0.00  0.00     0.096 C 
ATOM      2  C   UNL d   1      25.599 -17.437   0.089  0.00  0.00     0.170 C 
ATOM      3  N   UNL d   1      25.252 -18.575   0.793  0.00  0.00    -0.152 NA
ATOM      4  N   UNL d   1      23.944 -18.773   0.744  0.00  0.00     0.012 NA
ATOM      5  N   UNL d   1      23.381 -17.872  -0.083  0.00  0.00    -0.215 N 
ENDROOT
BRANCH   2   6
ATOM      6  C   UNL d   1      27.078 -16.997   0.101  0.00  0.00     0.293 C 
ATOM      7  O   UNL d   1      27.881 -17.526  -0.707  0.00  0.00    -0.264 OA
ATOM      8  N   UNL d   1      27.510 -15.967   0.975  0.00  0.00    -0.242 N 
ATOM      9  H   UNL d   1      26.892 -15.598   1.651  0.00  0.00     0.192 HD
BRANCH   8  10
ATOM     10  N   UNL d   1      28.666 -15.210   0.805  0.00  0.00    -0.183 NA
ATOM     11  C   UNL d   1      29.251 -14.523   1.764  0.00  0.00     0.150 C 
BRANCH  11  12
ATOM     12  C   UNL d   1      28.944 -14.362   3.208  0.00  0.00    -0.010 C 
ATOM     13  C   UNL d   1      29.796 -14.549   4.386  0.00  0.00     0.020 C 
ATOM     14  C   UNL d   1      29.124 -14.352   5.607  0.00  0.00     0.050 C 
ATOM     15  S   UNL d   1      27.539 -13.674   5.324  0.00  0.00    -0.113 SA
ATOM     16  C   UNL d   1      27.636 -14.073   3.631  0.00  0.00     0.062 C 
ENDBRANCH  11  12
ENDBRANCH   8  10
ENDBRANCH   2   6
BRANCH   1  17
ATOM     17  C   UNL d   1      24.027 -16.018  -1.596  0.00  0.00     0.296 C 
BRANCH  17  18
ATOM     18  N   UNL d   1      25.019 -14.970  -1.945  0.00  0.00    -0.062 N 
ATOM     19  C   UNL d   1      26.308 -15.513  -2.573  0.00  0.00     0.235 C 
ATOM     20  C   UNL d   1      26.231 -15.691  -4.066  0.00  0.00     0.028 C 
ATOM     21  C   UNL d   1      25.830 -14.425  -4.775  0.00  0.00     0.004 C 
ATOM     22  C   UNL d   1      24.404 -14.071  -4.264  0.00  0.00     0.033 C 
ATOM     23  C   UNL d   1      24.411 -13.834  -2.780  0.00  0.00     0.184 C 
ATOM     24  C   UNL d   1      25.369 -12.717  -2.849  0.00  0.00     0.040 C 
ATOM     25  H   UNL d   1      25.149 -14.547  -1.023  0.00  0.00     0.280 HD
ENDBRANCH  17  18
ENDBRANCH   1  17
BRANCH   5  26
ATOM     26  C   UNL d   1      21.983 -17.891  -0.428  0.00  0.00     0.225 A 
ATOM     27  N   UNL d   1      21.401 -16.818  -0.972  0.00  0.00    -0.081 NA
ATOM     28  O   UNL d   1      20.096 -17.247  -1.270  0.00  0.00    -0.103 OA
ATOM     29  N   UNL d   1      19.905 -18.575  -0.895  0.00  0.00    -0.083 NA
ATOM     30  C   UNL d   1      21.060 -18.955  -0.358  0.00  0.00     0.201 A 
BRANCH  30  31
ATOM     31  N   UNL d   1      21.284 -20.179   0.171  0.00  0.00    -0.379 N 
ATOM     32  H   UNL d   1      20.766 -20.397   1.023  0.00  0.00     0.158 HD
ATOM     33  H   UNL d   1      22.234 -20.536   0.229  0.00  0.00     0.158 HD
ENDBRANCH  30  31
ENDBRANCH   5  26
TORSDOF 7
ENDMDL
MODEL 3
REMARK VINA RESULT:   -30.274      3.085      4.351
REMARK INTER + INTRA:         -34.616
REMARK INTER:                 -32.362
REMARK INTRA:                  -2.254
REMARK CONF_INDEPENDENT:        2.088
REMARK UNBOUND:                -2.254
REMARK  7 active torsions:
REMARK  status: ('A' for Active; 'I' for Inactive)
REMARK    1  A    between atoms: N_7  and  C_8 
REMARK    2  A    between atoms: C_8  and  C_9 
REMARK    3  A    between atoms: C_10  and  C_11 
REMARK       I    between atoms: C_11  and  N_13 
REMARK    4  A    between atoms: N_13  and  N_14 
REMARK    5  A    between atoms: C_15  and  C_16 
REMARK    6  A    between atoms: N_23  and  C_24 
REMARK    7  A    between atoms: C_28  and  N_29 
ROOT
ATOM      1  C   UNL d   1      24.417 -17.001  -0.627  0.00  0.00     0.096 C 
ATOM      2  C   UNL d   1      25.611 -17.426   0.012  0.00  0.00     0.170 C 
ATOM      3  N   UNL d   1      25.287 -18.601   0.666  0.00  0.00    -0.152 NA
ATOM      4  N   UNL d   1      23.980 -18.810   0.628  0.00  0.00     0.012 NA
ATOM      5  N   UNL d   1      23.396 -17.876  -0.146  0.00  0.00    -0.215 N 
ENDROOT
BRANCH   2   6
ATOM      6  C   UNL d   1      27.085 -16.971   0.023  0.00  0.00     0.293 C 
ATOM      7  O   UNL d   1      27.496 -16.246   0.963  0.00  0.00    -0.264 OA
ATOM      8  N   UNL d   1      27.978 -17.414  -0.986  0.00  0.00    -0.242 N 
ATOM      9  H   UNL d   1      27.639 -17.931  -1.756  0.00  0.00     0.192 HD
BRANCH   8  10
ATOM     10  N   UNL d   1      29.365 -17.429  -0.873  0.00  0.00    -0.183 NA
ATOM     11  C   UNL d   1      30.194 -17.211  -1.873  0.00  0.00     0.150 C 
BRANCH  11  12
ATOM     12  C   UNL d   1      29.968 -16.874  -3.303  0.00  0.00    -0.010 C 
ATOM     13  C   UNL d   1      30.378 -17.581  -4.520  0.00  0.00     0.020 C 
ATOM     14  C   UNL d   1      30.023 -16.914  -5.707  0.00  0.00     0.050 C 
ATOM     15  S   UNL d   1      28.957 -15.576  -5.355  0.00  0.00    -0.113 SA
ATOM     16  C   UNL d   1      29.355 -15.663  -3.662  0.00  0.00     0.062 C 
ENDBRANCH  11  12
ENDBRANCH   8  10
ENDBRANCH   2   6
BRANCH   1  17
ATOM     17  C   UNL d   1      23.997 -15.944  -1.576  0.00  0.00     0.296 C 
BRANCH  17  18
ATOM     18  N   UNL d   1      25.031 -14.986  -2.045  0.00  0.00    -0.062 N 
ATOM     19  C   UNL d   1      26.187 -15.639  -2.811  0.00  0.00     0.235 C 
ATOM     20  C   UNL d   1      25.924 -15.808  -4.285  0.00  0.00     0.028 C 
ATOM     21  C   UNL d   1      25.556 -14.510  -4.954  0.00  0.00     0.004 C 
ATOM     22  C   UNL d   1      24.235 -14.034  -4.286  0.00  0.00     0.033 C 
ATOM     23  C   UNL d   1      24.433 -13.800  -2.815  0.00  0.00     0.184 C 
ATOM     24  C   UNL d   1      25.470 -12.771  -3.001  0.00  0.00     0.040 C 
ATOM     25  H   UNL d   1      25.302 -14.578  -1.147  0.00  0.00     0.280 HD
ENDBRANCH  17  18
ENDBRANCH   1  17
BRANCH   5  26
ATOM     26  C   UNL d   1      21.992 -17.894  -0.469  0.00  0.00     0.225 A 
ATOM     27  N   UNL d   1      21.405 -16.824  -1.015  0.00  0.00    -0.081 NA
ATOM     28  O   UNL d   1      20.095 -17.251  -1.288  0.00  0.00    -0.103 OA
ATOM     29  N   UNL d   1      19.905 -18.575  -0.897  0.00  0.00    -0.083 NA
ATOM     30  C   UNL d   1      21.067 -18.954  -0.374  0.00  0.00     0.201 A 
BRANCH  30  31
ATOM     31  N   UNL d   1      21.294 -20.173   0.164  0.00  0.00    -0.379 N 
ATOM     32  H   UNL d   1      20.542 -20.552   0.742  0.00  0.00     0.158 HD
ATOM     33  H   UNL d   1      22.201 -20.380   0.576  0.00  0.00     0.158 HD
ENDBRANCH  30  31
ENDBRANCH   5  26
TORSDOF 7
ENDMDL
MODEL 4
REMARK VINA RESULT:   -30.254      3.081      3.931
REMARK INTER + INTRA:         -34.335
REMARK INTER:                 -32.342
REMARK INTRA:                  -1.992
REMARK CONF_INDEPENDENT:        2.088
REMARK UNBOUND:                -1.992
REMARK  7 active torsions:
REMARK  status: ('A' for Active; 'I' for Inactive)
REMARK    1  A    between atoms: N_7  and  C_8 
REMARK    2  A    between atoms: C_8  and  C_9 
REMARK    3  A    between atoms: C_10  and  C_11 
REMARK       I    between atoms: C_11  and  N_13 
REMARK    4  A    between atoms: N_13  and  N_14 
REMARK    5  A    between atoms: C_15  and  C_16 
REMARK    6  A    between atoms: N_23  and  C_24 
REMARK    7  A    between atoms: C_28  and  N_29 
ROOT
ATOM      1  C   UNL d   1      24.375 -16.883  -0.605  0.00  0.00     0.096 C 
ATOM      2  C   UNL d   1      25.587 -17.303   0.002  0.00  0.00     0.170 C 
ATOM      3  N   UNL d   1      25.305 -18.520   0.596  0.00  0.00    -0.152 NA
ATOM      4  N   UNL d   1      24.005 -18.767   0.557  0.00  0.00     0.012 NA
ATOM      5  N   UNL d   1      23.385 -17.813  -0.162  0.00  0.00    -0.215 N 
ENDROOT
BRANCH   2   6
ATOM      6  C   UNL d   1      27.047 -16.805   0.024  0.00  0.00     0.293 C 
ATOM      7  O   UNL d   1      27.344 -15.811   0.733  0.00  0.00    -0.264 OA
ATOM      8  N   UNL d   1      28.050 -17.496  -0.701  0.00  0.00    -0.242 N 
ATOM      9  H   UNL d   1      27.803 -18.236  -1.307  0.00  0.00     0.192 HD
BRANCH   8  10
ATOM     10  N   UNL d   1      29.416 -17.416  -0.447  0.00  0.00    -0.183 NA
ATOM     11  C   UNL d   1      30.316 -17.045  -1.334  0.00  0.00     0.150 C 
BRANCH  11  12
ATOM     12  C   UNL d   1      30.203 -16.594  -2.745  0.00  0.00    -0.010 C 
ATOM     13  C   UNL d   1      30.145 -15.242  -3.308  0.00  0.00     0.020 C 
ATOM     14  C   UNL d   1      29.980 -15.218  -4.705  0.00  0.00     0.050 C 
ATOM     15  S   UNL d   1      30.170 -16.824  -5.366  0.00  0.00    -0.113 SA
ATOM     16  C   UNL d   1      30.025 -17.528  -3.779  0.00  0.00     0.062 C 
ENDBRANCH  11  12
ENDBRANCH   8  10
ENDBRANCH   2   6
BRANCH   1  17
ATOM     17  C   UNL d   1      23.915 -15.792  -1.495  0.00  0.00     0.296 C 
BRANCH  17  18
ATOM     18  N   UNL d   1      24.720 -15.505  -2.710  0.00  0.00    -0.062 N 
ATOM     19  C   UNL d   1      24.416 -14.148  -3.355  0.00  0.00     0.235 C 
ATOM     20  C   UNL d   1      25.206 -13.005  -2.773  0.00  0.00     0.028 C 
ATOM     21  C   UNL d   1      26.690 -13.253  -2.817  0.00  0.00     0.004 C 
ATOM     22  C   UNL d   1      26.950 -14.508  -1.935  0.00  0.00     0.033 C 
ATOM     23  C   UNL d   1      26.225 -15.706  -2.483  0.00  0.00     0.184 C 
ATOM     24  C   UNL d   1      26.919 -15.674  -3.782  0.00  0.00     0.040 C 
ATOM     25  H   UNL d   1      24.453 -16.309  -3.282  0.00  0.00     0.280 HD
ENDBRANCH  17  18
ENDBRANCH   1  17
BRANCH   5  26
ATOM     26  C   UNL d   1      21.979 -17.857  -0.476  0.00  0.00     0.225 A 
ATOM     27  N   UNL d   1      21.366 -16.794  -1.005  0.00  0.00    -0.081 NA
ATOM     28  O   UNL d   1      20.063 -17.246  -1.273  0.00  0.00    -0.103 OA
ATOM     29  N   UNL d   1      19.904 -18.577  -0.895  0.00  0.00    -0.083 NA
ATOM     30  C   UNL d   1      21.078 -18.937  -0.384  0.00  0.00     0.201 A 
BRANCH  30  31
ATOM     31  N   UNL d   1      21.334 -20.157   0.139  0.00  0.00    -0.379 N 
ATOM     32  H   UNL d   1      20.841 -20.383   1.003  0.00  0.00     0.158 HD
ATOM     33  H   UNL d   1      22.292 -20.498   0.173  0.00  0.00     0.158 HD
ENDBRANCH  30  31
ENDBRANCH   5  26
TORSDOF 7
ENDMDL
MODEL 5
REMARK VINA RESULT:   -30.065      2.926      7.157
REMARK INTER + INTRA:         -34.678
REMARK INTER:                 -32.153
REMARK INTRA:                  -2.525
REMARK CONF_INDEPENDENT:        2.088
REMARK UNBOUND:                -2.525
REMARK  7 active torsions:
REMARK  status: ('A' for Active; 'I' for Inactive)
REMARK    1  A    between atoms: N_7  and  C_8 
REMARK    2  A    between atoms: C_8  and  C_9 
REMARK    3  A    between atoms: C_10  and  C_11 
REMARK       I    between atoms: C_11  and  N_13 
REMARK    4  A    between atoms: N_13  and  N_14 
REMARK    5  A    between atoms: C_15  and  C_16 
REMARK    6  A    between atoms: N_23  and  C_24 
REMARK    7  A    between atoms: C_28  and  N_29 
ROOT
ATOM      1  C   UNL d   1      24.665 -16.645  -0.987  0.00  0.00     0.096 C 
ATOM      2  C   UNL d   1      23.524 -17.417  -0.645  0.00  0.00     0.170 C 
ATOM      3  N   UNL d   1      23.989 -18.422   0.184  0.00  0.00    -0.152 NA
ATOM      4  N   UNL d   1      25.313 -18.426   0.214  0.00  0.00     0.012 NA
ATOM      5  N   UNL d   1      25.784 -17.369  -0.474  0.00  0.00    -0.215 N 
ENDROOT
BRANCH   2   6
ATOM      6  C   UNL d   1      22.003 -17.308  -0.872  0.00  0.00     0.293 C 
ATOM      7  O   UNL d   1      21.516 -16.213  -1.248  0.00  0.00    -0.264 OA
ATOM      8  N   UNL d   1      21.173 -18.447  -0.713  0.00  0.00    -0.242 N 
ATOM      9  H   UNL d   1      21.547 -19.288  -0.357  0.00  0.00     0.192 HD
BRANCH   8  10
ATOM     10  N   UNL d   1      19.905 -18.593  -1.269  0.00  0.00    -0.183 NA
ATOM     11  C   UNL d   1      18.945 -19.328  -0.746  0.00  0.00     0.150 C 
BRANCH  11  12
ATOM     12  C   UNL d   1      18.870 -20.137   0.498  0.00  0.00    -0.010 C 
ATOM     13  C   UNL d   1      18.315 -21.474   0.727  0.00  0.00     0.020 C 
ATOM     14  C   UNL d   1      18.380 -21.890   2.070  0.00  0.00     0.050 C 
ATOM     15  S   UNL d   1      19.358 -20.782   3.001  0.00  0.00    -0.113 SA
ATOM     16  C   UNL d   1      19.287 -19.598   1.725  0.00  0.00     0.062 C 
ENDBRANCH  11  12
ENDBRANCH   8  10
ENDBRANCH   2   6
BRANCH   1  17
ATOM     17  C   UNL d   1      24.960 -15.384  -1.708  0.00  0.00     0.296 C 
BRANCH  17  18
ATOM     18  N   UNL d   1      26.067 -15.396  -2.697  0.00  0.00    -0.062 N 
ATOM     19  C   UNL d   1      25.609 -15.225  -4.150  0.00  0.00     0.235 C 
ATOM     20  C   UNL d   1      25.473 -13.788  -4.581  0.00  0.00     0.028 C 
ATOM     21  C   UNL d   1      26.738 -13.001  -4.364  0.00  0.00     0.004 C 
ATOM     22  C   UNL d   1      27.003 -13.015  -2.832  0.00  0.00     0.033 C 
ATOM     23  C   UNL d   1      27.196 -14.420  -2.334  0.00  0.00     0.184 C 
ATOM     24  C   UNL d   1      28.361 -14.687  -3.195  0.00  0.00     0.040 C 
ATOM     25  H   UNL d   1      26.468 -16.314  -2.491  0.00  0.00     0.280 HD
ENDBRANCH  17  18
ENDBRANCH   1  17
BRANCH   5  26
ATOM     26  C   UNL d   1      27.184 -17.037  -0.538  0.00  0.00     0.225 A 
ATOM     27  N   UNL d   1      27.922 -17.399  -1.593  0.00  0.00    -0.081 NA
ATOM     28  O   UNL d   1      29.176 -16.811  -1.354  0.00  0.00    -0.103 OA
ATOM     29  N   UNL d   1      29.181 -16.107  -0.152  0.00  0.00    -0.083 NA
ATOM     30  C   UNL d   1      27.963 -16.271   0.353  0.00  0.00     0.201 A 
BRANCH  30  31
ATOM     31  N   UNL d   1      27.563 -15.771   1.544  0.00  0.00    -0.379 N 
ATOM     32  H   UNL d   1      27.257 -14.798   1.538  0.00  0.00     0.158 HD
ATOM     33  H   UNL d   1      28.106 -15.971   2.381  0.00  0.00     0.158 HD
ENDBRANCH  30  31
ENDBRANCH   5  26
TORSDOF 7
ENDMDL
MODEL 6
REMARK VINA RESULT:   -29.828      1.246      1.923
REMARK INTER + INTRA:         -33.601
REMARK INTER:                 -31.916
REMARK INTRA:                  -1.684
REMARK CONF_INDEPENDENT:        2.088
REMARK UNBOUND:                -1.684
REMARK  7 active torsions:
REMARK  status: ('A' for Active; 'I' for Inactive)
REMARK    1  A    between atoms: N_7  and  C_8 
REMARK    2  A    between atoms: C_8  and  C_9 
REMARK    3  A    between atoms: C_10  and  C_11 
REMARK       I    between atoms: C_11  and  N_13 
REMARK    4  A    between atoms: N_13  and  N_14 
REMARK    5  A    between atoms: C_15  and  C_16 
REMARK    6  A    between atoms: N_23  and  C_24 
REMARK    7  A    between atoms: C_28  and  N_29 
ROOT
ATOM      1  C   UNL d   1      24.493 -17.313  -0.730  0.00  0.00     0.096 C 
ATOM      2  C   UNL d   1      25.611 -17.598   0.098  0.00  0.00     0.170 C 
ATOM      3  N   UNL d   1      25.147 -18.473   1.063  0.00  0.00    -0.152 NA
ATOM      4  N   UNL d   1      23.829 -18.585   0.996  0.00  0.00     0.012 NA
ATOM      5  N   UNL d   1      23.372 -17.908  -0.074  0.00  0.00    -0.215 N 
ENDROOT
BRANCH   2   6
ATOM      6  C   UNL d   1      27.120 -17.276   0.074  0.00  0.00     0.293 C 
ATOM      7  O   UNL d   1      27.886 -17.982  -0.628  0.00  0.00    -0.264 OA
ATOM      8  N   UNL d   1      27.624 -16.161   0.789  0.00  0.00    -0.242 N 
ATOM      9  H   UNL d   1      27.031 -15.647   1.389  0.00  0.00     0.192 HD
BRANCH   8  10
ATOM     10  N   UNL d   1      28.837 -15.529   0.531  0.00  0.00    -0.183 NA
ATOM     11  C   UNL d   1      29.098 -14.273   0.826  0.00  0.00     0.150 C 
BRANCH  11  12
ATOM     12  C   UNL d   1      28.297 -13.216   1.496  0.00  0.00    -0.010 C 
ATOM     13  C   UNL d   1      27.033 -12.589   1.100  0.00  0.00     0.020 C 
ATOM     14  C   UNL d   1      26.606 -11.574   1.977  0.00  0.00     0.050 C 
ATOM     15  S   UNL d   1      27.590 -11.567   3.420  0.00  0.00    -0.113 SA
ATOM     16  C   UNL d   1      28.779 -12.582   2.653  0.00  0.00     0.062 C 
ENDBRANCH  11  12
ENDBRANCH   8  10
ENDBRANCH   2   6
BRANCH   1  17
ATOM     17  C   UNL d   1      24.220 -16.587  -1.993  0.00  0.00     0.296 C 
BRANCH  17  18
ATOM     18  N   UNL d   1      24.655 -15.170  -2.083  0.00  0.00    -0.062 N 
ATOM     19  C   UNL d   1      25.895 -14.841  -1.244  0.00  0.00     0.235 C 
ATOM     20  C   UNL d   1      27.198 -15.105  -1.952  0.00  0.00     0.028 C 
ATOM     21  C   UNL d   1      27.289 -14.388  -3.272  0.00  0.00     0.004 C 
ATOM     22  C   UNL d   1      26.144 -14.956  -4.158  0.00  0.00     0.033 C 
ATOM     23  C   UNL d   1      24.803 -14.689  -3.534  0.00  0.00     0.184 C 
ATOM     24  C   UNL d   1      24.962 -13.225  -3.544  0.00  0.00     0.040 C 
ATOM     25  H   UNL d   1      23.799 -14.711  -1.764  0.00  0.00     0.280 HD
ENDBRANCH  17  18
ENDBRANCH   1  17
BRANCH   5  26
ATOM     26  C   UNL d   1      21.990 -17.923  -0.479  0.00  0.00     0.225 A 
ATOM     27  N   UNL d   1      21.499 -16.959  -1.264  0.00  0.00    -0.081 NA
ATOM     28  O   UNL d   1      20.183 -17.369  -1.532  0.00  0.00    -0.103 OA
ATOM     29  N   UNL d   1      19.892 -18.575  -0.898  0.00  0.00    -0.083 NA
ATOM     30  C   UNL d   1      20.999 -18.895  -0.235  0.00  0.00     0.201 A 
BRANCH  30  31
ATOM     31  N   UNL d   1      21.122 -19.990   0.549  0.00  0.00    -0.379 N 
ATOM     32  H   UNL d   1      21.409 -19.817   1.513  0.00  0.00     0.158 HD
ATOM     33  H   UNL d   1      21.580 -20.822   0.183  0.00  0.00     0.158 HD
ENDBRANCH  30  31
ENDBRANCH   5  26
TORSDOF 7
ENDMDL
MODEL 7
REMARK VINA RESULT:   -29.818      2.632      3.192
REMARK INTER + INTRA:         -33.682
REMARK INTER:                 -31.906
REMARK INTRA:                  -1.776
REMARK CONF_INDEPENDENT:        2.088
REMARK UNBOUND:                -1.776
REMARK  7 active torsions:
REMARK  status: ('A' for Active; 'I' for Inactive)
REMARK    1  A    between atoms: N_7  and  C_8 
REMARK    2  A    between atoms: C_8  and  C_9 
REMARK    3  A    between atoms: C_10  and  C_11 
REMARK       I    between atoms: C_11  and  N_13 
REMARK    4  A    between atoms: N_13  and  N_14 
REMARK    5  A    between atoms: C_15  and  C_16 
REMARK    6  A    between atoms: N_23  and  C_24 
REMARK    7  A    between atoms: C_28  and  N_29 
ROOT
ATOM      1  C   UNL d   1      24.438 -17.147  -0.642  0.00  0.00     0.096 C 
ATOM      2  C   UNL d   1      25.585 -17.455   0.135  0.00  0.00     0.170 C 
ATOM      3  N   UNL d   1      25.176 -18.420   1.037  0.00  0.00    -0.152 NA
ATOM      4  N   UNL d   1      23.862 -18.576   0.990  0.00  0.00     0.012 NA
ATOM      5  N   UNL d   1      23.355 -17.833  -0.012  0.00  0.00    -0.215 N 
ENDROOT
BRANCH   2   6
ATOM      6  C   UNL d   1      27.080 -17.075   0.105  0.00  0.00     0.293 C 
ATOM      7  O   UNL d   1      27.549 -16.359   1.023  0.00  0.00    -0.264 OA
ATOM      8  N   UNL d   1      27.924 -17.578  -0.918  0.00  0.00    -0.242 N 
ATOM      9  H   UNL d   1      27.541 -18.087  -1.672  0.00  0.00     0.192 HD
BRANCH   8  10
ATOM     10  N   UNL d   1      29.311 -17.661  -0.837  0.00  0.00    -0.183 NA
ATOM     11  C   UNL d   1      30.129 -16.647  -1.033  0.00  0.00     0.150 C 
BRANCH  11  12
ATOM     12  C   UNL d   1      29.888 -15.213  -1.337  0.00  0.00    -0.010 C 
ATOM     13  C   UNL d   1      29.093 -14.212  -0.620  0.00  0.00     0.020 C 
ATOM     14  C   UNL d   1      29.060 -12.956  -1.255  0.00  0.00     0.050 C 
ATOM     15  S   UNL d   1      30.210 -12.911  -2.569  0.00  0.00    -0.113 SA
ATOM     16  C   UNL d   1      30.377 -14.644  -2.524  0.00  0.00     0.062 C 
ENDBRANCH  11  12
ENDBRANCH   8  10
ENDBRANCH   2   6
BRANCH   1  17
ATOM     17  C   UNL d   1      24.109 -16.335  -1.837  0.00  0.00     0.296 C 
BRANCH  17  18
ATOM     18  N   UNL d   1      24.873 -15.079  -2.051  0.00  0.00    -0.062 N 
ATOM     19  C   UNL d   1      26.379 -15.213  -1.802  0.00  0.00     0.235 C 
ATOM     20  C   UNL d   1      27.156 -15.686  -3.003  0.00  0.00     0.028 C 
ATOM     21  C   UNL d   1      26.930 -14.818  -4.211  0.00  0.00     0.004 C 
ATOM     22  C   UNL d   1      25.416 -14.928  -4.551  0.00  0.00     0.033 C 
ATOM     23  C   UNL d   1      24.573 -14.430  -3.410  0.00  0.00     0.184 C 
ATOM     24  C   UNL d   1      25.144 -13.071  -3.433  0.00  0.00     0.040 C 
ATOM     25  H   UNL d   1      24.390 -14.473  -1.384  0.00  0.00     0.280 HD
ENDBRANCH  17  18
ENDBRANCH   1  17
BRANCH   5  26
ATOM     26  C   UNL d   1      21.965 -17.868  -0.387  0.00  0.00     0.225 A 
ATOM     27  N   UNL d   1      21.383 -16.803  -0.946  0.00  0.00    -0.081 NA
ATOM     28  O   UNL d   1      20.090 -17.246  -1.270  0.00  0.00    -0.103 OA
ATOM     29  N   UNL d   1      19.905 -18.575  -0.896  0.00  0.00    -0.083 NA
ATOM     30  C   UNL d   1      21.052 -18.941  -0.333  0.00  0.00     0.201 A 
BRANCH  30  31
ATOM     31  N   UNL d   1      21.277 -20.162   0.204  0.00  0.00    -0.379 N 
ATOM     32  H   UNL d   1      20.657 -20.432   0.968  0.00  0.00     0.158 HD
ATOM     33  H   UNL d   1      22.231 -20.460   0.393  0.00  0.00     0.158 HD
ENDBRANCH  30  31
ENDBRANCH   5  26
TORSDOF 7
ENDMDL
