MODEL 1
REMARK VINA RESULT:    -7.382      0.000      0.000
REMARK INTER + INTRA:         -10.339
REMARK INTER:                  -9.172
REMARK INTRA:                  -1.167
REMARK CONF_INDEPENDENT:        1.790
REMARK UNBOUND:                -1.167
REMARK  6 active torsions:
REMARK  status: ('A' for Active; 'I' for Inactive)
REMARK       I    between atoms: C_2  and  N_3 
REMARK    1  A    between atoms: C_2  and  C_19 
REMARK    2  A    between atoms: N_3  and  C_4 
REMARK    3  A    between atoms: C_7  and  N_8 
REMARK    4  A    between atoms: C_14  and  N_15 
REMARK    5  A    between atoms: C_22  and  N_23 
REMARK    6  A    between atoms: C_28  and  N_29 
ROOT
ATOM      1  O   UNL d   1      27.156  -9.885  -3.568  0.00  0.00    -0.267 OA
ATOM      2  C   UNL d   1      26.057 -10.140  -4.052  0.00  0.00     0.256 C 
ATOM      3  N   UNL d   1      25.547 -11.429  -4.222  0.00  0.00    -0.323 N 
ATOM      4  H   UNL d   1      24.752 -11.559  -4.836  0.00  0.00     0.169 HD
ENDROOT
BRANCH   3   5
ATOM      5  C   UNL d   1      26.164 -12.591  -3.689  0.00  0.00     0.037 A 
ATOM      6  C   UNL d   1      26.347 -12.774  -2.322  0.00  0.00     0.032 A 
ATOM      7  C   UNL d   1      27.079 -13.889  -1.834  0.00  0.00     0.034 A 
ATOM      8  C   UNL d   1      27.657 -14.875  -2.681  0.00  0.00     0.063 A 
ATOM      9  C   UNL d   1      27.477 -14.628  -4.070  0.00  0.00     0.131 A 
ATOM     10  C   UNL d   1      26.710 -13.535  -4.542  0.00  0.00     0.068 A 
BRANCH   8  11
ATOM     11  N   UNL d   1      28.298 -15.954  -2.071  0.00  0.00    -0.376 N 
ATOM     12  C   UNL d   1      27.614 -16.962  -1.229  0.00  0.00     0.150 C 
ATOM     13  C   UNL d   1      28.165 -16.988   0.230  0.00  0.00     0.252 C 
ATOM     14  N   UNL d   1      29.665 -17.088   0.231  0.00  0.00    -0.072 N 
ATOM     15  C   UNL d   1      30.303 -16.000  -0.610  0.00  0.00     0.252 C 
ATOM     16  H   UNL d   1      29.947 -18.022  -0.083  0.00  0.00     0.277 HD
ATOM     17  H   UNL d   1      29.978 -16.984   1.206  0.00  0.00     0.277 HD
ATOM     18  C   UNL d   1      29.775 -16.045  -2.066  0.00  0.00     0.150 C 
ENDBRANCH   8  11
BRANCH   9  19
ATOM     19  N   UNL d   1      28.067 -15.415  -5.162  0.00  0.00    -0.113 N 
ATOM     20  O   UNL d   1      27.704 -15.194  -6.318  0.00  0.00    -0.532 OA
ATOM     21  O   UNL d   1      28.878 -16.303  -4.898  0.00  0.00    -0.532 OA
ENDBRANCH   9  19
ENDBRANCH   3   5
BRANCH   2  22
ATOM     22  C   UNL d   1      25.247  -9.005  -4.583  0.00  0.00     0.034 A 
ATOM     23  C   UNL d   1      24.436  -9.131  -5.703  0.00  0.00     0.019 A 
ATOM     24  C   UNL d   1      23.677  -8.027  -6.150  0.00  0.00     0.033 A 
ATOM     25  C   UNL d   1      23.647  -6.769  -5.492  0.00  0.00     0.063 A 
ATOM     26  C   UNL d   1      24.478  -6.672  -4.344  0.00  0.00     0.130 A 
ATOM     27  C   UNL d   1      25.248  -7.787  -3.898  0.00  0.00     0.055 A 
BRANCH  25  28
ATOM     28  N   UNL d   1      22.848  -5.794  -6.053  0.00  0.00    -0.379 N 
ATOM     29  C   UNL d   1      21.880  -4.978  -5.328  0.00  0.00     0.123 C 
ATOM     30  C   UNL d   1      20.676  -4.948  -6.264  0.00  0.00     0.021 C 
ATOM     31  C   UNL d   1      21.330  -4.827  -7.632  0.00  0.00     0.021 C 
ATOM     32  C   UNL d   1      22.653  -5.613  -7.505  0.00  0.00     0.123 C 
ENDBRANCH  25  28
BRANCH  26  33
ATOM     33  N   UNL d   1      24.606  -5.458  -3.502  0.00  0.00    -0.113 N 
ATOM     34  O   UNL d   1      23.706  -5.141  -2.722  0.00  0.00    -0.532 OA
ATOM     35  O   UNL d   1      25.647  -4.793  -3.620  0.00  0.00    -0.532 OA
ENDBRANCH  26  33
ENDBRANCH   2  22
TORSDOF 6
ENDMDL
MODEL 2
REMARK VINA RESULT:    -7.186      6.498     10.345
REMARK INTER + INTRA:         -10.056
REMARK INTER:                  -8.975
REMARK INTRA:                  -1.081
REMARK CONF_INDEPENDENT:        1.790
REMARK UNBOUND:                -1.081
REMARK  6 active torsions:
REMARK  status: ('A' for Active; 'I' for Inactive)
REMARK       I    between atoms: C_2  and  N_3 
REMARK    1  A    between atoms: C_2  and  C_19 
REMARK    2  A    between atoms: N_3  and  C_4 
REMARK    3  A    between atoms: C_7  and  N_8 
REMARK    4  A    between atoms: C_14  and  N_15 
REMARK    5  A    between atoms: C_22  and  N_23 
REMARK    6  A    between atoms: C_28  and  N_29 
ROOT
ATOM      1  O   UNL d   1      26.940 -13.327   1.182  0.00  0.00    -0.267 OA
ATOM      2  C   UNL d   1      27.858 -13.966   1.687  0.00  0.00     0.256 C 
ATOM      3  N   UNL d   1      28.620 -14.924   1.015  0.00  0.00    -0.323 N 
ATOM      4  H   UNL d   1      29.187 -15.563   1.560  0.00  0.00     0.169 HD
ENDROOT
BRANCH   3   5
ATOM      5  C   UNL d   1      28.541 -15.144  -0.385  0.00  0.00     0.037 A 
ATOM      6  C   UNL d   1      29.640 -14.992  -1.224  0.00  0.00     0.032 A 
ATOM      7  C   UNL d   1      29.493 -15.100  -2.633  0.00  0.00     0.034 A 
ATOM      8  C   UNL d   1      28.251 -15.367  -3.271  0.00  0.00     0.063 A 
ATOM      9  C   UNL d   1      27.149 -15.478  -2.378  0.00  0.00     0.131 A 
ATOM     10  C   UNL d   1      27.316 -15.410  -0.973  0.00  0.00     0.068 A 
BRANCH   8  11
ATOM     11  N   UNL d   1      28.256 -15.509  -4.659  0.00  0.00    -0.376 N 
ATOM     12  C   UNL d   1      29.280 -16.263  -5.416  0.00  0.00     0.150 C 
ATOM     13  C   UNL d   1      30.058 -15.359  -6.422  0.00  0.00     0.252 C 
ATOM     14  N   UNL d   1      29.106 -14.571  -7.276  0.00  0.00    -0.072 N 
ATOM     15  C   UNL d   1      28.115 -13.787  -6.439  0.00  0.00     0.252 C 
ATOM     16  H   UNL d   1      28.631 -15.200  -7.932  0.00  0.00     0.277 HD
ATOM     17  H   UNL d   1      29.667 -13.913  -7.834  0.00  0.00     0.277 HD
ATOM     18  C   UNL d   1      27.321 -14.726  -5.497  0.00  0.00     0.150 C 
ENDBRANCH   8  11
BRANCH   9  19
ATOM     19  N   UNL d   1      25.742 -15.632  -2.771  0.00  0.00    -0.113 N 
ATOM     20  O   UNL d   1      25.105 -16.593  -2.338  0.00  0.00    -0.532 OA
ATOM     21  O   UNL d   1      25.241 -14.825  -3.554  0.00  0.00    -0.532 OA
ENDBRANCH   9  19
ENDBRANCH   3   5
BRANCH   2  22
ATOM     22  C   UNL d   1      28.120 -13.778   3.145  0.00  0.00     0.034 A 
ATOM     23  C   UNL d   1      28.505 -14.825   3.971  0.00  0.00     0.019 A 
ATOM     24  C   UNL d   1      28.757 -14.585   5.340  0.00  0.00     0.033 A 
ATOM     25  C   UNL d   1      28.688 -13.302   5.944  0.00  0.00     0.063 A 
ATOM     26  C   UNL d   1      28.303 -12.248   5.072  0.00  0.00     0.130 A 
ATOM     27  C   UNL d   1      28.042 -12.494   3.691  0.00  0.00     0.055 A 
BRANCH  25  28
ATOM     28  N   UNL d   1      28.971 -13.235   7.292  0.00  0.00    -0.379 N 
ATOM     29  C   UNL d   1      29.936 -14.075   7.993  0.00  0.00     0.123 C 
ATOM     30  C   UNL d   1      29.213 -14.435   9.287  0.00  0.00     0.021 C 
ATOM     31  C   UNL d   1      28.509 -13.133   9.640  0.00  0.00     0.021 C 
ATOM     32  C   UNL d   1      28.155 -12.498   8.277  0.00  0.00     0.123 C 
ENDBRANCH  25  28
BRANCH  26  33
ATOM     33  N   UNL d   1      28.164 -10.829   5.482  0.00  0.00    -0.113 N 
ATOM     34  O   UNL d   1      28.785 -10.397   6.455  0.00  0.00    -0.532 OA
ATOM     35  O   UNL d   1      27.407 -10.115   4.806  0.00  0.00    -0.532 OA
ENDBRANCH  26  33
ENDBRANCH   2  22
TORSDOF 6
ENDMDL
MODEL 3
REMARK VINA RESULT:    -6.894      1.780      2.154
REMARK INTER + INTRA:          -9.816
REMARK INTER:                  -8.684
REMARK INTRA:                  -1.132
REMARK CONF_INDEPENDENT:        1.790
REMARK UNBOUND:                -1.132
REMARK  6 active torsions:
REMARK  status: ('A' for Active; 'I' for Inactive)
REMARK       I    between atoms: C_2  and  N_3 
REMARK    1  A    between atoms: C_2  and  C_19 
REMARK    2  A    between atoms: N_3  and  C_4 
REMARK    3  A    between atoms: C_7  and  N_8 
REMARK    4  A    between atoms: C_14  and  N_15 
REMARK    5  A    between atoms: C_22  and  N_23 
REMARK    6  A    between atoms: C_28  and  N_29 
ROOT
ATOM      1  O   UNL d   1      27.065  -9.842  -4.167  0.00  0.00    -0.267 OA
ATOM      2  C   UNL d   1      26.025 -10.134  -4.751  0.00  0.00     0.256 C 
ATOM      3  N   UNL d   1      25.530 -11.433  -4.886  0.00  0.00    -0.323 N 
ATOM      4  H   UNL d   1      24.808 -11.608  -5.574  0.00  0.00     0.169 HD
ENDROOT
BRANCH   3   5
ATOM      5  C   UNL d   1      26.079 -12.553  -4.208  0.00  0.00     0.037 A 
ATOM      6  C   UNL d   1      26.081 -12.653  -2.821  0.00  0.00     0.032 A 
ATOM      7  C   UNL d   1      26.749 -13.728  -2.175  0.00  0.00     0.034 A 
ATOM      8  C   UNL d   1      27.440 -14.753  -2.878  0.00  0.00     0.063 A 
ATOM      9  C   UNL d   1      27.443 -14.591  -4.291  0.00  0.00     0.131 A 
ATOM     10  C   UNL d   1      26.739 -13.538  -4.924  0.00  0.00     0.068 A 
BRANCH   8  11
ATOM     11  N   UNL d   1      28.001 -15.786  -2.125  0.00  0.00    -0.376 N 
ATOM     12  C   UNL d   1      27.226 -16.700  -1.257  0.00  0.00     0.150 C 
ATOM     13  C   UNL d   1      27.659 -16.606   0.239  0.00  0.00     0.252 C 
ATOM     14  N   UNL d   1      29.150 -16.736   0.370  0.00  0.00    -0.072 N 
ATOM     15  C   UNL d   1      29.882 -15.741  -0.509  0.00  0.00     0.252 C 
ATOM     16  H   UNL d   1      29.432 -17.700   0.164  0.00  0.00     0.277 HD
ATOM     17  H   UNL d   1      29.389 -16.551   1.354  0.00  0.00     0.277 HD
ATOM     18  C   UNL d   1      29.470 -15.905  -1.993  0.00  0.00     0.150 C 
ENDBRANCH   8  11
BRANCH   9  19
ATOM     19  N   UNL d   1      28.177 -15.431  -5.247  0.00  0.00    -0.113 N 
ATOM     20  O   UNL d   1      28.906 -16.325  -4.815  0.00  0.00    -0.532 OA
ATOM     21  O   UNL d   1      28.082 -15.200  -6.453  0.00  0.00    -0.532 OA
ENDBRANCH   9  19
ENDBRANCH   3   5
BRANCH   2  22
ATOM     22  C   UNL d   1      25.284  -9.041  -5.447  0.00  0.00     0.034 A 
ATOM     23  C   UNL d   1      24.040  -8.598  -5.020  0.00  0.00     0.019 A 
ATOM     24  C   UNL d   1      23.393  -7.547  -5.707  0.00  0.00     0.033 A 
ATOM     25  C   UNL d   1      23.960  -6.856  -6.811  0.00  0.00     0.063 A 
ATOM     26  C   UNL d   1      25.238  -7.323  -7.218  0.00  0.00     0.130 A 
ATOM     27  C   UNL d   1      25.887  -8.389  -6.526  0.00  0.00     0.055 A 
BRANCH  25  28
ATOM     28  N   UNL d   1      23.201  -5.847  -7.367  0.00  0.00    -0.379 N 
ATOM     29  C   UNL d   1      22.220  -5.039  -6.651  0.00  0.00     0.123 C 
ATOM     30  C   UNL d   1      21.055  -4.953  -7.632  0.00  0.00     0.021 C 
ATOM     31  C   UNL d   1      21.765  -4.795  -8.968  0.00  0.00     0.021 C 
ATOM     32  C   UNL d   1      23.068  -5.610  -8.818  0.00  0.00     0.123 C 
ENDBRANCH  25  28
BRANCH  26  33
ATOM     33  N   UNL d   1      26.019  -6.754  -8.344  0.00  0.00    -0.113 N 
ATOM     34  O   UNL d   1      26.088  -7.351  -9.420  0.00  0.00    -0.532 OA
ATOM     35  O   UNL d   1      26.584  -5.666  -8.150  0.00  0.00    -0.532 OA
ENDBRANCH  26  33
ENDBRANCH   2  22
TORSDOF 6
ENDMDL
MODEL 4
REMARK VINA RESULT:    -6.723      7.708     13.147
REMARK INTER + INTRA:         -10.011
REMARK INTER:                  -8.513
REMARK INTRA:                  -1.498
REMARK CONF_INDEPENDENT:        1.790
REMARK UNBOUND:                -1.498
REMARK  6 active torsions:
REMARK  status: ('A' for Active; 'I' for Inactive)
REMARK       I    between atoms: C_2  and  N_3 
REMARK    1  A    between atoms: C_2  and  C_19 
REMARK    2  A    between atoms: N_3  and  C_4 
REMARK    3  A    between atoms: C_7  and  N_8 
REMARK    4  A    between atoms: C_14  and  N_15 
REMARK    5  A    between atoms: C_22  and  N_23 
REMARK    6  A    between atoms: C_28  and  N_29 
ROOT
ATOM      1  O   UNL d   1      27.966 -10.203   5.116  0.00  0.00    -0.267 OA
ATOM      2  C   UNL d   1      28.222 -11.377   4.863  0.00  0.00     0.256 C 
ATOM      3  N   UNL d   1      28.074 -11.967   3.606  0.00  0.00    -0.323 N 
ATOM      4  H   UNL d   1      28.078 -12.978   3.541  0.00  0.00     0.169 HD
ENDROOT
BRANCH   3   5
ATOM      5  C   UNL d   1      27.781 -11.232   2.428  0.00  0.00     0.037 A 
ATOM      6  C   UNL d   1      28.469 -11.434   1.236  0.00  0.00     0.032 A 
ATOM      7  C   UNL d   1      28.233 -10.595   0.114  0.00  0.00     0.034 A 
ATOM      8  C   UNL d   1      27.301  -9.521   0.125  0.00  0.00     0.063 A 
ATOM      9  C   UNL d   1      26.648  -9.328   1.374  0.00  0.00     0.131 A 
ATOM     10  C   UNL d   1      26.862 -10.197   2.471  0.00  0.00     0.068 A 
BRANCH   8  11
ATOM     11  N   UNL d   1      27.119  -8.813  -1.064  0.00  0.00    -0.376 N 
ATOM     12  C   UNL d   1      26.904  -7.350  -1.138  0.00  0.00     0.150 C 
ATOM     13  C   UNL d   1      25.530  -6.984  -1.780  0.00  0.00     0.252 C 
ATOM     14  N   UNL d   1      25.341  -7.709  -3.082  0.00  0.00    -0.072 N 
ATOM     15  C   UNL d   1      25.528  -9.206  -2.927  0.00  0.00     0.252 C 
ATOM     16  H   UNL d   1      25.976  -7.321  -3.788  0.00  0.00     0.277 HD
ATOM     17  H   UNL d   1      24.380  -7.524  -3.400  0.00  0.00     0.277 HD
ATOM     18  C   UNL d   1      26.926  -9.531  -2.343  0.00  0.00     0.150 C 
ENDBRANCH   8  11
BRANCH   9  19
ATOM     19  N   UNL d   1      25.732  -8.226   1.699  0.00  0.00    -0.113 N 
ATOM     20  O   UNL d   1      24.780  -8.003   0.950  0.00  0.00    -0.532 OA
ATOM     21  O   UNL d   1      25.956  -7.524   2.685  0.00  0.00    -0.532 OA
ENDBRANCH   9  19
ENDBRANCH   3   5
BRANCH   2  22
ATOM     22  C   UNL d   1      28.629 -12.262   5.995  0.00  0.00     0.034 A 
ATOM     23  C   UNL d   1      29.159 -13.529   5.792  0.00  0.00     0.019 A 
ATOM     24  C   UNL d   1      29.543 -14.317   6.900  0.00  0.00     0.033 A 
ATOM     25  C   UNL d   1      29.467 -13.876   8.248  0.00  0.00     0.063 A 
ATOM     26  C   UNL d   1      28.931 -12.572   8.424  0.00  0.00     0.130 A 
ATOM     27  C   UNL d   1      28.537 -11.782   7.303  0.00  0.00     0.055 A 
BRANCH  25  28
ATOM     28  N   UNL d   1      29.889 -14.764   9.216  0.00  0.00    -0.379 N 
ATOM     29  C   UNL d   1      29.099 -15.200  10.362  0.00  0.00     0.123 C 
ATOM     30  C   UNL d   1      30.104 -15.179  11.509  0.00  0.00     0.021 C 
ATOM     31  C   UNL d   1      31.366 -15.710  10.846  0.00  0.00     0.021 C 
ATOM     32  C   UNL d   1      31.289 -15.198   9.391  0.00  0.00     0.123 C 
ENDBRANCH  25  28
BRANCH  26  33
ATOM     33  N   UNL d   1      28.757 -11.908   9.739  0.00  0.00    -0.113 N 
ATOM     34  O   UNL d   1      29.602 -11.112  10.153  0.00  0.00    -0.532 OA
ATOM     35  O   UNL d   1      27.735 -12.188  10.385  0.00  0.00    -0.532 OA
ENDBRANCH  26  33
ENDBRANCH   2  22
TORSDOF 6
ENDMDL
MODEL 5
REMARK VINA RESULT:    -6.619      5.957      8.888
REMARK INTER + INTRA:          -9.546
REMARK INTER:                  -8.409
REMARK INTRA:                  -1.137
REMARK CONF_INDEPENDENT:        1.790
REMARK UNBOUND:                -1.137
REMARK  6 active torsions:
REMARK  status: ('A' for Active; 'I' for Inactive)
REMARK       I    between atoms: C_2  and  N_3 
REMARK    1  A    between atoms: C_2  and  C_19 
REMARK    2  A    between atoms: N_3  and  C_4 
REMARK    3  A    between atoms: C_7  and  N_8 
REMARK    4  A    between atoms: C_14  and  N_15 
REMARK    5  A    between atoms: C_22  and  N_23 
REMARK    6  A    between atoms: C_28  and  N_29 
ROOT
ATOM      1  O   UNL d   1      28.149 -10.877  -1.002  0.00  0.00    -0.267 OA
ATOM      2  C   UNL d   1      28.291 -11.904  -0.344  0.00  0.00     0.256 C 
ATOM      3  N   UNL d   1      28.454 -13.179  -0.890  0.00  0.00    -0.323 N 
ATOM      4  H   UNL d   1      28.326 -13.984  -0.290  0.00  0.00     0.169 HD
ENDROOT
BRANCH   3   5
ATOM      5  C   UNL d   1      28.658 -13.415  -2.275  0.00  0.00     0.037 A 
ATOM      6  C   UNL d   1      29.758 -12.912  -2.961  0.00  0.00     0.032 A 
ATOM      7  C   UNL d   1      29.862 -13.064  -4.370  0.00  0.00     0.034 A 
ATOM      8  C   UNL d   1      28.883 -13.727  -5.159  0.00  0.00     0.063 A 
ATOM      9  C   UNL d   1      27.759 -14.193  -4.422  0.00  0.00     0.131 A 
ATOM     10  C   UNL d   1      27.686 -14.071  -3.013  0.00  0.00     0.068 A 
BRANCH   8  11
ATOM     11  N   UNL d   1      29.137 -13.862  -6.524  0.00  0.00    -0.376 N 
ATOM     12  C   UNL d   1      30.258 -14.647  -7.089  0.00  0.00     0.150 C 
ATOM     13  C   UNL d   1      31.236 -13.765  -7.925  0.00  0.00     0.252 C 
ATOM     14  N   UNL d   1      30.483 -12.941  -8.931  0.00  0.00    -0.072 N 
ATOM     15  C   UNL d   1      29.381 -12.127  -8.281  0.00  0.00     0.252 C 
ATOM     16  H   UNL d   1      30.116 -13.550  -9.669  0.00  0.00     0.277 HD
ATOM     17  H   UNL d   1      31.158 -12.299  -9.369  0.00  0.00     0.277 HD
ATOM     18  C   UNL d   1      28.398 -13.044  -7.510  0.00  0.00     0.150 C 
ENDBRANCH   8  11
BRANCH   9  19
ATOM     19  N   UNL d   1      26.552 -14.803  -4.997  0.00  0.00    -0.113 N 
ATOM     20  O   UNL d   1      26.672 -15.575  -5.949  0.00  0.00    -0.532 OA
ATOM     21  O   UNL d   1      25.447 -14.500  -4.545  0.00  0.00    -0.532 OA
ENDBRANCH   9  19
ENDBRANCH   3   5
BRANCH   2  22
ATOM     22  C   UNL d   1      28.187 -11.801   1.142  0.00  0.00     0.034 A 
ATOM     23  C   UNL d   1      28.825 -12.692   1.994  0.00  0.00     0.019 A 
ATOM     24  C   UNL d   1      28.706 -12.535   3.393  0.00  0.00     0.033 A 
ATOM     25  C   UNL d   1      27.995 -11.473   4.013  0.00  0.00     0.063 A 
ATOM     26  C   UNL d   1      27.362 -10.571   3.116  0.00  0.00     0.130 A 
ATOM     27  C   UNL d   1      27.478 -10.736   1.703  0.00  0.00     0.055 A 
BRANCH  25  28
ATOM     28  N   UNL d   1      27.980 -11.458   5.392  0.00  0.00    -0.379 N 
ATOM     29  C   UNL d   1      28.529 -10.397   6.229  0.00  0.00     0.123 C 
ATOM     30  C   UNL d   1      29.236 -11.160   7.344  0.00  0.00     0.021 C 
ATOM     31  C   UNL d   1      28.279 -12.311   7.609  0.00  0.00     0.021 C 
ATOM     32  C   UNL d   1      27.655 -12.628   6.232  0.00  0.00     0.123 C 
ENDBRANCH  25  28
BRANCH  26  33
ATOM     33  N   UNL d   1      26.567  -9.392   3.536  0.00  0.00    -0.113 N 
ATOM     34  O   UNL d   1      27.027  -8.585   4.346  0.00  0.00    -0.532 OA
ATOM     35  O   UNL d   1      25.438  -9.262   3.036  0.00  0.00    -0.532 OA
ENDBRANCH  26  33
ENDBRANCH   2  22
TORSDOF 6
ENDMDL
MODEL 6
REMARK VINA RESULT:    -6.569      5.004      7.941
REMARK INTER + INTRA:          -9.569
REMARK INTER:                  -8.359
REMARK INTRA:                  -1.210
REMARK CONF_INDEPENDENT:        1.790
REMARK UNBOUND:                -1.210
REMARK  6 active torsions:
REMARK  status: ('A' for Active; 'I' for Inactive)
REMARK       I    between atoms: C_2  and  N_3 
REMARK    1  A    between atoms: C_2  and  C_19 
REMARK    2  A    between atoms: N_3  and  C_4 
REMARK    3  A    between atoms: C_7  and  N_8 
REMARK    4  A    between atoms: C_14  and  N_15 
REMARK    5  A    between atoms: C_22  and  N_23 
REMARK    6  A    between atoms: C_28  and  N_29 
ROOT
ATOM      1  O   UNL d   1      26.028 -13.116  -1.153  0.00  0.00    -0.267 OA
ATOM      2  C   UNL d   1      26.903 -12.401  -1.633  0.00  0.00     0.256 C 
ATOM      3  N   UNL d   1      27.753 -11.581  -0.888  0.00  0.00    -0.323 N 
ATOM      4  H   UNL d   1      28.274 -10.858  -1.368  0.00  0.00     0.169 HD
ENDROOT
BRANCH   3   5
ATOM      5  C   UNL d   1      27.825 -11.614   0.530  0.00  0.00     0.037 A 
ATOM      6  C   UNL d   1      28.356 -12.697   1.222  0.00  0.00     0.032 A 
ATOM      7  C   UNL d   1      28.298 -12.747   2.640  0.00  0.00     0.034 A 
ATOM      8  C   UNL d   1      27.716 -11.722   3.435  0.00  0.00     0.063 A 
ATOM      9  C   UNL d   1      27.155 -10.651   2.685  0.00  0.00     0.131 A 
ATOM     10  C   UNL d   1      27.255 -10.594   1.273  0.00  0.00     0.068 A 
BRANCH   8  11
ATOM     11  N   UNL d   1      27.781 -11.864   4.821  0.00  0.00    -0.376 N 
ATOM     12  C   UNL d   1      28.169 -10.782   5.754  0.00  0.00     0.150 C 
ATOM     13  C   UNL d   1      29.447 -11.137   6.574  0.00  0.00     0.252 C 
ATOM     14  N   UNL d   1      29.312 -12.491   7.212  0.00  0.00    -0.072 N 
ATOM     15  C   UNL d   1      28.960 -13.560   6.196  0.00  0.00     0.252 C 
ATOM     16  H   UNL d   1      28.621 -12.447   7.969  0.00  0.00     0.277 HD
ATOM     17  H   UNL d   1      30.219 -12.721   7.639  0.00  0.00     0.277 HD
ATOM     18  C   UNL d   1      27.654 -13.200   5.444  0.00  0.00     0.150 C 
ENDBRANCH   8  11
BRANCH   9  19
ATOM     19  N   UNL d   1      26.390  -9.526   3.241  0.00  0.00    -0.113 N 
ATOM     20  O   UNL d   1      25.160  -9.573   3.216  0.00  0.00    -0.532 OA
ATOM     21  O   UNL d   1      26.991  -8.545   3.680  0.00  0.00    -0.532 OA
ENDBRANCH   9  19
ENDBRANCH   3   5
BRANCH   2  22
ATOM     22  C   UNL d   1      27.007 -12.328  -3.120  0.00  0.00     0.034 A 
ATOM     23  C   UNL d   1      27.081 -11.120  -3.800  0.00  0.00     0.019 A 
ATOM     24  C   UNL d   1      27.196 -11.112  -5.208  0.00  0.00     0.033 A 
ATOM     25  C   UNL d   1      27.290 -12.286  -6.002  0.00  0.00     0.063 A 
ATOM     26  C   UNL d   1      27.223 -13.506  -5.277  0.00  0.00     0.130 A 
ATOM     27  C   UNL d   1      27.099 -13.512  -3.856  0.00  0.00     0.055 A 
BRANCH  25  28
ATOM     28  N   UNL d   1      27.406 -12.106  -7.364  0.00  0.00    -0.379 N 
ATOM     29  C   UNL d   1      28.442 -12.694  -8.206  0.00  0.00     0.123 C 
ATOM     30  C   UNL d   1      28.831 -11.547  -9.135  0.00  0.00     0.021 C 
ATOM     31  C   UNL d   1      27.488 -10.898  -9.430  0.00  0.00     0.021 C 
ATOM     32  C   UNL d   1      26.669 -11.084  -8.134  0.00  0.00     0.123 C 
ENDBRANCH  25  28
BRANCH  26  33
ATOM     33  N   UNL d   1      27.299 -14.853  -5.895  0.00  0.00    -0.113 N 
ATOM     34  O   UNL d   1      28.306 -15.198  -6.516  0.00  0.00    -0.532 OA
ATOM     35  O   UNL d   1      26.317 -15.598  -5.754  0.00  0.00    -0.532 OA
ENDBRANCH  26  33
ENDBRANCH   2  22
TORSDOF 6
ENDMDL
MODEL 7
REMARK VINA RESULT:    -6.478      6.726     11.573
REMARK INTER + INTRA:          -9.450
REMARK INTER:                  -8.268
REMARK INTRA:                  -1.182
REMARK CONF_INDEPENDENT:        1.790
REMARK UNBOUND:                -1.182
REMARK  6 active torsions:
REMARK  status: ('A' for Active; 'I' for Inactive)
REMARK       I    between atoms: C_2  and  N_3 
REMARK    1  A    between atoms: C_2  and  C_19 
REMARK    2  A    between atoms: N_3  and  C_4 
REMARK    3  A    between atoms: C_7  and  N_8 
REMARK    4  A    between atoms: C_14  and  N_15 
REMARK    5  A    between atoms: C_22  and  N_23 
REMARK    6  A    between atoms: C_28  and  N_29 
ROOT
ATOM      1  O   UNL d   1      27.028 -12.301   3.237  0.00  0.00    -0.267 OA
ATOM      2  C   UNL d   1      27.758 -13.235   3.557  0.00  0.00     0.256 C 
ATOM      3  N   UNL d   1      28.089 -14.305   2.722  0.00  0.00    -0.323 N 
ATOM      4  H   UNL d   1      28.493 -15.136   3.135  0.00  0.00     0.169 HD
ENDROOT
BRANCH   3   5
ATOM      5  C   UNL d   1      27.764 -14.347   1.341  0.00  0.00     0.037 A 
ATOM      6  C   UNL d   1      28.059 -13.298   0.476  0.00  0.00     0.032 A 
ATOM      7  C   UNL d   1      27.608 -13.324  -0.871  0.00  0.00     0.034 A 
ATOM      8  C   UNL d   1      26.849 -14.394  -1.420  0.00  0.00     0.063 A 
ATOM      9  C   UNL d   1      26.540 -15.426  -0.491  0.00  0.00     0.131 A 
ATOM     10  C   UNL d   1      27.030 -15.408   0.837  0.00  0.00     0.068 A 
BRANCH   8  11
ATOM     11  N   UNL d   1      26.522 -14.324  -2.775  0.00  0.00    -0.376 N 
ATOM     12  C   UNL d   1      27.304 -13.572  -3.783  0.00  0.00     0.150 C 
ATOM     13  C   UNL d   1      26.465 -12.445  -4.462  0.00  0.00     0.252 C 
ATOM     14  N   UNL d   1      25.155 -12.983  -4.962  0.00  0.00    -0.072 N 
ATOM     15  C   UNL d   1      24.386 -13.700  -3.870  0.00  0.00     0.252 C 
ATOM     16  H   UNL d   1      25.320 -13.593  -5.770  0.00  0.00     0.277 HD
ATOM     17  H   UNL d   1      24.600 -12.182  -5.292  0.00  0.00     0.277 HD
ATOM     18  C   UNL d   1      25.228 -14.850  -3.263  0.00  0.00     0.150 C 
ENDBRANCH   8  11
BRANCH   9  19
ATOM     19  N   UNL d   1      25.675 -16.584  -0.756  0.00  0.00    -0.113 N 
ATOM     20  O   UNL d   1      26.168 -17.590  -1.266  0.00  0.00    -0.532 OA
ATOM     21  O   UNL d   1      24.472 -16.510  -0.503  0.00  0.00    -0.532 OA
ENDBRANCH   9  19
ENDBRANCH   3   5
BRANCH   2  22
ATOM     22  C   UNL d   1      28.253 -13.284   4.965  0.00  0.00     0.034 A 
ATOM     23  C   UNL d   1      28.658 -14.466   5.569  0.00  0.00     0.019 A 
ATOM     24  C   UNL d   1      29.134 -14.450   6.899  0.00  0.00     0.033 A 
ATOM     25  C   UNL d   1      29.277 -13.268   7.674  0.00  0.00     0.063 A 
ATOM     26  C   UNL d   1      28.865 -12.073   7.026  0.00  0.00     0.130 A 
ATOM     27  C   UNL d   1      28.378 -12.093   5.685  0.00  0.00     0.055 A 
BRANCH  25  28
ATOM     28  N   UNL d   1      29.764 -13.422   8.955  0.00  0.00    -0.379 N 
ATOM     29  C   UNL d   1      31.010 -14.094   9.307  0.00  0.00     0.123 C 
ATOM     30  C   UNL d   1      30.630 -14.913  10.537  0.00  0.00     0.021 C 
ATOM     31  C   UNL d   1      29.705 -13.966  11.286  0.00  0.00     0.021 C 
ATOM     32  C   UNL d   1      28.978 -13.172  10.179  0.00  0.00     0.123 C 
ENDBRANCH  25  28
BRANCH  26  33
ATOM     33  N   UNL d   1      28.923 -10.724   7.640  0.00  0.00    -0.113 N 
ATOM     34  O   UNL d   1      28.988 -10.598   8.865  0.00  0.00    -0.532 OA
ATOM     35  O   UNL d   1      28.906  -9.749   6.872  0.00  0.00    -0.532 OA
ENDBRANCH  26  33
ENDBRANCH   2  22
TORSDOF 6
ENDMDL
MODEL 8
REMARK VINA RESULT:    -6.318      9.585     15.266
REMARK INTER + INTRA:          -9.417
REMARK INTER:                  -8.108
REMARK INTRA:                  -1.309
REMARK CONF_INDEPENDENT:        1.790
REMARK UNBOUND:                -1.309
REMARK  6 active torsions:
REMARK  status: ('A' for Active; 'I' for Inactive)
REMARK       I    between atoms: C_2  and  N_3 
REMARK    1  A    between atoms: C_2  and  C_19 
REMARK    2  A    between atoms: N_3  and  C_4 
REMARK    3  A    between atoms: C_7  and  N_8 
REMARK    4  A    between atoms: C_14  and  N_15 
REMARK    5  A    between atoms: C_22  and  N_23 
REMARK    6  A    between atoms: C_28  and  N_29 
ROOT
ATOM      1  O   UNL d   1      33.697 -18.468   1.091  0.00  0.00    -0.267 OA
ATOM      2  C   UNL d   1      32.947 -19.394   1.386  0.00  0.00     0.256 C 
ATOM      3  N   UNL d   1      31.842 -19.791   0.630  0.00  0.00    -0.323 N 
ATOM      4  H   UNL d   1      31.152 -20.396   1.059  0.00  0.00     0.169 HD
ENDROOT
BRANCH   3   5
ATOM      5  C   UNL d   1      31.559 -19.284  -0.665  0.00  0.00     0.037 A 
ATOM      6  C   UNL d   1      31.021 -18.018  -0.866  0.00  0.00     0.032 A 
ATOM      7  C   UNL d   1      30.636 -17.594  -2.167  0.00  0.00     0.034 A 
ATOM      8  C   UNL d   1      30.774 -18.407  -3.325  0.00  0.00     0.063 A 
ATOM      9  C   UNL d   1      31.295 -19.705  -3.068  0.00  0.00     0.131 A 
ATOM     10  C   UNL d   1      31.712 -20.100  -1.773  0.00  0.00     0.068 A 
BRANCH   8  11
ATOM     11  N   UNL d   1      30.416 -17.847  -4.552  0.00  0.00    -0.376 N 
ATOM     12  C   UNL d   1      30.427 -18.581  -5.838  0.00  0.00     0.150 C 
ATOM     13  C   UNL d   1      31.409 -17.949  -6.872  0.00  0.00     0.252 C 
ATOM     14  N   UNL d   1      31.170 -16.471  -7.000  0.00  0.00    -0.072 N 
ATOM     15  C   UNL d   1      31.218 -15.774  -5.654  0.00  0.00     0.252 C 
ATOM     16  H   UNL d   1      30.278 -16.306  -7.478  0.00  0.00     0.277 HD
ATOM     17  H   UNL d   1      31.914 -16.090  -7.600  0.00  0.00     0.277 HD
ATOM     18  C   UNL d   1      30.188 -16.390  -4.674  0.00  0.00     0.150 C 
ENDBRANCH   8  11
BRANCH   9  19
ATOM     19  N   UNL d   1      31.428 -20.785  -4.056  0.00  0.00    -0.113 N 
ATOM     20  O   UNL d   1      32.382 -20.763  -4.834  0.00  0.00    -0.532 OA
ATOM     21  O   UNL d   1      30.566 -21.662  -4.114  0.00  0.00    -0.532 OA
ENDBRANCH   9  19
ENDBRANCH   3   5
BRANCH   2  22
ATOM     22  C   UNL d   1      33.173 -20.086   2.690  0.00  0.00     0.034 A 
ATOM     23  C   UNL d   1      34.444 -20.334   3.189  0.00  0.00     0.019 A 
ATOM     24  C   UNL d   1      34.597 -20.977   4.437  0.00  0.00     0.033 A 
ATOM     25  C   UNL d   1      33.511 -21.362   5.268  0.00  0.00     0.063 A 
ATOM     26  C   UNL d   1      32.223 -21.086   4.736  0.00  0.00     0.130 A 
ATOM     27  C   UNL d   1      32.071 -20.442   3.472  0.00  0.00     0.055 A 
BRANCH  25  28
ATOM     28  N   UNL d   1      33.829 -21.974   6.462  0.00  0.00    -0.379 N 
ATOM     29  C   UNL d   1      34.152 -21.280   7.704  0.00  0.00     0.123 C 
ATOM     30  C   UNL d   1      35.335 -22.074   8.252  0.00  0.00     0.021 C 
ATOM     31  C   UNL d   1      34.944 -23.507   7.925  0.00  0.00     0.021 C 
ATOM     32  C   UNL d   1      34.156 -23.407   6.600  0.00  0.00     0.123 C 
ENDBRANCH  25  28
BRANCH  26  33
ATOM     33  N   UNL d   1      30.947 -21.399   5.426  0.00  0.00    -0.113 N 
ATOM     34  O   UNL d   1      30.827 -21.202   6.636  0.00  0.00    -0.532 OA
ATOM     35  O   UNL d   1      30.026 -21.857   4.732  0.00  0.00    -0.532 OA
ENDBRANCH  26  33
ENDBRANCH   2  22
TORSDOF 6
ENDMDL
MODEL 9
REMARK VINA RESULT:    -6.240      8.146     13.021
REMARK INTER + INTRA:          -9.562
REMARK INTER:                  -8.029
REMARK INTRA:                  -1.533
REMARK CONF_INDEPENDENT:        1.790
REMARK UNBOUND:                -1.533
REMARK  6 active torsions:
REMARK  status: ('A' for Active; 'I' for Inactive)
REMARK       I    between atoms: C_2  and  N_3 
REMARK    1  A    between atoms: C_2  and  C_19 
REMARK    2  A    between atoms: N_3  and  C_4 
REMARK    3  A    between atoms: C_7  and  N_8 
REMARK    4  A    between atoms: C_14  and  N_15 
REMARK    5  A    between atoms: C_22  and  N_23 
REMARK    6  A    between atoms: C_28  and  N_29 
ROOT
ATOM      1  O   UNL d   1      34.046 -18.985   0.534  0.00  0.00    -0.267 OA
ATOM      2  C   UNL d   1      32.833 -19.094   0.690  0.00  0.00     0.256 C 
ATOM      3  N   UNL d   1      32.228 -19.788   1.740  0.00  0.00    -0.323 N 
ATOM      4  H   UNL d   1      31.247 -20.027   1.662  0.00  0.00     0.169 HD
ENDROOT
BRANCH   3   5
ATOM      5  C   UNL d   1      32.944 -20.299   2.854  0.00  0.00     0.037 A 
ATOM      6  C   UNL d   1      34.282 -20.672   2.770  0.00  0.00     0.032 A 
ATOM      7  C   UNL d   1      34.929 -21.293   3.871  0.00  0.00     0.034 A 
ATOM      8  C   UNL d   1      34.279 -21.568   5.105  0.00  0.00     0.063 A 
ATOM      9  C   UNL d   1      32.905 -21.203   5.134  0.00  0.00     0.131 A 
ATOM     10  C   UNL d   1      32.282 -20.547   4.045  0.00  0.00     0.068 A 
BRANCH   8  11
ATOM     11  N   UNL d   1      35.047 -22.126   6.128  0.00  0.00    -0.376 N 
ATOM     12  C   UNL d   1      35.155 -23.578   6.392  0.00  0.00     0.150 C 
ATOM     13  C   UNL d   1      34.638 -23.962   7.813  0.00  0.00     0.252 C 
ATOM     14  N   UNL d   1      35.267 -23.090   8.862  0.00  0.00    -0.072 N 
ATOM     15  C   UNL d   1      35.080 -21.617   8.556  0.00  0.00     0.252 C 
ATOM     16  H   UNL d   1      36.258 -23.331   8.962  0.00  0.00     0.277 HD
ATOM     17  H   UNL d   1      34.807 -23.306   9.758  0.00  0.00     0.277 HD
ATOM     18  C   UNL d   1      35.659 -21.263   7.163  0.00  0.00     0.150 C 
ENDBRANCH   8  11
BRANCH   9  19
ATOM     19  N   UNL d   1      31.970 -21.480   6.233  0.00  0.00    -0.113 N 
ATOM     20  O   UNL d   1      30.780 -21.200   6.086  0.00  0.00    -0.532 OA
ATOM     21  O   UNL d   1      32.398 -21.945   7.290  0.00  0.00    -0.532 OA
ENDBRANCH   9  19
ENDBRANCH   3   5
BRANCH   2  22
ATOM     22  C   UNL d   1      31.940 -18.528  -0.365  0.00  0.00     0.034 A 
ATOM     23  C   UNL d   1      31.110 -17.440  -0.129  0.00  0.00     0.019 A 
ATOM     24  C   UNL d   1      30.299 -16.936  -1.170  0.00  0.00     0.033 A 
ATOM     25  C   UNL d   1      30.304 -17.447  -2.495  0.00  0.00     0.063 A 
ATOM     26  C   UNL d   1      31.171 -18.552  -2.709  0.00  0.00     0.130 A 
ATOM     27  C   UNL d   1      31.984 -19.064  -1.654  0.00  0.00     0.055 A 
BRANCH  25  28
ATOM     28  N   UNL d   1      29.458 -16.837  -3.398  0.00  0.00    -0.379 N 
ATOM     29  C   UNL d   1      29.658 -16.793  -4.842  0.00  0.00     0.123 C 
ATOM     30  C   UNL d   1      29.285 -15.359  -5.204  0.00  0.00     0.021 C 
ATOM     31  C   UNL d   1      28.086 -15.098  -4.306  0.00  0.00     0.021 C 
ATOM     32  C   UNL d   1      28.372 -15.910  -3.024  0.00  0.00     0.123 C 
ENDBRANCH  25  28
BRANCH  26  33
ATOM     33  N   UNL d   1      31.338 -19.246  -4.009  0.00  0.00    -0.113 N 
ATOM     34  O   UNL d   1      30.765 -20.316  -4.224  0.00  0.00    -0.532 OA
ATOM     35  O   UNL d   1      32.069 -18.703  -4.852  0.00  0.00    -0.532 OA
ENDBRANCH  26  33
ENDBRANCH   2  22
TORSDOF 6
ENDMDL
