MODEL 1
REMARK VINA RESULT:    -9.451      0.000      0.000
REMARK INTER + INTRA:         -16.359
REMARK INTER:                 -12.732
REMARK INTRA:                  -3.627
REMARK CONF_INDEPENDENT:        3.281
REMARK UNBOUND:                -3.627
REMARK  11 active torsions:
REMARK  status: ('A' for Active; 'I' for Inactive)
REMARK    1  A    between atoms: O_2  and  C_3 
REMARK    2  A    between atoms: C_6  and  C_7 
REMARK    3  A    between atoms: C_7  and  C_8 
REMARK    4  A    between atoms: C_8  and  N_9 
REMARK       I    between atoms: N_9  and  C_10 
REMARK    5  A    between atoms: C_10  and  C_12 
REMARK    6  A    between atoms: C_12  and  S_13 
REMARK    7  A    between atoms: S_13  and  C_14 
REMARK    8  A    between atoms: C_17  and  C_18 
REMARK    9  A    between atoms: C_18  and  N_19 
REMARK   10  A    between atoms: N_25  and  C_26 
REMARK   11  A    between atoms: C_33  and  O_34 
ROOT
ATOM      1  C   UNL d   1      26.265 -14.335  -2.027  0.00  0.00     0.196 A 
ATOM      2  N   UNL d   1      27.257 -13.485  -1.909  0.00  0.00    -0.122 NA
ATOM      3  N   UNL d   1      27.991 -13.831  -0.810  0.00  0.00    -0.132 NA
ATOM      4  C   UNL d   1      27.458 -14.912  -0.249  0.00  0.00     0.161 A 
ATOM      5  N   UNL d   1      26.201 -15.276  -1.010  0.00  0.00    -0.274 N 
ENDROOT
BRANCH   1   6
ATOM      6  S   UNL d   1      24.866 -14.328  -2.995  0.00  0.00    -0.081 SA
BRANCH   6   7
ATOM      7  C   UNL d   1      25.156 -13.818  -4.645  0.00  0.00     0.185 C 
BRANCH   7   8
ATOM      8  C   UNL d   1      26.487 -14.498  -5.073  0.00  0.00     0.227 C 
ATOM      9  N   UNL d   1      27.600 -13.819  -4.564  0.00  0.00    -0.360 N 
ATOM     10  H   UNL d   1      27.493 -12.996  -4.002  0.00  0.00     0.162 HD
ATOM     11  O   UNL d   1      26.582 -15.472  -5.737  0.00  0.00    -0.273 OA
BRANCH   9  12
ATOM     12  C   UNL d   1      28.915 -14.315  -4.901  0.00  0.00     0.127 C 
BRANCH  12  13
ATOM     13  C   UNL d   1      29.285 -15.626  -4.194  0.00  0.00     0.058 C 
BRANCH  13  14
ATOM     14  C   UNL d   1      29.913 -16.655  -5.110  0.00  0.00    -0.054 A 
ATOM     15  C   UNL d   1      30.353 -16.308  -6.384  0.00  0.00     0.010 A 
ATOM     16  C   UNL d   1      30.813 -17.302  -7.271  0.00  0.00     0.040 A 
ATOM     17  C   UNL d   1      30.945 -18.659  -6.889  0.00  0.00     0.101 A 
ATOM     18  C   UNL d   1      30.530 -18.999  -5.591  0.00  0.00     0.102 A 
ATOM     19  C   UNL d   1      30.030 -17.997  -4.741  0.00  0.00     0.046 A 
BRANCH  17  20
ATOM     20  O   UNL d   1      31.723 -19.380  -7.768  0.00  0.00    -0.353 OA
ATOM     21  C   UNL d   1      31.195 -20.111  -8.871  0.00  0.00     0.210 C 
ENDBRANCH  17  20
BRANCH  18  22
ATOM     22  O   UNL d   1      30.536 -20.176  -4.881  0.00  0.00    -0.353 OA
ATOM     23  C   UNL d   1      31.464 -20.225  -3.844  0.00  0.00     0.210 C 
ENDBRANCH  18  22
ENDBRANCH  13  14
ENDBRANCH  12  13
ENDBRANCH   9  12
ENDBRANCH   7   8
ENDBRANCH   6   7
ENDBRANCH   1   6
BRANCH   5  24
ATOM     24  C   UNL d   1      25.005 -16.446  -1.100  0.00  0.00     0.043 C 
ATOM     25  C   UNL d   1      23.491 -16.189  -1.116  0.00  0.00     0.030 C 
ATOM     26  C   UNL d   1      22.431 -17.232  -0.520  0.00  0.00     0.002 C 
ATOM     27  C   UNL d   1      22.901 -18.581  -0.015  0.00  0.00     0.000 C 
ATOM     28  C   UNL d   1      24.386 -18.858  -0.146  0.00  0.00     0.002 C 
ATOM     29  C   UNL d   1      25.398 -17.825  -0.696  0.00  0.00     0.030 C 
ENDBRANCH   5  24
BRANCH   4  30
ATOM     30  C   UNL d   1      28.201 -15.491   0.978  0.00  0.00     0.315 C 
BRANCH  30  31
ATOM     31  N   UNL d   1      29.344 -16.304   0.605  0.00  0.00    -0.064 N 
ATOM     32  C   UNL d   1      28.756 -17.228  -0.472  0.00  0.00     0.235 C 
ATOM     33  C   UNL d   1      29.919 -17.825  -1.157  0.00  0.00     0.028 C 
ATOM     34  C   UNL d   1      30.843 -16.679  -1.287  0.00  0.00     0.003 C 
ATOM     35  C   UNL d   1      31.665 -16.007  -0.309  0.00  0.00     0.028 C 
ATOM     36  C   UNL d   1      30.573 -15.312   0.447  0.00  0.00     0.235 C 
ATOM     37  H   UNL d   1      29.687 -16.975   1.293  0.00  0.00     0.280 HD
ENDBRANCH  30  31
ENDBRANCH   4  30
TORSDOF 11
ENDMDL
MODEL 2
REMARK VINA RESULT:    -9.076      0.784      1.542
REMARK INTER + INTRA:         -15.678
REMARK INTER:                 -12.357
REMARK INTRA:                  -3.321
REMARK CONF_INDEPENDENT:        3.281
REMARK UNBOUND:                -3.321
REMARK  11 active torsions:
REMARK  status: ('A' for Active; 'I' for Inactive)
REMARK    1  A    between atoms: O_2  and  C_3 
REMARK    2  A    between atoms: C_6  and  C_7 
REMARK    3  A    between atoms: C_7  and  C_8 
REMARK    4  A    between atoms: C_8  and  N_9 
REMARK       I    between atoms: N_9  and  C_10 
REMARK    5  A    between atoms: C_10  and  C_12 
REMARK    6  A    between atoms: C_12  and  S_13 
REMARK    7  A    between atoms: S_13  and  C_14 
REMARK    8  A    between atoms: C_17  and  C_18 
REMARK    9  A    between atoms: C_18  and  N_19 
REMARK   10  A    between atoms: N_25  and  C_26 
REMARK   11  A    between atoms: C_33  and  O_34 
ROOT
ATOM      1  C   UNL d   1      26.192 -13.965  -1.959  0.00  0.00     0.196 A 
ATOM      2  N   UNL d   1      27.134 -13.068  -1.792  0.00  0.00    -0.122 NA
ATOM      3  N   UNL d   1      27.874 -13.420  -0.699  0.00  0.00    -0.132 NA
ATOM      4  C   UNL d   1      27.395 -14.551  -0.190  0.00  0.00     0.161 A 
ATOM      5  N   UNL d   1      26.168 -14.950  -0.982  0.00  0.00    -0.274 N 
ENDROOT
BRANCH   1   6
ATOM      6  S   UNL d   1      24.805 -13.993  -2.944  0.00  0.00    -0.081 SA
BRANCH   6   7
ATOM      7  C   UNL d   1      25.156 -13.864  -4.654  0.00  0.00     0.185 C 
BRANCH   7   8
ATOM      8  C   UNL d   1      26.550 -14.522  -4.853  0.00  0.00     0.227 C 
ATOM      9  N   UNL d   1      27.579 -13.711  -4.360  0.00  0.00    -0.360 N 
ATOM     10  H   UNL d   1      27.383 -12.820  -3.945  0.00  0.00     0.162 HD
ATOM     11  O   UNL d   1      26.751 -15.579  -5.347  0.00  0.00    -0.273 OA
BRANCH   9  12
ATOM     12  C   UNL d   1      28.941 -14.175  -4.500  0.00  0.00     0.127 C 
BRANCH  12  13
ATOM     13  C   UNL d   1      29.285 -14.678  -5.909  0.00  0.00     0.058 C 
BRANCH  13  14
ATOM     14  C   UNL d   1      29.820 -16.094  -5.935  0.00  0.00    -0.054 A 
ATOM     15  C   UNL d   1      29.782 -16.897  -4.799  0.00  0.00     0.010 A 
ATOM     16  C   UNL d   1      30.402 -18.163  -4.804  0.00  0.00     0.040 A 
ATOM     17  C   UNL d   1      30.992 -18.715  -5.966  0.00  0.00     0.101 A 
ATOM     18  C   UNL d   1      30.999 -17.914  -7.120  0.00  0.00     0.102 A 
ATOM     19  C   UNL d   1      30.416 -16.635  -7.076  0.00  0.00     0.046 A 
BRANCH  17  20
ATOM     20  O   UNL d   1      31.220 -20.069  -5.848  0.00  0.00    -0.353 OA
ATOM     21  C   UNL d   1      31.263 -20.960  -6.957  0.00  0.00     0.210 C 
ENDBRANCH  17  20
BRANCH  18  22
ATOM     22  O   UNL d   1      31.444 -18.121  -8.404  0.00  0.00    -0.353 OA
ATOM     23  C   UNL d   1      32.811 -18.360  -8.514  0.00  0.00     0.210 C 
ENDBRANCH  18  22
ENDBRANCH  13  14
ENDBRANCH  12  13
ENDBRANCH   9  12
ENDBRANCH   7   8
ENDBRANCH   6   7
ENDBRANCH   1   6
BRANCH   5  24
ATOM     24  C   UNL d   1      25.039 -16.179  -1.136  0.00  0.00     0.043 C 
ATOM     25  C   UNL d   1      23.514 -16.004  -1.161  0.00  0.00     0.030 C 
ATOM     26  C   UNL d   1      22.506 -17.128  -0.624  0.00  0.00     0.002 C 
ATOM     27  C   UNL d   1      23.044 -18.469  -0.169  0.00  0.00     0.000 C 
ATOM     28  C   UNL d   1      24.543 -18.659  -0.292  0.00  0.00     0.002 C 
ATOM     29  C   UNL d   1      25.503 -17.551  -0.785  0.00  0.00     0.030 C 
ENDBRANCH   5  24
BRANCH   4  30
ATOM     30  C   UNL d   1      28.156 -15.140   1.022  0.00  0.00     0.315 C 
BRANCH  30  31
ATOM     31  N   UNL d   1      29.245 -16.012   0.625  0.00  0.00    -0.064 N 
ATOM     32  C   UNL d   1      28.527 -17.079  -0.215  0.00  0.00     0.235 C 
ATOM     33  C   UNL d   1      29.594 -17.785  -0.952  0.00  0.00     0.028 C 
ATOM     34  C   UNL d   1      30.482 -16.681  -1.373  0.00  0.00     0.003 C 
ATOM     35  C   UNL d   1      31.422 -15.880  -0.623  0.00  0.00     0.028 C 
ATOM     36  C   UNL d   1      30.434 -15.069   0.159  0.00  0.00     0.235 C 
ATOM     37  H   UNL d   1      29.682 -16.578   1.353  0.00  0.00     0.280 HD
ENDBRANCH  30  31
ENDBRANCH   4  30
TORSDOF 11
ENDMDL
MODEL 3
REMARK VINA RESULT:    -8.950      2.136      3.477
REMARK INTER + INTRA:         -15.614
REMARK INTER:                 -12.232
REMARK INTRA:                  -3.382
REMARK CONF_INDEPENDENT:        3.281
REMARK UNBOUND:                -3.382
REMARK  11 active torsions:
REMARK  status: ('A' for Active; 'I' for Inactive)
REMARK    1  A    between atoms: O_2  and  C_3 
REMARK    2  A    between atoms: C_6  and  C_7 
REMARK    3  A    between atoms: C_7  and  C_8 
REMARK    4  A    between atoms: C_8  and  N_9 
REMARK       I    between atoms: N_9  and  C_10 
REMARK    5  A    between atoms: C_10  and  C_12 
REMARK    6  A    between atoms: C_12  and  S_13 
REMARK    7  A    between atoms: S_13  and  C_14 
REMARK    8  A    between atoms: C_17  and  C_18 
REMARK    9  A    between atoms: C_18  and  N_19 
REMARK   10  A    between atoms: N_25  and  C_26 
REMARK   11  A    between atoms: C_33  and  O_34 
ROOT
ATOM      1  C   UNL d   1      28.978 -15.442  -1.382  0.00  0.00     0.196 A 
ATOM      2  N   UNL d   1      30.060 -14.728  -1.582  0.00  0.00    -0.122 NA
ATOM      3  N   UNL d   1      30.307 -13.996  -0.455  0.00  0.00    -0.132 NA
ATOM      4  C   UNL d   1      29.377 -14.267   0.457  0.00  0.00     0.161 A 
ATOM      5  N   UNL d   1      28.371 -15.219  -0.155  0.00  0.00    -0.274 N 
ENDROOT
BRANCH   1   6
ATOM      6  S   UNL d   1      27.997 -16.347  -2.438  0.00  0.00    -0.081 SA
BRANCH   6   7
ATOM      7  C   UNL d   1      26.878 -15.371  -3.366  0.00  0.00     0.185 C 
BRANCH   7   8
ATOM      8  C   UNL d   1      27.570 -15.115  -4.734  0.00  0.00     0.227 C 
ATOM      9  N   UNL d   1      28.916 -14.766  -4.574  0.00  0.00    -0.360 N 
ATOM     10  H   UNL d   1      29.330 -14.699  -3.664  0.00  0.00     0.162 HD
ATOM     11  O   UNL d   1      27.055 -15.204  -5.795  0.00  0.00    -0.273 OA
BRANCH   9  12
ATOM     12  C   UNL d   1      29.689 -14.468  -5.758  0.00  0.00     0.127 C 
BRANCH  12  13
ATOM     13  C   UNL d   1      30.979 -15.290  -5.883  0.00  0.00     0.058 C 
BRANCH  13  14
ATOM     14  C   UNL d   1      30.789 -16.766  -5.602  0.00  0.00    -0.054 A 
ATOM     15  C   UNL d   1      30.788 -17.255  -4.299  0.00  0.00     0.010 A 
ATOM     16  C   UNL d   1      30.741 -18.643  -4.062  0.00  0.00     0.040 A 
ATOM     17  C   UNL d   1      30.593 -19.587  -5.106  0.00  0.00     0.101 A 
ATOM     18  C   UNL d   1      30.562 -19.087  -6.419  0.00  0.00     0.102 A 
ATOM     19  C   UNL d   1      30.658 -17.701  -6.631  0.00  0.00     0.046 A 
BRANCH  17  20
ATOM     20  O   UNL d   1      30.225 -20.831  -4.642  0.00  0.00    -0.353 OA
ATOM     21  C   UNL d   1      31.157 -21.856  -4.310  0.00  0.00     0.210 C 
ENDBRANCH  17  20
BRANCH  18  22
ATOM     22  O   UNL d   1      30.405 -19.684  -7.647  0.00  0.00    -0.353 OA
ATOM     23  C   UNL d   1      31.448 -19.455  -8.542  0.00  0.00     0.210 C 
ENDBRANCH  18  22
ENDBRANCH  13  14
ENDBRANCH  12  13
ENDBRANCH   9  12
ENDBRANCH   7   8
ENDBRANCH   6   7
ENDBRANCH   1   6
BRANCH   5  24
ATOM     24  C   UNL d   1      27.014 -16.127   0.224  0.00  0.00     0.043 C 
ATOM     25  C   UNL d   1      26.998 -17.622   0.575  0.00  0.00     0.030 C 
ATOM     26  C   UNL d   1      25.750 -18.573   0.252  0.00  0.00     0.002 C 
ATOM     27  C   UNL d   1      24.479 -17.981  -0.322  0.00  0.00     0.000 C 
ATOM     28  C   UNL d   1      24.478 -16.478  -0.522  0.00  0.00     0.002 C 
ATOM     29  C   UNL d   1      25.705 -15.581  -0.233  0.00  0.00     0.030 C 
ENDBRANCH   5  24
BRANCH   4  30
ATOM     30  C   UNL d   1      29.534 -13.575   1.831  0.00  0.00     0.315 C 
BRANCH  30  31
ATOM     31  N   UNL d   1      29.153 -14.437   2.935  0.00  0.00    -0.064 N 
ATOM     32  C   UNL d   1      30.424 -14.454   3.797  0.00  0.00     0.235 C 
ATOM     33  C   UNL d   1      30.007 -14.997   5.104  0.00  0.00     0.028 C 
ATOM     34  C   UNL d   1      28.710 -14.328   5.335  0.00  0.00     0.003 C 
ATOM     35  C   UNL d   1      27.411 -14.545   4.742  0.00  0.00     0.028 C 
ATOM     36  C   UNL d   1      27.699 -13.983   3.383  0.00  0.00     0.235 C 
ATOM     37  H   UNL d   1      29.024 -15.429   2.733  0.00  0.00     0.280 HD
ENDBRANCH  30  31
ENDBRANCH   4  30
TORSDOF 11
ENDMDL
MODEL 4
REMARK VINA RESULT:    -8.550      3.127      6.086
REMARK INTER + INTRA:         -15.582
REMARK INTER:                 -11.832
REMARK INTRA:                  -3.750
REMARK CONF_INDEPENDENT:        3.281
REMARK UNBOUND:                -3.750
REMARK  11 active torsions:
REMARK  status: ('A' for Active; 'I' for Inactive)
REMARK    1  A    between atoms: O_2  and  C_3 
REMARK    2  A    between atoms: C_6  and  C_7 
REMARK    3  A    between atoms: C_7  and  C_8 
REMARK    4  A    between atoms: C_8  and  N_9 
REMARK       I    between atoms: N_9  and  C_10 
REMARK    5  A    between atoms: C_10  and  C_12 
REMARK    6  A    between atoms: C_12  and  S_13 
REMARK    7  A    between atoms: S_13  and  C_14 
REMARK    8  A    between atoms: C_17  and  C_18 
REMARK    9  A    between atoms: C_18  and  N_19 
REMARK   10  A    between atoms: N_25  and  C_26 
REMARK   11  A    between atoms: C_33  and  O_34 
ROOT
ATOM      1  C   UNL d   1      28.878 -16.052  -0.913  0.00  0.00     0.196 A 
ATOM      2  N   UNL d   1      29.944 -15.471  -0.418  0.00  0.00    -0.122 NA
ATOM      3  N   UNL d   1      29.607 -14.902   0.779  0.00  0.00    -0.132 NA
ATOM      4  C   UNL d   1      28.324 -15.143   1.033  0.00  0.00     0.161 A 
ATOM      5  N   UNL d   1      27.733 -15.882  -0.149  0.00  0.00    -0.274 N 
ENDROOT
BRANCH   1   6
ATOM      6  S   UNL d   1      28.543 -16.700  -2.450  0.00  0.00    -0.081 SA
BRANCH   6   7
ATOM      7  C   UNL d   1      29.178 -15.742  -3.771  0.00  0.00     0.185 C 
BRANCH   7   8
ATOM      8  C   UNL d   1      27.954 -15.367  -4.652  0.00  0.00     0.227 C 
ATOM      9  N   UNL d   1      26.789 -15.230  -3.886  0.00  0.00    -0.360 N 
ATOM     10  H   UNL d   1      26.800 -15.375  -2.895  0.00  0.00     0.162 HD
ATOM     11  O   UNL d   1      27.971 -15.200  -5.823  0.00  0.00    -0.273 OA
BRANCH   9  12
ATOM     12  C   UNL d   1      25.556 -14.911  -4.570  0.00  0.00     0.127 C 
BRANCH  12  13
ATOM     13  C   UNL d   1      24.771 -13.758  -3.930  0.00  0.00     0.058 C 
BRANCH  13  14
ATOM     14  C   UNL d   1      25.651 -12.703  -3.293  0.00  0.00    -0.054 A 
ATOM     15  C   UNL d   1      25.903 -11.495  -3.937  0.00  0.00     0.010 A 
ATOM     16  C   UNL d   1      26.827 -10.580  -3.392  0.00  0.00     0.040 A 
ATOM     17  C   UNL d   1      27.455 -10.789  -2.141  0.00  0.00     0.101 A 
ATOM     18  C   UNL d   1      27.172 -11.996  -1.479  0.00  0.00     0.102 A 
ATOM     19  C   UNL d   1      26.283 -12.913  -2.067  0.00  0.00     0.046 A 
BRANCH  17  20
ATOM     20  O   UNL d   1      28.033  -9.642  -1.644  0.00  0.00    -0.353 OA
ATOM     21  C   UNL d   1      27.319  -8.427  -1.435  0.00  0.00     0.210 C 
ENDBRANCH  17  20
BRANCH  18  22
ATOM     22  O   UNL d   1      27.563 -12.516  -0.268  0.00  0.00    -0.353 OA
ATOM     23  C   UNL d   1      27.031 -11.866   0.843  0.00  0.00     0.210 C 
ENDBRANCH  18  22
ENDBRANCH  13  14
ENDBRANCH  12  13
ENDBRANCH   9  12
ENDBRANCH   7   8
ENDBRANCH   6   7
ENDBRANCH   1   6
BRANCH   5  24
ATOM     24  C   UNL d   1      26.328 -16.637  -0.664  0.00  0.00     0.043 C 
ATOM     25  C   UNL d   1      25.101 -15.941  -1.270  0.00  0.00     0.030 C 
ATOM     26  C   UNL d   1      23.613 -16.512  -1.105  0.00  0.00     0.002 C 
ATOM     27  C   UNL d   1      23.389 -17.846  -0.423  0.00  0.00     0.000 C 
ATOM     28  C   UNL d   1      24.637 -18.575   0.037  0.00  0.00     0.002 C 
ATOM     29  C   UNL d   1      26.062 -17.992  -0.105  0.00  0.00     0.030 C 
ENDBRANCH   5  24
BRANCH   4  30
ATOM     30  C   UNL d   1      27.780 -14.628   2.386  0.00  0.00     0.315 C 
BRANCH  30  31
ATOM     31  N   UNL d   1      28.795 -14.605   3.422  0.00  0.00    -0.064 N 
ATOM     32  C   UNL d   1      29.425 -13.216   3.240  0.00  0.00     0.235 C 
ATOM     33  C   UNL d   1      30.202 -12.970   4.471  0.00  0.00     0.028 C 
ATOM     34  C   UNL d   1      29.303 -13.477   5.529  0.00  0.00     0.003 C 
ATOM     35  C   UNL d   1      28.962 -14.825   5.920  0.00  0.00     0.028 C 
ATOM     36  C   UNL d   1      28.116 -15.183   4.736  0.00  0.00     0.235 C 
ATOM     37  H   UNL d   1      29.603 -15.218   3.302  0.00  0.00     0.280 HD
ENDBRANCH  30  31
ENDBRANCH   4  30
TORSDOF 11
ENDMDL
MODEL 5
REMARK VINA RESULT:    -8.525      2.615      5.421
REMARK INTER + INTRA:         -15.382
REMARK INTER:                 -11.806
REMARK INTRA:                  -3.576
REMARK CONF_INDEPENDENT:        3.281
REMARK UNBOUND:                -3.576
REMARK  11 active torsions:
REMARK  status: ('A' for Active; 'I' for Inactive)
REMARK    1  A    between atoms: O_2  and  C_3 
REMARK    2  A    between atoms: C_6  and  C_7 
REMARK    3  A    between atoms: C_7  and  C_8 
REMARK    4  A    between atoms: C_8  and  N_9 
REMARK       I    between atoms: N_9  and  C_10 
REMARK    5  A    between atoms: C_10  and  C_12 
REMARK    6  A    between atoms: C_12  and  S_13 
REMARK    7  A    between atoms: S_13  and  C_14 
REMARK    8  A    between atoms: C_17  and  C_18 
REMARK    9  A    between atoms: C_18  and  N_19 
REMARK   10  A    between atoms: N_25  and  C_26 
REMARK   11  A    between atoms: C_33  and  O_34 
ROOT
ATOM      1  C   UNL d   1      29.399 -16.245  -0.712  0.00  0.00     0.196 A 
ATOM      2  N   UNL d   1      30.406 -15.588  -0.186  0.00  0.00    -0.122 NA
ATOM      3  N   UNL d   1      29.952 -14.914   0.913  0.00  0.00    -0.132 NA
ATOM      4  C   UNL d   1      28.657 -15.164   1.077  0.00  0.00     0.161 A 
ATOM      5  N   UNL d   1      28.187 -16.033  -0.071  0.00  0.00    -0.274 N 
ENDROOT
BRANCH   1   6
ATOM      6  S   UNL d   1      29.215 -17.051  -2.199  0.00  0.00    -0.081 SA
BRANCH   6   7
ATOM      7  C   UNL d   1      30.655 -17.903  -2.718  0.00  0.00     0.185 C 
BRANCH   7   8
ATOM      8  C   UNL d   1      31.115 -17.201  -4.027  0.00  0.00     0.227 C 
ATOM      9  N   UNL d   1      30.058 -17.052  -4.933  0.00  0.00    -0.360 N 
ATOM     10  H   UNL d   1      29.137 -17.382  -4.713  0.00  0.00     0.162 HD
ATOM     11  O   UNL d   1      32.211 -16.820  -4.257  0.00  0.00    -0.273 OA
BRANCH   9  12
ATOM     12  C   UNL d   1      30.336 -16.442  -6.212  0.00  0.00     0.127 C 
BRANCH  12  13
ATOM     13  C   UNL d   1      29.394 -15.282  -6.566  0.00  0.00     0.058 C 
BRANCH  13  14
ATOM     14  C   UNL d   1      28.622 -14.743  -5.381  0.00  0.00    -0.054 A 
ATOM     15  C   UNL d   1      29.279 -14.184  -4.289  0.00  0.00     0.010 A 
ATOM     16  C   UNL d   1      28.555 -13.808  -3.141  0.00  0.00     0.040 A 
ATOM     17  C   UNL d   1      27.142 -13.880  -3.077  0.00  0.00     0.101 A 
ATOM     18  C   UNL d   1      26.480 -14.415  -4.194  0.00  0.00     0.102 A 
ATOM     19  C   UNL d   1      27.230 -14.827  -5.309  0.00  0.00     0.046 A 
BRANCH  17  20
ATOM     20  O   UNL d   1      26.626 -13.153  -2.027  0.00  0.00    -0.353 OA
ATOM     21  C   UNL d   1      27.334 -12.106  -1.370  0.00  0.00     0.210 C 
ENDBRANCH  17  20
BRANCH  18  22
ATOM     22  O   UNL d   1      25.152 -14.608  -4.495  0.00  0.00    -0.353 OA
ATOM     23  C   UNL d   1      24.283 -13.700  -3.895  0.00  0.00     0.210 C 
ENDBRANCH  18  22
ENDBRANCH  13  14
ENDBRANCH  12  13
ENDBRANCH   9  12
ENDBRANCH   7   8
ENDBRANCH   6   7
ENDBRANCH   1   6
BRANCH   5  24
ATOM     24  C   UNL d   1      26.849 -16.874  -0.628  0.00  0.00     0.043 C 
ATOM     25  C   UNL d   1      25.862 -16.390  -1.700  0.00  0.00     0.030 C 
ATOM     26  C   UNL d   1      24.319 -16.822  -1.713  0.00  0.00     0.002 C 
ATOM     27  C   UNL d   1      23.811 -17.833  -0.706  0.00  0.00     0.000 C 
ATOM     28  C   UNL d   1      24.845 -18.399   0.247  0.00  0.00     0.002 C 
ATOM     29  C   UNL d   1      26.324 -17.946   0.264  0.00  0.00     0.030 C 
ENDBRANCH   5  24
BRANCH   4  30
ATOM     30  C   UNL d   1      27.984 -14.534   2.319  0.00  0.00     0.315 C 
BRANCH  30  31
ATOM     31  N   UNL d   1      28.808 -14.631   3.509  0.00  0.00    -0.064 N 
ATOM     32  C   UNL d   1      29.646 -13.346   3.439  0.00  0.00     0.235 C 
ATOM     33  C   UNL d   1      30.237 -13.186   4.782  0.00  0.00     0.028 C 
ATOM     34  C   UNL d   1      29.115 -13.543   5.675  0.00  0.00     0.003 C 
ATOM     35  C   UNL d   1      28.531 -14.824   5.999  0.00  0.00     0.028 C 
ATOM     36  C   UNL d   1      27.849 -15.085   4.690  0.00  0.00     0.235 C 
ATOM     37  H   UNL d   1      29.532 -15.352   3.521  0.00  0.00     0.280 HD
ENDBRANCH  30  31
ENDBRANCH   4  30
TORSDOF 11
ENDMDL
MODEL 6
REMARK VINA RESULT:    -8.387      2.626      5.078
REMARK INTER + INTRA:         -15.876
REMARK INTER:                 -11.668
REMARK INTRA:                  -4.208
REMARK CONF_INDEPENDENT:        3.281
REMARK UNBOUND:                -4.208
REMARK  11 active torsions:
REMARK  status: ('A' for Active; 'I' for Inactive)
REMARK    1  A    between atoms: O_2  and  C_3 
REMARK    2  A    between atoms: C_6  and  C_7 
REMARK    3  A    between atoms: C_7  and  C_8 
REMARK    4  A    between atoms: C_8  and  N_9 
REMARK       I    between atoms: N_9  and  C_10 
REMARK    5  A    between atoms: C_10  and  C_12 
REMARK    6  A    between atoms: C_12  and  S_13 
REMARK    7  A    between atoms: S_13  and  C_14 
REMARK    8  A    between atoms: C_17  and  C_18 
REMARK    9  A    between atoms: C_18  and  N_19 
REMARK   10  A    between atoms: N_25  and  C_26 
REMARK   11  A    between atoms: C_33  and  O_34 
ROOT
ATOM      1  C   UNL d   1      29.059 -16.084  -0.654  0.00  0.00     0.196 A 
ATOM      2  N   UNL d   1      30.098 -15.482  -0.128  0.00  0.00    -0.122 NA
ATOM      3  N   UNL d   1      29.697 -14.852   1.017  0.00  0.00    -0.132 NA
ATOM      4  C   UNL d   1      28.400 -15.075   1.208  0.00  0.00     0.161 A 
ATOM      5  N   UNL d   1      27.872 -15.871   0.034  0.00  0.00    -0.274 N 
ENDROOT
BRANCH   1   6
ATOM      6  S   UNL d   1      28.808 -16.809  -2.173  0.00  0.00    -0.081 SA
BRANCH   6   7
ATOM      7  C   UNL d   1      30.291 -17.254  -2.991  0.00  0.00     0.185 C 
BRANCH   7   8
ATOM      8  C   UNL d   1      30.819 -15.951  -3.653  0.00  0.00     0.227 C 
ATOM      9  N   UNL d   1      31.029 -14.939  -2.707  0.00  0.00    -0.360 N 
ATOM     10  H   UNL d   1      30.838 -15.091  -1.736  0.00  0.00     0.162 HD
ATOM     11  O   UNL d   1      31.037 -15.801  -4.806  0.00  0.00    -0.273 OA
BRANCH   9  12
ATOM     12  C   UNL d   1      31.493 -13.653  -3.175  0.00  0.00     0.127 C 
BRANCH  12  13
ATOM     13  C   UNL d   1      30.382 -12.604  -3.315  0.00  0.00     0.058 C 
BRANCH  13  14
ATOM     14  C   UNL d   1      29.018 -13.197  -3.598  0.00  0.00    -0.054 A 
ATOM     15  C   UNL d   1      27.986 -13.101  -2.668  0.00  0.00     0.010 A 
ATOM     16  C   UNL d   1      26.766 -13.771  -2.890  0.00  0.00     0.040 A 
ATOM     17  C   UNL d   1      26.493 -14.475  -4.087  0.00  0.00     0.101 A 
ATOM     18  C   UNL d   1      27.526 -14.542  -5.037  0.00  0.00     0.102 A 
ATOM     19  C   UNL d   1      28.751 -13.906  -4.771  0.00  0.00     0.046 A 
BRANCH  17  20
ATOM     20  O   UNL d   1      25.152 -14.748  -4.242  0.00  0.00    -0.353 OA
ATOM     21  C   UNL d   1      24.122 -14.073  -3.527  0.00  0.00     0.210 C 
ENDBRANCH  17  20
BRANCH  18  22
ATOM     22  O   UNL d   1      27.613 -15.097  -6.292  0.00  0.00    -0.353 OA
ATOM     23  C   UNL d   1      28.907 -15.195  -6.796  0.00  0.00     0.210 C 
ENDBRANCH  18  22
ENDBRANCH  13  14
ENDBRANCH  12  13
ENDBRANCH   9  12
ENDBRANCH   7   8
ENDBRANCH   6   7
ENDBRANCH   1   6
BRANCH   5  24
ATOM     24  C   UNL d   1      26.495 -16.646  -0.524  0.00  0.00     0.043 C 
ATOM     25  C   UNL d   1      25.295 -15.973  -1.205  0.00  0.00     0.030 C 
ATOM     26  C   UNL d   1      23.802 -16.545  -1.091  0.00  0.00     0.002 C 
ATOM     27  C   UNL d   1      23.551 -17.860  -0.382  0.00  0.00     0.000 C 
ATOM     28  C   UNL d   1      24.778 -18.571   0.155  0.00  0.00     0.002 C 
ATOM     29  C   UNL d   1      26.208 -17.986   0.061  0.00  0.00     0.030 C 
ENDBRANCH   5  24
BRANCH   4  30
ATOM     30  C   UNL d   1      27.781 -14.489   2.500  0.00  0.00     0.315 C 
BRANCH  30  31
ATOM     31  N   UNL d   1      28.671 -14.597   3.641  0.00  0.00    -0.064 N 
ATOM     32  C   UNL d   1      29.496 -13.306   3.542  0.00  0.00     0.235 C 
ATOM     33  C   UNL d   1      30.160 -13.160   4.853  0.00  0.00     0.028 C 
ATOM     34  C   UNL d   1      29.091 -13.536   5.801  0.00  0.00     0.003 C 
ATOM     35  C   UNL d   1      28.531 -14.824   6.139  0.00  0.00     0.028 C 
ATOM     36  C   UNL d   1      27.780 -15.072   4.866  0.00  0.00     0.235 C 
ATOM     37  H   UNL d   1      29.397 -15.314   3.604  0.00  0.00     0.280 HD
ENDBRANCH  30  31
ENDBRANCH   4  30
TORSDOF 11
ENDMDL
MODEL 7
REMARK VINA RESULT:    -6.924      2.584      4.749
REMARK INTER + INTRA:         -15.749
REMARK INTER:                 -10.205
REMARK INTRA:                  -5.544
REMARK CONF_INDEPENDENT:        3.281
REMARK UNBOUND:                -5.544
REMARK  11 active torsions:
REMARK  status: ('A' for Active; 'I' for Inactive)
REMARK    1  A    between atoms: O_2  and  C_3 
REMARK    2  A    between atoms: C_6  and  C_7 
REMARK    3  A    between atoms: C_7  and  C_8 
REMARK    4  A    between atoms: C_8  and  N_9 
REMARK       I    between atoms: N_9  and  C_10 
REMARK    5  A    between atoms: C_10  and  C_12 
REMARK    6  A    between atoms: C_12  and  S_13 
REMARK    7  A    between atoms: S_13  and  C_14 
REMARK    8  A    between atoms: C_17  and  C_18 
REMARK    9  A    between atoms: C_18  and  N_19 
REMARK   10  A    between atoms: N_25  and  C_26 
REMARK   11  A    between atoms: C_33  and  O_34 
ROOT
ATOM      1  C   UNL d   1      26.073 -14.082  -1.831  0.00  0.00     0.196 A 
ATOM      2  N   UNL d   1      26.916 -13.106  -1.589  0.00  0.00    -0.122 NA
ATOM      3  N   UNL d   1      27.453 -13.300  -0.347  0.00  0.00    -0.132 NA
ATOM      4  C   UNL d   1      26.949 -14.412   0.180  0.00  0.00     0.161 A 
ATOM      5  N   UNL d   1      25.919 -14.971  -0.778  0.00  0.00    -0.274 N 
ENDROOT
BRANCH   1   6
ATOM      6  S   UNL d   1      24.903 -14.303  -3.046  0.00  0.00    -0.081 SA
BRANCH   6   7
ATOM      7  C   UNL d   1      25.451 -13.839  -4.642  0.00  0.00     0.185 C 
BRANCH   7   8
ATOM      8  C   UNL d   1      26.702 -14.714  -4.934  0.00  0.00     0.227 C 
ATOM      9  N   UNL d   1      27.776 -14.374  -4.102  0.00  0.00    -0.360 N 
ATOM     10  H   UNL d   1      27.694 -13.642  -3.423  0.00  0.00     0.162 HD
ATOM     11  O   UNL d   1      26.769 -15.575  -5.743  0.00  0.00    -0.273 OA
BRANCH   9  12
ATOM     12  C   UNL d   1      29.024 -15.082  -4.274  0.00  0.00     0.127 C 
BRANCH  12  13
ATOM     13  C   UNL d   1      29.135 -16.360  -3.430  0.00  0.00     0.058 C 
BRANCH  13  14
ATOM     14  C   UNL d   1      29.854 -16.158  -2.113  0.00  0.00    -0.054 A 
ATOM     15  C   UNL d   1      30.558 -17.197  -1.513  0.00  0.00     0.010 A 
ATOM     16  C   UNL d   1      31.110 -17.030  -0.227  0.00  0.00     0.040 A 
ATOM     17  C   UNL d   1      31.067 -15.796   0.464  0.00  0.00     0.101 A 
ATOM     18  C   UNL d   1      30.382 -14.739  -0.160  0.00  0.00     0.102 A 
ATOM     19  C   UNL d   1      29.800 -14.945  -1.423  0.00  0.00     0.046 A 
BRANCH  17  20
ATOM     20  O   UNL d   1      31.948 -15.754   1.522  0.00  0.00    -0.353 OA
ATOM     21  C   UNL d   1      32.578 -16.909   2.068  0.00  0.00     0.210 C 
ENDBRANCH  17  20
BRANCH  18  22
ATOM     22  O   UNL d   1      30.165 -13.427   0.186  0.00  0.00    -0.353 OA
ATOM     23  C   UNL d   1      30.637 -12.497  -0.736  0.00  0.00     0.210 C 
ENDBRANCH  18  22
ENDBRANCH  13  14
ENDBRANCH  12  13
ENDBRANCH   9  12
ENDBRANCH   7   8
ENDBRANCH   6   7
ENDBRANCH   1   6
BRANCH   5  24
ATOM     24  C   UNL d   1      24.909 -16.289  -1.008  0.00  0.00     0.043 C 
ATOM     25  C   UNL d   1      23.385 -16.237  -1.188  0.00  0.00     0.030 C 
ATOM     26  C   UNL d   1      22.417 -17.425  -0.721  0.00  0.00     0.002 C 
ATOM     27  C   UNL d   1      23.008 -18.709  -0.176  0.00  0.00     0.000 C 
ATOM     28  C   UNL d   1      24.523 -18.783  -0.145  0.00  0.00     0.002 C 
ATOM     29  C   UNL d   1      25.439 -17.612  -0.573  0.00  0.00     0.030 C 
ENDBRANCH   5  24
BRANCH   4  30
ATOM     30  C   UNL d   1      27.496 -14.829   1.566  0.00  0.00     0.315 C 
BRANCH  30  31
ATOM     31  N   UNL d   1      28.224 -13.759   2.222  0.00  0.00    -0.064 N 
ATOM     32  C   UNL d   1      27.093 -12.860   2.744  0.00  0.00     0.235 C 
ATOM     33  C   UNL d   1      27.727 -11.960   3.727  0.00  0.00     0.028 C 
ATOM     34  C   UNL d   1      28.637 -12.866   4.458  0.00  0.00     0.003 C 
ATOM     35  C   UNL d   1      29.897 -13.459   4.073  0.00  0.00     0.028 C 
ATOM     36  C   UNL d   1      29.371 -14.448   3.076  0.00  0.00     0.235 C 
ATOM     37  H   UNL d   1      28.746 -13.113   1.628  0.00  0.00     0.280 HD
ENDBRANCH  30  31
ENDBRANCH   4  30
TORSDOF 11
ENDMDL
