MODEL 1
REMARK VINA RESULT:    -6.924      0.000      0.000
REMARK INTER + INTRA:         -12.049
REMARK INTER:                  -9.310
REMARK INTRA:                  -2.739
REMARK CONF_INDEPENDENT:        2.386
REMARK UNBOUND:                -2.739
REMARK  8 active torsions:
REMARK  status: ('A' for Active; 'I' for Inactive)
REMARK    1  A    between atoms: C_6  and  N_7 
REMARK       I    between atoms: N_7  and  C_8 
REMARK    2  A    between atoms: C_8  and  C_10 
REMARK    3  A    between atoms: C_15  and  N_16 
REMARK       I    between atoms: N_16  and  C_17 
REMARK    4  A    between atoms: C_17  and  C_19 
REMARK    5  A    between atoms: C_19  and  N_20 
REMARK    6  A    between atoms: N_20  and  C_21 
REMARK    7  A    between atoms: C_23  and  C_24 
REMARK    8  A    between atoms: C_24  and  O_25 
ROOT
ATOM      1  C   UNL d   1      24.990 -16.546  -1.673  0.00  0.00     0.053 C 
ATOM      2  C   UNL d   1      23.606 -16.326  -1.508  0.00  0.00     0.019 C 
ATOM      3  C   UNL d   1      22.864 -17.002  -0.536  0.00  0.00     0.001 C 
ATOM      4  C   UNL d   1      23.479 -17.938   0.286  0.00  0.00     0.002 C 
ATOM      5  C   UNL d   1      24.848 -18.182   0.164  0.00  0.00     0.030 C 
ATOM      6  C   UNL d   1      25.647 -17.455  -0.740  0.00  0.00     0.050 C 
ENDROOT
BRANCH   6   7
ATOM      7  N   UNL d   1      27.081 -17.716  -0.566  0.00  0.00    -0.325 N 
ATOM      8  C   UNL d   1      27.901 -16.760   0.023  0.00  0.00     0.239 C 
ATOM      9  O   UNL d   1      27.294 -15.936   0.726  0.00  0.00    -0.271 OA
ATOM     10  H   UNL d   1      27.470 -18.594  -0.892  0.00  0.00     0.169 HD
BRANCH   8  11
ATOM     11  C   UNL d   1      29.694 -16.616  -0.507  0.00  0.00     0.223 C 
BRANCH  11  12
ATOM     12  N   UNL d   1      30.368 -17.178  -2.466  0.00  0.00    -0.380 N 
ATOM     13  H   UNL d   1      29.726 -17.911  -2.947  0.00  0.00     0.160 HD
BRANCH  12  14
ATOM     14  C   UNL d   1      30.924 -16.907  -3.817  0.00  0.00     0.051 C 
ATOM     15  C   UNL d   1      30.452 -15.607  -4.258  0.00  0.00     0.040 C 
ATOM     16  C   UNL d   1      29.825 -15.525  -5.545  0.00  0.00    -0.033 C 
ATOM     17  C   UNL d   1      30.031 -16.695  -6.523  0.00  0.00     0.011 C 
ATOM     18  C   UNL d   1      30.782 -17.945  -6.105  0.00  0.00     0.027 C 
ATOM     19  C   UNL d   1      31.310 -18.022  -4.766  0.00  0.00     0.060 C 
ATOM     20 CL   UNL d   1      31.958 -19.652  -4.240  0.00  0.00    -0.082 Cl
BRANCH  16  21
ATOM     21  C   UNL d   1      28.504 -14.577  -5.586  0.00  0.00     0.203 C 
BRANCH  21  22
ATOM     22  O   UNL d   1      27.193 -15.200  -5.572  0.00  0.00    -0.396 OA
ATOM     23  H   UNL d   1      26.755 -14.967  -4.726  0.00  0.00     0.209 HD
ENDBRANCH  21  22
ENDBRANCH  16  21
ENDBRANCH  12  14
ENDBRANCH  11  12
ENDBRANCH   8  11
ENDBRANCH   6   7
BRANCH   1  24
ATOM     24  C   UNL d   1      25.524 -15.749  -2.885  0.00  0.00     0.233 C 
ATOM     25  N   UNL d   1      26.029 -14.505  -2.728  0.00  0.00    -0.254 NA
ATOM     26  H   UNL d   1      25.245 -13.923  -3.039  0.00  0.00     0.131 HD
ATOM     27  O   UNL d   1      25.530 -16.178  -4.039  0.00  0.00    -0.274 OA
BRANCH  25  28
ATOM     28  C   UNL d   1      26.601 -14.076  -1.513  0.00  0.00     0.134 C 
ATOM     29  C   UNL d   1      26.859 -12.697  -1.774  0.00  0.00    -0.045 A 
ATOM     30  C   UNL d   1      27.658 -11.847  -0.407  0.00  0.00     0.009 A 
ATOM     31  C   UNL d   1      26.110 -11.656  -3.200  0.00  0.00     0.009 A 
ATOM     32  C   UNL d   1      27.682 -10.115  -0.416  0.00  0.00     0.007 A 
ATOM     33  C   UNL d   1      27.049  -9.144  -1.694  0.00  0.00    -0.062 A 
ATOM     34  C   UNL d   1      27.894  -7.996  -2.075  0.00  0.00     0.048 C 
ATOM     35  C   UNL d   1      26.273  -9.863  -3.089  0.00  0.00     0.007 A 
ENDBRANCH  25  28
ENDBRANCH   1  24
TORSDOF 8
ENDMDL
MODEL 2
REMARK VINA RESULT:    -6.847      3.872      6.686
REMARK INTER + INTRA:         -12.929
REMARK INTER:                  -9.234
REMARK INTRA:                  -3.695
REMARK CONF_INDEPENDENT:        2.386
REMARK UNBOUND:                -3.695
REMARK  8 active torsions:
REMARK  status: ('A' for Active; 'I' for Inactive)
REMARK    1  A    between atoms: C_6  and  N_7 
REMARK       I    between atoms: N_7  and  C_8 
REMARK    2  A    between atoms: C_8  and  C_10 
REMARK    3  A    between atoms: C_15  and  N_16 
REMARK       I    between atoms: N_16  and  C_17 
REMARK    4  A    between atoms: C_17  and  C_19 
REMARK    5  A    between atoms: C_19  and  N_20 
REMARK    6  A    between atoms: N_20  and  C_21 
REMARK    7  A    between atoms: C_23  and  C_24 
REMARK    8  A    between atoms: C_24  and  O_25 
ROOT
ATOM      1  C   UNL d   1      26.601 -16.681  -0.718  0.00  0.00     0.053 C 
ATOM      2  C   UNL d   1      26.401 -17.525   0.395  0.00  0.00     0.019 C 
ATOM      3  C   UNL d   1      25.195 -18.198   0.603  0.00  0.00     0.001 C 
ATOM      4  C   UNL d   1      24.140 -18.029  -0.285  0.00  0.00     0.002 C 
ATOM      5  C   UNL d   1      24.294 -17.211  -1.406  0.00  0.00     0.030 C 
ATOM      6  C   UNL d   1      25.523 -16.589  -1.698  0.00  0.00     0.050 C 
ENDROOT
BRANCH   6   7
ATOM      7  N   UNL d   1      25.535 -15.948  -3.018  0.00  0.00    -0.325 N 
ATOM      8  C   UNL d   1      25.940 -14.624  -3.151  0.00  0.00     0.239 C 
ATOM      9  O   UNL d   1      26.647 -14.214  -2.217  0.00  0.00    -0.271 OA
ATOM     10  H   UNL d   1      25.234 -16.475  -3.830  0.00  0.00     0.169 HD
BRANCH   8  11
ATOM     11  C   UNL d   1      25.180 -13.547  -4.484  0.00  0.00     0.223 C 
BRANCH  11  12
ATOM     12  N   UNL d   1      25.630 -11.456  -4.677  0.00  0.00    -0.380 N 
ATOM     13  H   UNL d   1      24.779 -10.861  -4.993  0.00  0.00     0.160 HD
BRANCH  12  14
ATOM     14  C   UNL d   1      26.252 -10.178  -4.245  0.00  0.00     0.051 C 
ATOM     15  C   UNL d   1      27.341 -10.479  -3.333  0.00  0.00     0.040 C 
ATOM     16  C   UNL d   1      27.355  -9.808  -2.065  0.00  0.00    -0.033 C 
ATOM     17  C   UNL d   1      26.471  -8.559  -1.901  0.00  0.00     0.011 C 
ATOM     18  C   UNL d   1      25.534  -8.110  -3.004  0.00  0.00     0.027 C 
ATOM     19  C   UNL d   1      25.481  -8.874  -4.226  0.00  0.00     0.060 C 
ATOM     20 CL   UNL d   1      24.142  -8.446  -5.397  0.00  0.00    -0.082 Cl
BRANCH  16  21
ATOM     21  C   UNL d   1      27.761 -10.761  -0.810  0.00  0.00     0.203 C 
BRANCH  21  22
ATOM     22  O   UNL d   1      28.376 -12.048  -1.076  0.00  0.00    -0.396 OA
ATOM     23  H   UNL d   1      27.688 -12.739  -0.979  0.00  0.00     0.209 HD
ENDBRANCH  21  22
ENDBRANCH  16  21
ENDBRANCH  12  14
ENDBRANCH  11  12
ENDBRANCH   8  11
ENDBRANCH   6   7
BRANCH   1  24
ATOM     24  C   UNL d   1      27.979 -15.989  -0.633  0.00  0.00     0.233 C 
ATOM     25  N   UNL d   1      28.099 -14.742  -0.125  0.00  0.00    -0.254 NA
ATOM     26  H   UNL d   1      28.175 -14.178  -0.978  0.00  0.00     0.131 HD
ATOM     27  O   UNL d   1      29.032 -16.509  -1.004  0.00  0.00    -0.274 OA
BRANCH  25  28
ATOM     28  C   UNL d   1      27.182 -14.224   0.812  0.00  0.00     0.134 C 
ATOM     29  C   UNL d   1      27.940 -14.257   2.021  0.00  0.00    -0.045 A 
ATOM     30  C   UNL d   1      27.019 -13.697   3.459  0.00  0.00     0.009 A 
ATOM     31  C   UNL d   1      29.844 -14.450   2.159  0.00  0.00     0.009 A 
ATOM     32  C   UNL d   1      27.898 -13.315   4.902  0.00  0.00     0.007 A 
ATOM     33  C   UNL d   1      29.604 -13.505   5.077  0.00  0.00    -0.062 A 
ATOM     34  C   UNL d   1      30.032 -14.085   6.363  0.00  0.00     0.048 C 
ATOM     35  C   UNL d   1      30.599 -14.069   3.752  0.00  0.00     0.007 A 
ENDBRANCH  25  28
ENDBRANCH   1  24
TORSDOF 8
ENDMDL
MODEL 3
REMARK VINA RESULT:    -6.845      2.868      4.592
REMARK INTER + INTRA:         -12.549
REMARK INTER:                  -9.231
REMARK INTRA:                  -3.318
REMARK CONF_INDEPENDENT:        2.386
REMARK UNBOUND:                -3.318
REMARK  8 active torsions:
REMARK  status: ('A' for Active; 'I' for Inactive)
REMARK    1  A    between atoms: C_6  and  N_7 
REMARK       I    between atoms: N_7  and  C_8 
REMARK    2  A    between atoms: C_8  and  C_10 
REMARK    3  A    between atoms: C_15  and  N_16 
REMARK       I    between atoms: N_16  and  C_17 
REMARK    4  A    between atoms: C_17  and  C_19 
REMARK    5  A    between atoms: C_19  and  N_20 
REMARK    6  A    between atoms: N_20  and  C_21 
REMARK    7  A    between atoms: C_23  and  C_24 
REMARK    8  A    between atoms: C_24  and  O_25 
ROOT
ATOM      1  C   UNL d   1      26.127 -16.621  -1.149  0.00  0.00     0.053 C 
ATOM      2  C   UNL d   1      25.916 -17.828  -0.448  0.00  0.00     0.019 C 
ATOM      3  C   UNL d   1      24.633 -18.277  -0.125  0.00  0.00     0.001 C 
ATOM      4  C   UNL d   1      23.521 -17.521  -0.473  0.00  0.00     0.002 C 
ATOM      5  C   UNL d   1      23.680 -16.325  -1.175  0.00  0.00     0.030 C 
ATOM      6  C   UNL d   1      24.950 -15.885  -1.598  0.00  0.00     0.050 C 
ENDROOT
BRANCH   6   7
ATOM      7  N   UNL d   1      24.879 -14.723  -2.492  0.00  0.00    -0.325 N 
ATOM      8  C   UNL d   1      25.408 -14.794  -3.776  0.00  0.00     0.239 C 
ATOM      9  O   UNL d   1      25.530 -15.950  -4.212  0.00  0.00    -0.271 OA
ATOM     10  H   UNL d   1      24.452 -13.865  -2.161  0.00  0.00     0.169 HD
BRANCH   8  11
ATOM     11  C   UNL d   1      26.136 -13.258  -4.569  0.00  0.00     0.223 C 
BRANCH  11  12
ATOM     12  N   UNL d   1      27.679 -13.348  -6.060  0.00  0.00    -0.380 N 
ATOM     13  H   UNL d   1      28.315 -12.467  -6.074  0.00  0.00     0.160 HD
BRANCH  12  14
ATOM     14  C   UNL d   1      28.750 -14.026  -6.835  0.00  0.00     0.051 C 
ATOM     15  C   UNL d   1      28.976 -15.339  -6.260  0.00  0.00     0.040 C 
ATOM     16  C   UNL d   1      30.322 -15.695  -5.914  0.00  0.00    -0.033 C 
ATOM     17  C   UNL d   1      31.465 -14.855  -6.510  0.00  0.00     0.011 C 
ATOM     18  C   UNL d   1      31.180 -13.625  -7.351  0.00  0.00     0.027 C 
ATOM     19  C   UNL d   1      29.809 -13.250  -7.591  0.00  0.00     0.060 C 
ATOM     20 CL   UNL d   1      29.537 -11.617  -8.372  0.00  0.00    -0.082 Cl
BRANCH  16  21
ATOM     21  C   UNL d   1      30.462 -16.474  -4.493  0.00  0.00     0.203 C 
BRANCH  21  22
ATOM     22  O   UNL d   1      29.282 -16.640  -3.664  0.00  0.00    -0.396 OA
ATOM     23  H   UNL d   1      29.424 -16.141  -2.832  0.00  0.00     0.209 HD
ENDBRANCH  21  22
ENDBRANCH  16  21
ENDBRANCH  12  14
ENDBRANCH  11  12
ENDBRANCH   8  11
ENDBRANCH   6   7
BRANCH   1  24
ATOM     24  C   UNL d   1      27.638 -16.323  -1.269  0.00  0.00     0.233 C 
ATOM     25  N   UNL d   1      28.081 -15.066  -1.499  0.00  0.00    -0.254 NA
ATOM     26  H   UNL d   1      28.286 -15.100  -2.503  0.00  0.00     0.131 HD
ATOM     27  O   UNL d   1      28.517 -17.180  -1.164  0.00  0.00    -0.274 OA
BRANCH  25  28
ATOM     28  C   UNL d   1      27.341 -13.930  -1.114  0.00  0.00     0.134 C 
ATOM     29  C   UNL d   1      27.508 -13.931   0.303  0.00  0.00    -0.045 A 
ATOM     30  C   UNL d   1      26.622 -12.604   1.130  0.00  0.00     0.009 A 
ATOM     31  C   UNL d   1      28.831 -14.913   1.287  0.00  0.00     0.009 A 
ATOM     32  C   UNL d   1      27.030 -12.240   2.774  0.00  0.00     0.007 A 
ATOM     33  C   UNL d   1      28.188 -13.120   3.702  0.00  0.00    -0.062 A 
ATOM     34  C   UNL d   1      27.780 -13.405   5.090  0.00  0.00     0.048 C 
ATOM     35  C   UNL d   1      29.093 -14.449   3.009  0.00  0.00     0.007 A 
ENDBRANCH  25  28
ENDBRANCH   1  24
TORSDOF 8
ENDMDL
MODEL 4
REMARK VINA RESULT:    -5.726      2.286      5.677
REMARK INTER + INTRA:         -12.424
REMARK INTER:                  -8.112
REMARK INTRA:                  -4.311
REMARK CONF_INDEPENDENT:        2.386
REMARK UNBOUND:                -4.311
REMARK  8 active torsions:
REMARK  status: ('A' for Active; 'I' for Inactive)
REMARK    1  A    between atoms: C_6  and  N_7 
REMARK       I    between atoms: N_7  and  C_8 
REMARK    2  A    between atoms: C_8  and  C_10 
REMARK    3  A    between atoms: C_15  and  N_16 
REMARK       I    between atoms: N_16  and  C_17 
REMARK    4  A    between atoms: C_17  and  C_19 
REMARK    5  A    between atoms: C_19  and  N_20 
REMARK    6  A    between atoms: N_20  and  C_21 
REMARK    7  A    between atoms: C_23  and  C_24 
REMARK    8  A    between atoms: C_24  and  O_25 
ROOT
ATOM      1  C   UNL d   1      29.021 -14.687  -5.786  0.00  0.00     0.053 C 
ATOM      2  C   UNL d   1      28.644 -13.915  -6.906  0.00  0.00     0.019 C 
ATOM      3  C   UNL d   1      29.585 -13.228  -7.677  0.00  0.00     0.001 C 
ATOM      4  C   UNL d   1      30.932 -13.273  -7.338  0.00  0.00     0.002 C 
ATOM      5  C   UNL d   1      31.352 -14.031  -6.243  0.00  0.00     0.030 C 
ATOM      6  C   UNL d   1      30.446 -14.810  -5.498  0.00  0.00     0.050 C 
ENDROOT
BRANCH   6   7
ATOM      7  N   UNL d   1      31.115 -15.686  -4.529  0.00  0.00    -0.325 N 
ATOM      8  C   UNL d   1      30.484 -16.840  -4.075  0.00  0.00     0.239 C 
ATOM      9  O   UNL d   1      29.587 -17.256  -4.826  0.00  0.00    -0.271 OA
ATOM     10  H   UNL d   1      32.035 -15.437  -4.184  0.00  0.00     0.169 HD
BRANCH   8  11
ATOM     11  C   UNL d   1      30.806 -17.454  -2.333  0.00  0.00     0.223 C 
BRANCH  11  12
ATOM     12  N   UNL d   1      29.318 -17.377  -0.787  0.00  0.00    -0.380 N 
ATOM     13  H   UNL d   1      29.656 -17.796   0.156  0.00  0.00     0.160 HD
BRANCH  12  14
ATOM     14  C   UNL d   1      28.233 -16.727  -0.008  0.00  0.00     0.051 C 
ATOM     15  C   UNL d   1      26.958 -17.242  -0.475  0.00  0.00     0.040 C 
ATOM     16  C   UNL d   1      25.952 -16.293  -0.855  0.00  0.00    -0.033 C 
ATOM     17  C   UNL d   1      26.126 -14.835  -0.393  0.00  0.00     0.011 C 
ATOM     18  C   UNL d   1      27.372 -14.390   0.349  0.00  0.00     0.027 C 
ATOM     19  C   UNL d   1      28.402 -15.360   0.622  0.00  0.00     0.060 C 
ATOM     20 CL   UNL d   1      29.985 -14.707   1.267  0.00  0.00    -0.082 Cl
BRANCH  16  21
ATOM     21  C   UNL d   1      25.136 -16.687  -2.206  0.00  0.00     0.203 C 
BRANCH  21  22
ATOM     22  O   UNL d   1      25.160 -15.773  -3.332  0.00  0.00    -0.396 OA
ATOM     23  H   UNL d   1      26.093 -15.657  -3.610  0.00  0.00     0.209 HD
ENDBRANCH  21  22
ENDBRANCH  16  21
ENDBRANCH  12  14
ENDBRANCH  11  12
ENDBRANCH   8  11
ENDBRANCH   6   7
BRANCH   1  24
ATOM     24  C   UNL d   1      27.771 -15.239  -5.065  0.00  0.00     0.233 C 
ATOM     25  N   UNL d   1      27.754 -15.385  -3.721  0.00  0.00    -0.254 NA
ATOM     26  H   UNL d   1      27.920 -16.392  -3.621  0.00  0.00     0.131 HD
ATOM     27  O   UNL d   1      26.736 -15.571  -5.644  0.00  0.00    -0.274 OA
BRANCH  25  28
ATOM     28  C   UNL d   1      28.555 -14.595  -2.872  0.00  0.00     0.134 C 
ATOM     29  C   UNL d   1      27.979 -13.300  -3.037  0.00  0.00    -0.045 A 
ATOM     30  C   UNL d   1      28.824 -12.016  -2.106  0.00  0.00     0.009 A 
ATOM     31  C   UNL d   1      26.258 -12.915  -3.793  0.00  0.00     0.009 A 
ATOM     32  C   UNL d   1      28.027 -10.492  -1.896  0.00  0.00     0.007 A 
ATOM     33  C   UNL d   1      26.497 -10.096  -2.585  0.00  0.00    -0.062 A 
ATOM     34  C   UNL d   1      26.411  -8.741  -3.161  0.00  0.00     0.048 C 
ATOM     35  C   UNL d   1      25.594 -11.258  -3.534  0.00  0.00     0.007 A 
ENDBRANCH  25  28
ENDBRANCH   1  24
TORSDOF 8
ENDMDL
MODEL 5
REMARK VINA RESULT:    -5.628      2.748      3.666
REMARK INTER + INTRA:         -12.090
REMARK INTER:                  -8.015
REMARK INTRA:                  -4.075
REMARK CONF_INDEPENDENT:        2.386
REMARK UNBOUND:                -4.075
REMARK  8 active torsions:
REMARK  status: ('A' for Active; 'I' for Inactive)
REMARK    1  A    between atoms: C_6  and  N_7 
REMARK       I    between atoms: N_7  and  C_8 
REMARK    2  A    between atoms: C_8  and  C_10 
REMARK    3  A    between atoms: C_15  and  N_16 
REMARK       I    between atoms: N_16  and  C_17 
REMARK    4  A    between atoms: C_17  and  C_19 
REMARK    5  A    between atoms: C_19  and  N_20 
REMARK    6  A    between atoms: N_20  and  C_21 
REMARK    7  A    between atoms: C_23  and  C_24 
REMARK    8  A    between atoms: C_24  and  O_25 
ROOT
ATOM      1  C   UNL d   1      26.143 -15.689  -2.875  0.00  0.00     0.053 C 
ATOM      2  C   UNL d   1      25.055 -16.448  -2.395  0.00  0.00     0.019 C 
ATOM      3  C   UNL d   1      25.064 -17.025  -1.123  0.00  0.00     0.001 C 
ATOM      4  C   UNL d   1      26.173 -16.880  -0.299  0.00  0.00     0.002 C 
ATOM      5  C   UNL d   1      27.270 -16.130  -0.727  0.00  0.00     0.030 C 
ATOM      6  C   UNL d   1      27.261 -15.458  -1.965  0.00  0.00     0.050 C 
ENDROOT
BRANCH   6   7
ATOM      7  N   UNL d   1      28.413 -14.564  -2.134  0.00  0.00    -0.325 N 
ATOM      8  C   UNL d   1      28.273 -13.194  -1.939  0.00  0.00     0.239 C 
ATOM      9  O   UNL d   1      27.295 -12.879  -1.242  0.00  0.00    -0.271 OA
ATOM     10  H   UNL d   1      29.309 -14.953  -2.406  0.00  0.00     0.169 HD
BRANCH   8  11
ATOM     11  C   UNL d   1      29.319 -12.000  -2.936  0.00  0.00     0.223 C 
BRANCH  11  12
ATOM     12  N   UNL d   1      29.755 -12.304  -5.016  0.00  0.00    -0.380 N 
ATOM     13  H   UNL d   1      30.699 -11.863  -5.326  0.00  0.00     0.160 HD
BRANCH  12  14
ATOM     14  C   UNL d   1      29.821 -13.107  -6.264  0.00  0.00     0.051 C 
ATOM     15  C   UNL d   1      29.169 -14.382  -6.027  0.00  0.00     0.040 C 
ATOM     16  C   UNL d   1      29.895 -15.575  -6.354  0.00  0.00    -0.033 C 
ATOM     17  C   UNL d   1      31.124 -15.442  -7.270  0.00  0.00     0.011 C 
ATOM     18  C   UNL d   1      31.618 -14.084  -7.729  0.00  0.00     0.027 C 
ATOM     19  C   UNL d   1      30.913 -12.905  -7.294  0.00  0.00     0.060 C 
ATOM     20 CL   UNL d   1      31.715 -11.299  -7.651  0.00  0.00    -0.082 Cl
BRANCH  16  21
ATOM     21  C   UNL d   1      29.750 -16.766  -5.255  0.00  0.00     0.203 C 
BRANCH  21  22
ATOM     22  O   UNL d   1      29.146 -16.467  -3.971  0.00  0.00    -0.396 OA
ATOM     23  H   UNL d   1      28.193 -16.287  -4.118  0.00  0.00     0.209 HD
ENDBRANCH  21  22
ENDBRANCH  16  21
ENDBRANCH  12  14
ENDBRANCH  11  12
ENDBRANCH   8  11
ENDBRANCH   6   7
BRANCH   1  24
ATOM     24  C   UNL d   1      25.905 -15.269  -4.343  0.00  0.00     0.233 C 
ATOM     25  N   UNL d   1      25.076 -14.244  -4.645  0.00  0.00    -0.254 NA
ATOM     26  H   UNL d   1      24.229 -14.744  -4.937  0.00  0.00     0.131 HD
ATOM     27  O   UNL d   1      26.438 -15.817  -5.308  0.00  0.00    -0.274 OA
BRANCH  25  28
ATOM     28  C   UNL d   1      24.825 -13.192  -3.741  0.00  0.00     0.134 C 
ATOM     29  C   UNL d   1      25.748 -12.195  -4.180  0.00  0.00    -0.045 A 
ATOM     30  C   UNL d   1      25.722 -10.704  -3.178  0.00  0.00     0.009 A 
ATOM     31  C   UNL d   1      26.655 -12.158  -5.870  0.00  0.00     0.009 A 
ATOM     32  C   UNL d   1      26.485  -9.280  -3.801  0.00  0.00     0.007 A 
ATOM     33  C   UNL d   1      27.338  -9.214  -5.299  0.00  0.00    -0.062 A 
ATOM     34  C   UNL d   1      28.606  -8.463  -5.256  0.00  0.00     0.048 C 
ATOM     35  C   UNL d   1      27.452 -10.613  -6.346  0.00  0.00     0.007 A 
ENDBRANCH  25  28
ENDBRANCH   1  24
TORSDOF 8
ENDMDL
MODEL 6
REMARK VINA RESULT:    -5.578      3.293      5.877
REMARK INTER + INTRA:         -13.113
REMARK INTER:                  -7.965
REMARK INTRA:                  -5.148
REMARK CONF_INDEPENDENT:        2.386
REMARK UNBOUND:                -5.148
REMARK  8 active torsions:
REMARK  status: ('A' for Active; 'I' for Inactive)
REMARK    1  A    between atoms: C_6  and  N_7 
REMARK       I    between atoms: N_7  and  C_8 
REMARK    2  A    between atoms: C_8  and  C_10 
REMARK    3  A    between atoms: C_15  and  N_16 
REMARK       I    between atoms: N_16  and  C_17 
REMARK    4  A    between atoms: C_17  and  C_19 
REMARK    5  A    between atoms: C_19  and  N_20 
REMARK    6  A    between atoms: N_20  and  C_21 
REMARK    7  A    between atoms: C_23  and  C_24 
REMARK    8  A    between atoms: C_24  and  O_25 
ROOT
ATOM      1  C   UNL d   1      28.244 -13.771   2.913  0.00  0.00     0.053 C 
ATOM      2  C   UNL d   1      27.277 -13.358   3.854  0.00  0.00     0.019 C 
ATOM      3  C   UNL d   1      27.404 -13.646   5.216  0.00  0.00     0.001 C 
ATOM      4  C   UNL d   1      28.493 -14.377   5.675  0.00  0.00     0.002 C 
ATOM      5  C   UNL d   1      29.479 -14.799   4.782  0.00  0.00     0.030 C 
ATOM      6  C   UNL d   1      29.432 -14.450   3.418  0.00  0.00     0.050 C 
ENDROOT
BRANCH   6   7
ATOM      7  N   UNL d   1      30.659 -14.812   2.697  0.00  0.00    -0.325 N 
ATOM      8  C   UNL d   1      31.005 -14.149   1.525  0.00  0.00     0.239 C 
ATOM      9  O   UNL d   1      30.474 -13.034   1.398  0.00  0.00    -0.271 OA
ATOM     10  H   UNL d   1      31.245 -15.558   3.056  0.00  0.00     0.169 HD
BRANCH   8  11
ATOM     11  C   UNL d   1      31.934 -15.063   0.177  0.00  0.00     0.223 C 
BRANCH  11  12
ATOM     12  N   UNL d   1      31.275 -15.091  -1.866  0.00  0.00    -0.380 N 
ATOM     13  H   UNL d   1      31.414 -16.054  -2.349  0.00  0.00     0.160 HD
BRANCH  12  14
ATOM     14  C   UNL d   1      30.337 -14.770  -2.972  0.00  0.00     0.051 C 
ATOM     15  C   UNL d   1      29.914 -13.388  -2.832  0.00  0.00     0.040 C 
ATOM     16  C   UNL d   1      28.506 -13.116  -2.836  0.00  0.00    -0.033 C 
ATOM     17  C   UNL d   1      27.562 -14.211  -3.363  0.00  0.00     0.011 C 
ATOM     18  C   UNL d   1      28.089 -15.574  -3.767  0.00  0.00     0.027 C 
ATOM     19  C   UNL d   1      29.502 -15.835  -3.653  0.00  0.00     0.060 C 
ATOM     20 CL   UNL d   1      30.032 -17.571  -3.891  0.00  0.00    -0.082 Cl
BRANCH  16  21
ATOM     21  C   UNL d   1      28.035 -12.016  -1.734  0.00  0.00     0.203 C 
BRANCH  21  22
ATOM     22  O   UNL d   1      28.948 -11.661  -0.663  0.00  0.00    -0.396 OA
ATOM     23  H   UNL d   1      28.962 -12.400  -0.018  0.00  0.00     0.209 HD
ENDBRANCH  21  22
ENDBRANCH  16  21
ENDBRANCH  12  14
ENDBRANCH  11  12
ENDBRANCH   8  11
ENDBRANCH   6   7
BRANCH   1  24
ATOM     24  C   UNL d   1      27.791 -13.412   1.480  0.00  0.00     0.233 C 
ATOM     25  N   UNL d   1      28.072 -14.229   0.439  0.00  0.00    -0.254 NA
ATOM     26  H   UNL d   1      28.872 -13.751   0.012  0.00  0.00     0.131 HD
ATOM     27  O   UNL d   1      27.160 -12.394   1.194  0.00  0.00    -0.274 OA
BRANCH  25  28
ATOM     28  C   UNL d   1      28.268 -15.615   0.607  0.00  0.00     0.134 C 
ATOM     29  C   UNL d   1      26.967 -16.136   0.333  0.00  0.00    -0.045 A 
ATOM     30  C   UNL d   1      26.857 -17.920   0.516  0.00  0.00     0.009 A 
ATOM     31  C   UNL d   1      25.537 -15.205  -0.545  0.00  0.00     0.009 A 
ATOM     32  C   UNL d   1      25.478 -18.732  -0.147  0.00  0.00     0.007 A 
ATOM     33  C   UNL d   1      24.157 -17.930  -0.914  0.00  0.00    -0.062 A 
ATOM     34  C   UNL d   1      22.824 -18.443  -0.546  0.00  0.00     0.048 C 
ATOM     35  C   UNL d   1      24.143 -16.192  -1.124  0.00  0.00     0.007 A 
ENDBRANCH  25  28
ENDBRANCH   1  24
TORSDOF 8
ENDMDL
MODEL 7
REMARK VINA RESULT:    -5.463      2.390      4.969
REMARK INTER + INTRA:         -13.103
REMARK INTER:                  -7.849
REMARK INTRA:                  -5.254
REMARK CONF_INDEPENDENT:        2.386
REMARK UNBOUND:                -5.254
REMARK  8 active torsions:
REMARK  status: ('A' for Active; 'I' for Inactive)
REMARK    1  A    between atoms: C_6  and  N_7 
REMARK       I    between atoms: N_7  and  C_8 
REMARK    2  A    between atoms: C_8  and  C_10 
REMARK    3  A    between atoms: C_15  and  N_16 
REMARK       I    between atoms: N_16  and  C_17 
REMARK    4  A    between atoms: C_17  and  C_19 
REMARK    5  A    between atoms: C_19  and  N_20 
REMARK    6  A    between atoms: N_20  and  C_21 
REMARK    7  A    between atoms: C_23  and  C_24 
REMARK    8  A    between atoms: C_24  and  O_25 
ROOT
ATOM      1  C   UNL d   1      25.521 -16.396  -1.602  0.00  0.00     0.053 C 
ATOM      2  C   UNL d   1      24.392 -17.132  -2.020  0.00  0.00     0.019 C 
ATOM      3  C   UNL d   1      23.887 -18.197  -1.269  0.00  0.00     0.001 C 
ATOM      4  C   UNL d   1      24.512 -18.574  -0.086  0.00  0.00     0.002 C 
ATOM      5  C   UNL d   1      25.627 -17.869   0.371  0.00  0.00     0.030 C 
ATOM      6  C   UNL d   1      26.109 -16.735  -0.310  0.00  0.00     0.050 C 
ENDROOT
BRANCH   6   7
ATOM      7  N   UNL d   1      27.150 -16.022   0.440  0.00  0.00    -0.325 N 
ATOM      8  C   UNL d   1      27.356 -14.663   0.234  0.00  0.00     0.239 C 
ATOM      9  O   UNL d   1      26.383 -14.071  -0.259  0.00  0.00    -0.271 OA
ATOM     10  H   UNL d   1      27.726 -16.533   1.100  0.00  0.00     0.169 HD
BRANCH   8  11
ATOM     11  C   UNL d   1      29.079 -13.944   0.416  0.00  0.00     0.223 C 
BRANCH  11  12
ATOM     12  N   UNL d   1      29.998 -12.747  -1.111  0.00  0.00    -0.380 N 
ATOM     13  H   UNL d   1      30.994 -13.086  -1.382  0.00  0.00     0.160 HD
BRANCH  12  14
ATOM     14  C   UNL d   1      30.008 -11.982  -2.384  0.00  0.00     0.051 C 
ATOM     15  C   UNL d   1      28.697 -11.387  -2.576  0.00  0.00     0.040 C 
ATOM     16  C   UNL d   1      28.036 -11.616  -3.828  0.00  0.00    -0.033 C 
ATOM     17  C   UNL d   1      28.882 -12.129  -5.007  0.00  0.00     0.011 C 
ATOM     18  C   UNL d   1      30.345 -12.484  -4.827  0.00  0.00     0.027 C 
ATOM     19  C   UNL d   1      30.943 -12.330  -3.525  0.00  0.00     0.060 C 
ATOM     20 CL   UNL d   1      32.620 -13.030  -3.311  0.00  0.00    -0.082 Cl
BRANCH  16  21
ATOM     21  C   UNL d   1      26.445 -11.929  -3.696  0.00  0.00     0.203 C 
BRANCH  21  22
ATOM     22  O   UNL d   1      25.905 -12.279  -2.395  0.00  0.00    -0.396 OA
ATOM     23  H   UNL d   1      26.006 -13.247  -2.275  0.00  0.00     0.209 HD
ENDBRANCH  21  22
ENDBRANCH  16  21
ENDBRANCH  12  14
ENDBRANCH  11  12
ENDBRANCH   8  11
ENDBRANCH   6   7
BRANCH   1  24
ATOM     24  C   UNL d   1      25.916 -15.357  -2.675  0.00  0.00     0.233 C 
ATOM     25  N   UNL d   1      27.200 -14.953  -2.809  0.00  0.00    -0.254 NA
ATOM     26  H   UNL d   1      27.183 -14.047  -2.331  0.00  0.00     0.131 HD
ATOM     27  O   UNL d   1      25.118 -14.843  -3.459  0.00  0.00    -0.274 OA
BRANCH  25  28
ATOM     28  C   UNL d   1      28.285 -15.770  -2.431  0.00  0.00     0.134 C 
ATOM     29  C   UNL d   1      28.859 -16.109  -3.693  0.00  0.00    -0.045 A 
ATOM     30  C   UNL d   1      30.269 -17.215  -3.565  0.00  0.00     0.009 A 
ATOM     31  C   UNL d   1      28.526 -15.223  -5.362  0.00  0.00     0.009 A 
ATOM     32  C   UNL d   1      31.296 -17.403  -4.947  0.00  0.00     0.007 A 
ATOM     33  C   UNL d   1      31.013 -16.651  -6.474  0.00  0.00    -0.062 A 
ATOM     34  C   UNL d   1      31.239 -17.521  -7.643  0.00  0.00     0.048 C 
ATOM     35  C   UNL d   1      29.655 -15.575  -6.724  0.00  0.00     0.007 A 
ENDBRANCH  25  28
ENDBRANCH   1  24
TORSDOF 8
ENDMDL
MODEL 8
REMARK VINA RESULT:    -5.260      3.108      5.024
REMARK INTER + INTRA:         -12.942
REMARK INTER:                  -7.647
REMARK INTRA:                  -5.295
REMARK CONF_INDEPENDENT:        2.386
REMARK UNBOUND:                -5.295
REMARK  8 active torsions:
REMARK  status: ('A' for Active; 'I' for Inactive)
REMARK    1  A    between atoms: C_6  and  N_7 
REMARK       I    between atoms: N_7  and  C_8 
REMARK    2  A    between atoms: C_8  and  C_10 
REMARK    3  A    between atoms: C_15  and  N_16 
REMARK       I    between atoms: N_16  and  C_17 
REMARK    4  A    between atoms: C_17  and  C_19 
REMARK    5  A    between atoms: C_19  and  N_20 
REMARK    6  A    between atoms: N_20  and  C_21 
REMARK    7  A    between atoms: C_23  and  C_24 
REMARK    8  A    between atoms: C_24  and  O_25 
ROOT
ATOM      1  C   UNL d   1      25.289 -16.958  -0.805  0.00  0.00     0.053 C 
ATOM      2  C   UNL d   1      25.068 -18.133  -0.054  0.00  0.00     0.019 C 
ATOM      3  C   UNL d   1      23.781 -18.575   0.261  0.00  0.00     0.001 C 
ATOM      4  C   UNL d   1      22.673 -17.842  -0.145  0.00  0.00     0.002 C 
ATOM      5  C   UNL d   1      22.842 -16.678  -0.897  0.00  0.00     0.030 C 
ATOM      6  C   UNL d   1      24.118 -16.251  -1.312  0.00  0.00     0.050 C 
ENDROOT
BRANCH   6   7
ATOM      7  N   UNL d   1      24.061 -15.131  -2.260  0.00  0.00    -0.325 N 
ATOM      8  C   UNL d   1      25.107 -14.911  -3.149  0.00  0.00     0.239 C 
ATOM      9  O   UNL d   1      25.816 -15.909  -3.355  0.00  0.00    -0.271 OA
ATOM     10  H   UNL d   1      23.257 -14.513  -2.252  0.00  0.00     0.169 HD
BRANCH   8  11
ATOM     11  C   UNL d   1      25.521 -13.163  -3.685  0.00  0.00     0.223 C 
BRANCH  11  12
ATOM     12  N   UNL d   1      27.428 -12.255  -3.294  0.00  0.00    -0.380 N 
ATOM     13  H   UNL d   1      27.352 -11.309  -2.766  0.00  0.00     0.160 HD
BRANCH  12  14
ATOM     14  C   UNL d   1      28.856 -12.270  -2.886  0.00  0.00     0.051 C 
ATOM     15  C   UNL d   1      29.459 -13.502  -3.360  0.00  0.00     0.040 C 
ATOM     16  C   UNL d   1      30.168 -14.308  -2.409  0.00  0.00    -0.033 C 
ATOM     17  C   UNL d   1      30.576 -13.657  -1.075  0.00  0.00     0.011 C 
ATOM     18  C   UNL d   1      30.152 -12.243  -0.729  0.00  0.00     0.027 C 
ATOM     19  C   UNL d   1      29.355 -11.506  -1.677  0.00  0.00     0.060 C 
ATOM     20 CL   UNL d   1      28.648  -9.923  -1.089  0.00  0.00    -0.082 Cl
BRANCH  16  21
ATOM     21  C   UNL d   1      29.897 -15.905  -2.552  0.00  0.00     0.203 C 
BRANCH  21  22
ATOM     22  O   UNL d   1      28.770 -16.357  -3.347  0.00  0.00    -0.396 OA
ATOM     23  H   UNL d   1      27.987 -16.416  -2.759  0.00  0.00     0.209 HD
ENDBRANCH  21  22
ENDBRANCH  16  21
ENDBRANCH  12  14
ENDBRANCH  11  12
ENDBRANCH   8  11
ENDBRANCH   6   7
BRANCH   1  24
ATOM     24  C   UNL d   1      26.801 -16.657  -0.906  0.00  0.00     0.233 C 
ATOM     25  N   UNL d   1      27.248 -15.385  -1.012  0.00  0.00    -0.254 NA
ATOM     26  H   UNL d   1      27.447 -15.319  -2.016  0.00  0.00     0.131 HD
ATOM     27  O   UNL d   1      27.675 -17.523  -0.894  0.00  0.00    -0.274 OA
BRANCH  25  28
ATOM     28  C   UNL d   1      26.518 -14.290  -0.509  0.00  0.00     0.134 C 
ATOM     29  C   UNL d   1      27.105 -14.104   0.778  0.00  0.00    -0.045 A 
ATOM     30  C   UNL d   1      26.345 -12.782   1.729  0.00  0.00     0.009 A 
ATOM     31  C   UNL d   1      28.782 -14.825   1.372  0.00  0.00     0.009 A 
ATOM     32  C   UNL d   1      27.182 -12.185   3.124  0.00  0.00     0.007 A 
ATOM     33  C   UNL d   1      28.672 -12.828   3.708  0.00  0.00    -0.062 A 
ATOM     34  C   UNL d   1      28.746 -12.983   5.173  0.00  0.00     0.048 C 
ATOM     35  C   UNL d   1      29.491 -14.134   2.879  0.00  0.00     0.007 A 
ENDBRANCH  25  28
ENDBRANCH   1  24
TORSDOF 8
ENDMDL
MODEL 9
REMARK VINA RESULT:    -4.611      2.454      5.685
REMARK INTER + INTRA:         -12.260
REMARK INTER:                  -6.997
REMARK INTRA:                  -5.263
REMARK CONF_INDEPENDENT:        2.386
REMARK UNBOUND:                -5.263
REMARK  8 active torsions:
REMARK  status: ('A' for Active; 'I' for Inactive)
REMARK    1  A    between atoms: C_6  and  N_7 
REMARK       I    between atoms: N_7  and  C_8 
REMARK    2  A    between atoms: C_8  and  C_10 
REMARK    3  A    between atoms: C_15  and  N_16 
REMARK       I    between atoms: N_16  and  C_17 
REMARK    4  A    between atoms: C_17  and  C_19 
REMARK    5  A    between atoms: C_19  and  N_20 
REMARK    6  A    between atoms: N_20  and  C_21 
REMARK    7  A    between atoms: C_23  and  C_24 
REMARK    8  A    between atoms: C_24  and  O_25 
ROOT
ATOM      1  C   UNL d   1      26.702 -12.486  -5.458  0.00  0.00     0.053 C 
ATOM      2  C   UNL d   1      25.902 -11.393  -5.853  0.00  0.00     0.019 C 
ATOM      3  C   UNL d   1      26.211 -10.622  -6.976  0.00  0.00     0.001 C 
ATOM      4  C   UNL d   1      27.344 -10.907  -7.728  0.00  0.00     0.002 C 
ATOM      5  C   UNL d   1      28.160 -11.985  -7.381  0.00  0.00     0.030 C 
ATOM      6  C   UNL d   1      27.832 -12.840  -6.310  0.00  0.00     0.050 C 
ENDROOT
BRANCH   6   7
ATOM      7  N   UNL d   1      28.699 -14.022  -6.242  0.00  0.00    -0.325 N 
ATOM      8  C   UNL d   1      28.260 -15.179  -5.607  0.00  0.00     0.239 C 
ATOM      9  O   UNL d   1      27.025 -15.264  -5.507  0.00  0.00    -0.271 OA
ATOM     10  H   UNL d   1      29.626 -13.984  -6.651  0.00  0.00     0.169 HD
BRANCH   8  11
ATOM     11  C   UNL d   1      29.494 -16.288  -4.734  0.00  0.00     0.223 C 
BRANCH  11  12
ATOM     12  N   UNL d   1      29.346 -16.762  -2.645  0.00  0.00    -0.380 N 
ATOM     13  H   UNL d   1      30.222 -16.466  -2.075  0.00  0.00     0.160 HD
BRANCH  12  14
ATOM     14  C   UNL d   1      28.637 -16.853  -1.342  0.00  0.00     0.051 C 
ATOM     15  C   UNL d   1      27.220 -17.035  -1.599  0.00  0.00     0.040 C 
ATOM     16  C   UNL d   1      26.303 -16.143  -0.950  0.00  0.00    -0.033 C 
ATOM     17  C   UNL d   1      26.819 -15.324   0.246  0.00  0.00     0.011 C 
ATOM     18  C   UNL d   1      28.276 -15.376   0.662  0.00  0.00     0.027 C 
ATOM     19  C   UNL d   1      29.183 -16.213  -0.083  0.00  0.00     0.060 C 
ATOM     20 CL   UNL d   1      30.964 -16.019   0.292  0.00  0.00    -0.082 Cl
BRANCH  16  21
ATOM     21  C   UNL d   1      25.088 -15.628  -1.901  0.00  0.00     0.203 C 
BRANCH  21  22
ATOM     22  O   UNL d   1      25.158 -15.879  -3.328  0.00  0.00    -0.396 OA
ATOM     23  H   UNL d   1      25.681 -15.158  -3.738  0.00  0.00     0.209 HD
ENDBRANCH  21  22
ENDBRANCH  16  21
ENDBRANCH  12  14
ENDBRANCH  11  12
ENDBRANCH   8  11
ENDBRANCH   6   7
BRANCH   1  24
ATOM     24  C   UNL d   1      26.186 -13.082  -4.129  0.00  0.00     0.233 C 
ATOM     25  N   UNL d   1      27.044 -13.617  -3.230  0.00  0.00    -0.254 NA
ATOM     26  H   UNL d   1      26.928 -14.620  -3.407  0.00  0.00     0.131 HD
ATOM     27  O   UNL d   1      24.999 -13.106  -3.803  0.00  0.00    -0.274 OA
BRANCH  25  28
ATOM     28  C   UNL d   1      28.391 -13.211  -3.147  0.00  0.00     0.134 C 
ATOM     29  C   UNL d   1      28.394 -12.425  -1.955  0.00  0.00    -0.045 A 
ATOM     30  C   UNL d   1      29.993 -11.696  -1.582  0.00  0.00     0.009 A 
ATOM     31  C   UNL d   1      27.035 -12.419  -0.600  0.00  0.00     0.009 A 
ATOM     32  C   UNL d   1      30.254 -11.052   0.005  0.00  0.00     0.007 A 
ATOM     33  C   UNL d   1      29.049 -10.998   1.239  0.00  0.00    -0.062 A 
ATOM     34  C   UNL d   1      29.003  -9.737   2.002  0.00  0.00     0.048 C 
ATOM     35  C   UNL d   1      27.447 -11.654   0.980  0.00  0.00     0.007 A 
ENDBRANCH  25  28
ENDBRANCH   1  24
TORSDOF 8
ENDMDL
