MODEL 1
REMARK VINA RESULT:    -7.775      0.000      0.000
REMARK INTER + INTRA:         -21.344
REMARK INTER:                 -12.250
REMARK INTRA:                  -9.094
REMARK CONF_INDEPENDENT:        4.474
REMARK UNBOUND:                -9.094
REMARK  15 active torsions:
REMARK  status: ('A' for Active; 'I' for Inactive)
REMARK    1  A    between atoms: C_2  and  C_4 
REMARK    2  A    between atoms: C_2  and  N_6 
REMARK    3  A    between atoms: C_4  and  O_5 
REMARK       I    between atoms: N_6  and  C_7 
REMARK    4  A    between atoms: C_9  and  C_7 
REMARK    5  A    between atoms: N_18  and  C_19 
REMARK    6  A    between atoms: C_19  and  C_20 
REMARK    7  A    between atoms: C_20  and  O_21 
REMARK    8  A    between atoms: C_22  and  C_20 
REMARK    9  A    between atoms: C_22  and  N_31 
REMARK   10  A    between atoms: C_22  and  C_23 
REMARK   11  A    between atoms: C_23  and  S_24 
REMARK   12  A    between atoms: S_24  and  C_25 
REMARK       I    between atoms: N_31  and  C_32 
REMARK   13  A    between atoms: C_32  and  O_34 
REMARK   14  A    between atoms: O_34  and  C_35 
REMARK   15  A    between atoms: C_35  and  C_36 
ROOT
ATOM      1  C   UNL d   1      28.126 -15.155  -0.724  0.00  0.00     0.167 C 
ENDROOT
BRANCH   1   2
ATOM      2  C   UNL d   1      26.826 -14.602  -1.344  0.00  0.00     0.269 C 
BRANCH   2   3
ATOM      3  N   UNL d   1      27.070 -13.685  -2.561  0.00  0.00    -0.055 N 
ATOM      4  C   UNL d   1      26.778 -12.224  -2.292  0.00  0.00     0.241 C 
ATOM      5  C   UNL d   1      26.797 -11.359  -3.538  0.00  0.00     0.016 C 
ATOM      6  C   UNL d   1      28.150 -11.420  -4.230  0.00  0.00     0.007 C 
ATOM      7  C   UNL d   1      25.668 -11.823  -4.444  0.00  0.00    -0.006 C 
ATOM      8  C   UNL d   1      28.232 -10.813  -5.610  0.00  0.00     0.000 C 
ATOM      9  C   UNL d   1      27.103 -11.346  -6.486  0.00  0.00     0.000 C 
ATOM     10  C   UNL d   1      25.750 -11.125  -5.808  0.00  0.00     0.005 C 
ATOM     11  C   UNL d   1      25.608 -13.342  -4.660  0.00  0.00     0.048 C 
ATOM     12  C   UNL d   1      26.420 -14.294  -3.789  0.00  0.00     0.279 C 
ATOM     13  H   UNL d   1      28.067 -13.726  -2.750  0.00  0.00     0.281 HD
BRANCH  12  14
ATOM     14  C   UNL d   1      27.437 -15.028  -4.714  0.00  0.00     0.249 C 
ATOM     15  N   UNL d   1      28.786 -14.920  -4.399  0.00  0.00    -0.349 N 
ATOM     16  H   UNL d   1      29.124 -14.878  -3.454  0.00  0.00     0.163 HD
ATOM     17  O   UNL d   1      27.035 -15.570  -5.739  0.00  0.00    -0.271 OA
BRANCH  15  18
ATOM     18  C   UNL d   1      29.888 -15.290  -5.294  0.00  0.00     0.046 C 
ATOM     19  C   UNL d   1      29.854 -14.400  -6.568  0.00  0.00     0.040 C 
ATOM     20  C   UNL d   1      29.756 -16.747  -5.767  0.00  0.00     0.040 C 
BRANCH  18  21
ATOM     21  C   UNL d   1      31.175 -15.002  -4.512  0.00  0.00     0.194 C 
BRANCH  21  22
ATOM     22  O   UNL d   1      30.923 -14.422  -3.255  0.00  0.00    -0.398 OA
ATOM     23  H   UNL d   1      30.991 -15.134  -2.595  0.00  0.00     0.209 HD
ENDBRANCH  21  22
ENDBRANCH  18  21
ENDBRANCH  15  18
ENDBRANCH  12  14
ENDBRANCH   2   3
ENDBRANCH   1   2
BRANCH   1  24
ATOM     24  O   UNL d   1      29.200 -14.609  -1.492  0.00  0.00    -0.392 OA
ATOM     25  H   UNL d   1      29.987 -15.183  -1.428  0.00  0.00     0.210 HD
ENDBRANCH   1  24
BRANCH   1  26
ATOM     26  C   UNL d   1      28.088 -16.718  -0.560  0.00  0.00     0.126 C 
BRANCH  26  27
ATOM     27  N   UNL d   1      29.405 -17.363  -0.625  0.00  0.00    -0.329 N 
ATOM     28  C   UNL d   1      30.206 -17.345  -1.728  0.00  0.00     0.361 C 
ATOM     29  O   UNL d   1      29.838 -16.858  -2.807  0.00  0.00    -0.238 OA
ATOM     30  H   UNL d   1      29.812 -17.747   0.226  0.00  0.00     0.165 HD
BRANCH  28  31
ATOM     31  O   UNL d   1      31.435 -17.806  -1.492  0.00  0.00    -0.299 OA
BRANCH  31  32
ATOM     32  C   UNL d   1      31.557 -19.251  -1.429  0.00  0.00     0.219 C 
BRANCH  32  33
ATOM     33  C   UNL d   1      31.467 -19.812  -2.827  0.00  0.00    -0.034 A 
ATOM     34  C   UNL d   1      31.641 -19.001  -3.960  0.00  0.00     0.009 A 
ATOM     35  C   UNL d   1      31.374 -19.512  -5.236  0.00  0.00     0.001 A 
ATOM     36  C   UNL d   1      31.016 -20.850  -5.395  0.00  0.00     0.000 A 
ATOM     37  C   UNL d   1      30.920 -21.680  -4.284  0.00  0.00     0.001 A 
ATOM     38  C   UNL d   1      31.154 -21.165  -3.015  0.00  0.00     0.009 A 
ENDBRANCH  32  33
ENDBRANCH  31  32
ENDBRANCH  28  31
ENDBRANCH  26  27
BRANCH  26  39
ATOM     39  C   UNL d   1      27.252 -17.080   0.711  0.00  0.00     0.107 C 
BRANCH  39  40
ATOM     40  S   UNL d   1      26.309 -18.618   0.423  0.00  0.00    -0.128 SA
BRANCH  40  41
ATOM     41  C   UNL d   1      24.724 -18.038  -0.152  0.00  0.00     0.000 A 
ATOM     42  C   UNL d   1      23.667 -18.959  -0.143  0.00  0.00     0.018 A 
ATOM     43  C   UNL d   1      22.387 -18.581  -0.550  0.00  0.00     0.001 A 
ATOM     44  C   UNL d   1      22.131 -17.258  -0.895  0.00  0.00     0.000 A 
ATOM     45  C   UNL d   1      23.168 -16.325  -0.880  0.00  0.00     0.001 A 
ATOM     46  C   UNL d   1      24.463 -16.716  -0.520  0.00  0.00     0.018 A 
ENDBRANCH  40  41
ENDBRANCH  39  40
ENDBRANCH  26  39
ENDBRANCH   1  26
TORSDOF 15
ENDMDL
MODEL 2
REMARK VINA RESULT:    -7.480      3.904      7.401
REMARK INTER + INTRA:         -20.954
REMARK INTER:                 -11.955
REMARK INTRA:                  -8.999
REMARK CONF_INDEPENDENT:        4.474
REMARK UNBOUND:                -8.999
REMARK  15 active torsions:
REMARK  status: ('A' for Active; 'I' for Inactive)
REMARK    1  A    between atoms: C_2  and  C_4 
REMARK    2  A    between atoms: C_2  and  N_6 
REMARK    3  A    between atoms: C_4  and  O_5 
REMARK       I    between atoms: N_6  and  C_7 
REMARK    4  A    between atoms: C_9  and  C_7 
REMARK    5  A    between atoms: N_18  and  C_19 
REMARK    6  A    between atoms: C_19  and  C_20 
REMARK    7  A    between atoms: C_20  and  O_21 
REMARK    8  A    between atoms: C_22  and  C_20 
REMARK    9  A    between atoms: C_22  and  N_31 
REMARK   10  A    between atoms: C_22  and  C_23 
REMARK   11  A    between atoms: C_23  and  S_24 
REMARK   12  A    between atoms: S_24  and  C_25 
REMARK       I    between atoms: N_31  and  C_32 
REMARK   13  A    between atoms: C_32  and  O_34 
REMARK   14  A    between atoms: O_34  and  C_35 
REMARK   15  A    between atoms: C_35  and  C_36 
ROOT
ATOM      1  C   UNL d   1      29.630 -14.355   0.108  0.00  0.00     0.167 C 
ENDROOT
BRANCH   1   2
ATOM      2  C   UNL d   1      30.108 -14.917   1.463  0.00  0.00     0.269 C 
BRANCH   2   3
ATOM      3  N   UNL d   1      29.744 -14.016   2.662  0.00  0.00    -0.055 N 
ATOM      4  C   UNL d   1      30.633 -14.221   3.870  0.00  0.00     0.241 C 
ATOM      5  C   UNL d   1      30.141 -13.510   5.116  0.00  0.00     0.016 C 
ATOM      6  C   UNL d   1      30.040 -12.009   4.889  0.00  0.00     0.007 C 
ATOM      7  C   UNL d   1      28.806 -14.122   5.505  0.00  0.00    -0.006 C 
ATOM      8  C   UNL d   1      29.329 -11.210   5.955  0.00  0.00     0.000 C 
ATOM      9  C   UNL d   1      27.979 -11.845   6.274  0.00  0.00     0.000 C 
ATOM     10  C   UNL d   1      28.155 -13.320   6.640  0.00  0.00     0.005 C 
ATOM     11  C   UNL d   1      27.805 -14.257   4.348  0.00  0.00     0.048 C 
ATOM     12  C   UNL d   1      28.247 -14.077   2.900  0.00  0.00     0.279 C 
ATOM     13  H   UNL d   1      29.919 -13.062   2.362  0.00  0.00     0.281 HD
BRANCH  12  14
ATOM     14  C   UNL d   1      27.491 -12.840   2.327  0.00  0.00     0.249 C 
ATOM     15  N   UNL d   1      28.200 -11.652   2.207  0.00  0.00    -0.349 N 
ATOM     16  H   UNL d   1      29.175 -11.621   1.967  0.00  0.00     0.163 HD
ATOM     17  O   UNL d   1      26.284 -12.919   2.113  0.00  0.00    -0.271 OA
BRANCH  15  18
ATOM     18  C   UNL d   1      27.597 -10.336   1.966  0.00  0.00     0.046 C 
ATOM     19  C   UNL d   1      28.282  -9.270   2.866  0.00  0.00     0.040 C 
ATOM     20  C   UNL d   1      26.103 -10.333   2.332  0.00  0.00     0.040 C 
BRANCH  18  21
ATOM     21  C   UNL d   1      27.879 -10.012   0.494  0.00  0.00     0.194 C 
BRANCH  21  22
ATOM     22  O   UNL d   1      29.046 -10.637   0.019  0.00  0.00    -0.398 OA
ATOM     23  H   UNL d   1      28.766 -11.302  -0.633  0.00  0.00     0.209 HD
ENDBRANCH  21  22
ENDBRANCH  18  21
ENDBRANCH  15  18
ENDBRANCH  12  14
ENDBRANCH   2   3
ENDBRANCH   1   2
BRANCH   1  24
ATOM     24  O   UNL d   1      29.954 -12.963   0.114  0.00  0.00    -0.392 OA
ATOM     25  H   UNL d   1      29.595 -12.529  -0.683  0.00  0.00     0.210 HD
ENDBRANCH   1  24
BRANCH   1  26
ATOM     26  C   UNL d   1      28.138 -14.739  -0.202  0.00  0.00     0.126 C 
BRANCH  26  27
ATOM     27  N   UNL d   1      27.271 -13.593  -0.502  0.00  0.00    -0.329 N 
ATOM     28  C   UNL d   1      27.499 -12.714  -1.519  0.00  0.00     0.361 C 
ATOM     29  O   UNL d   1      28.522 -12.760  -2.218  0.00  0.00    -0.238 OA
ATOM     30  H   UNL d   1      26.383 -13.501  -0.012  0.00  0.00     0.165 HD
BRANCH  28  31
ATOM     31  O   UNL d   1      26.477 -11.885  -1.735  0.00  0.00    -0.299 OA
BRANCH  31  32
ATOM     32  C   UNL d   1      26.244 -11.530  -3.122  0.00  0.00     0.219 C 
BRANCH  32  33
ATOM     33  C   UNL d   1      26.277 -12.784  -3.961  0.00  0.00    -0.034 A 
ATOM     34  C   UNL d   1      25.360 -13.828  -3.764  0.00  0.00     0.009 A 
ATOM     35  C   UNL d   1      25.530 -15.046  -4.433  0.00  0.00     0.001 A 
ATOM     36  C   UNL d   1      26.560 -15.200  -5.360  0.00  0.00     0.000 A 
ATOM     37  C   UNL d   1      27.424 -14.143  -5.620  0.00  0.00     0.001 A 
ATOM     38  C   UNL d   1      27.275 -12.945  -4.933  0.00  0.00     0.009 A 
ENDBRANCH  32  33
ENDBRANCH  31  32
ENDBRANCH  28  31
ENDBRANCH  26  27
BRANCH  26  39
ATOM     39  C   UNL d   1      28.113 -15.870  -1.282  0.00  0.00     0.107 C 
BRANCH  39  40
ATOM     40  S   UNL d   1      27.575 -17.445  -0.528  0.00  0.00    -0.128 SA
BRANCH  40  41
ATOM     41  C   UNL d   1      25.798 -17.397  -0.677  0.00  0.00     0.000 A 
ATOM     42  C   UNL d   1      25.085 -18.479  -0.145  0.00  0.00     0.018 A 
ATOM     43  C   UNL d   1      23.691 -18.509  -0.193  0.00  0.00     0.001 A 
ATOM     44  C   UNL d   1      22.991 -17.421  -0.703  0.00  0.00     0.000 A 
ATOM     45  C   UNL d   1      23.688 -16.325  -1.211  0.00  0.00     0.001 A 
ATOM     46  C   UNL d   1      25.089 -16.316  -1.208  0.00  0.00     0.018 A 
ENDBRANCH  40  41
ENDBRANCH  39  40
ENDBRANCH  26  39
ENDBRANCH   1  26
TORSDOF 15
ENDMDL
MODEL 3
REMARK VINA RESULT:    -7.301      2.610      6.016
REMARK INTER + INTRA:         -20.823
REMARK INTER:                 -11.776
REMARK INTRA:                  -9.047
REMARK CONF_INDEPENDENT:        4.474
REMARK UNBOUND:                -9.047
REMARK  15 active torsions:
REMARK  status: ('A' for Active; 'I' for Inactive)
REMARK    1  A    between atoms: C_2  and  C_4 
REMARK    2  A    between atoms: C_2  and  N_6 
REMARK    3  A    between atoms: C_4  and  O_5 
REMARK       I    between atoms: N_6  and  C_7 
REMARK    4  A    between atoms: C_9  and  C_7 
REMARK    5  A    between atoms: N_18  and  C_19 
REMARK    6  A    between atoms: C_19  and  C_20 
REMARK    7  A    between atoms: C_20  and  O_21 
REMARK    8  A    between atoms: C_22  and  C_20 
REMARK    9  A    between atoms: C_22  and  N_31 
REMARK   10  A    between atoms: C_22  and  C_23 
REMARK   11  A    between atoms: C_23  and  S_24 
REMARK   12  A    between atoms: S_24  and  C_25 
REMARK       I    between atoms: N_31  and  C_32 
REMARK   13  A    between atoms: C_32  and  O_34 
REMARK   14  A    between atoms: O_34  and  C_35 
REMARK   15  A    between atoms: C_35  and  C_36 
ROOT
ATOM      1  C   UNL d   1      28.435 -17.081  -1.326  0.00  0.00     0.167 C 
ENDROOT
BRANCH   1   2
ATOM      2  C   UNL d   1      29.749 -16.422  -1.797  0.00  0.00     0.269 C 
BRANCH   2   3
ATOM      3  N   UNL d   1      29.641 -15.775  -3.194  0.00  0.00    -0.055 N 
ATOM      4  C   UNL d   1      30.143 -16.659  -4.316  0.00  0.00     0.241 C 
ATOM      5  C   UNL d   1      30.252 -15.947  -5.652  0.00  0.00     0.016 C 
ATOM      6  C   UNL d   1      28.904 -15.395  -6.092  0.00  0.00     0.007 C 
ATOM      7  C   UNL d   1      31.302 -14.857  -5.513  0.00  0.00    -0.006 C 
ATOM      8  C   UNL d   1      28.913 -14.452  -7.271  0.00  0.00     0.000 C 
ATOM      9  C   UNL d   1      29.953 -13.356  -7.059  0.00  0.00     0.000 C 
ATOM     10  C   UNL d   1      31.323 -13.968  -6.765  0.00  0.00     0.005 C 
ATOM     11  C   UNL d   1      31.139 -13.969  -4.271  0.00  0.00     0.048 C 
ATOM     12  C   UNL d   1      30.197 -14.363  -3.139  0.00  0.00     0.279 C 
ATOM     13  H   UNL d   1      28.649 -15.655  -3.375  0.00  0.00     0.281 HD
BRANCH  12  14
ATOM     14  C   UNL d   1      29.084 -13.276  -3.053  0.00  0.00     0.249 C 
ATOM     15  N   UNL d   1      27.770 -13.684  -3.248  0.00  0.00    -0.349 N 
ATOM     16  H   UNL d   1      27.425 -14.577  -2.943  0.00  0.00     0.163 HD
ATOM     17  O   UNL d   1      29.403 -12.097  -2.934  0.00  0.00    -0.271 OA
BRANCH  15  18
ATOM     18  C   UNL d   1      26.639 -12.781  -3.486  0.00  0.00     0.046 C 
ATOM     19  C   UNL d   1      26.737 -12.180  -4.917  0.00  0.00     0.040 C 
ATOM     20  C   UNL d   1      26.655 -11.596  -2.505  0.00  0.00     0.040 C 
BRANCH  18  21
ATOM     21  C   UNL d   1      25.381 -13.653  -3.390  0.00  0.00     0.194 C 
BRANCH  21  22
ATOM     22  O   UNL d   1      25.677 -14.991  -3.070  0.00  0.00    -0.398 OA
ATOM     23  H   UNL d   1      25.894 -15.013  -2.121  0.00  0.00     0.209 HD
ENDBRANCH  21  22
ENDBRANCH  18  21
ENDBRANCH  15  18
ENDBRANCH  12  14
ENDBRANCH   2   3
ENDBRANCH   1   2
BRANCH   1  24
ATOM     24  O   UNL d   1      27.406 -16.581  -2.182  0.00  0.00    -0.392 OA
ATOM     25  H   UNL d   1      27.026 -15.763  -1.811  0.00  0.00     0.210 HD
ENDBRANCH   1  24
BRANCH   1  26
ATOM     26  C   UNL d   1      28.215 -16.925   0.222  0.00  0.00     0.126 C 
BRANCH  26  27
ATOM     27  N   UNL d   1      28.606 -15.615   0.757  0.00  0.00    -0.329 N 
ATOM     28  C   UNL d   1      28.182 -14.426   0.242  0.00  0.00     0.361 C 
ATOM     29  O   UNL d   1      27.500 -14.358  -0.791  0.00  0.00    -0.238 OA
ATOM     30  H   UNL d   1      29.126 -15.572   1.632  0.00  0.00     0.165 HD
BRANCH  28  31
ATOM     31  O   UNL d   1      28.490 -13.382   1.011  0.00  0.00    -0.299 OA
BRANCH  31  32
ATOM     32  C   UNL d   1      27.427 -12.910   1.878  0.00  0.00     0.219 C 
BRANCH  32  33
ATOM     33  C   UNL d   1      27.796 -13.207   3.311  0.00  0.00    -0.034 A 
ATOM     34  C   UNL d   1      28.110 -14.507   3.739  0.00  0.00     0.009 A 
ATOM     35  C   UNL d   1      28.270 -14.776   5.103  0.00  0.00     0.001 A 
ATOM     36  C   UNL d   1      28.203 -13.742   6.036  0.00  0.00     0.000 A 
ATOM     37  C   UNL d   1      27.972 -12.439   5.612  0.00  0.00     0.001 A 
ATOM     38  C   UNL d   1      27.781 -12.175   4.261  0.00  0.00     0.009 A 
ENDBRANCH  32  33
ENDBRANCH  31  32
ENDBRANCH  28  31
ENDBRANCH  26  27
BRANCH  26  39
ATOM     39  C   UNL d   1      26.755 -17.360   0.579  0.00  0.00     0.107 C 
BRANCH  39  40
ATOM     40  S   UNL d   1      25.558 -16.186  -0.145  0.00  0.00    -0.128 SA
BRANCH  40  41
ATOM     41  C   UNL d   1      24.123 -17.194  -0.470  0.00  0.00     0.000 A 
ATOM     42  C   UNL d   1      24.283 -18.582  -0.363  0.00  0.00     0.018 A 
ATOM     43  C   UNL d   1      23.205 -19.444  -0.572  0.00  0.00     0.001 A 
ATOM     44  C   UNL d   1      21.938 -18.923  -0.814  0.00  0.00     0.000 A 
ATOM     45  C   UNL d   1      21.760 -17.542  -0.895  0.00  0.00     0.001 A 
ATOM     46  C   UNL d   1      22.851 -16.680  -0.734  0.00  0.00     0.018 A 
ENDBRANCH  40  41
ENDBRANCH  39  40
ENDBRANCH  26  39
ENDBRANCH   1  26
TORSDOF 15
ENDMDL
MODEL 4
REMARK VINA RESULT:    -7.141      3.635      7.483
REMARK INTER + INTRA:         -20.804
REMARK INTER:                 -11.615
REMARK INTRA:                  -9.189
REMARK CONF_INDEPENDENT:        4.474
REMARK UNBOUND:                -9.189
REMARK  15 active torsions:
REMARK  status: ('A' for Active; 'I' for Inactive)
REMARK    1  A    between atoms: C_2  and  C_4 
REMARK    2  A    between atoms: C_2  and  N_6 
REMARK    3  A    between atoms: C_4  and  O_5 
REMARK       I    between atoms: N_6  and  C_7 
REMARK    4  A    between atoms: C_9  and  C_7 
REMARK    5  A    between atoms: N_18  and  C_19 
REMARK    6  A    between atoms: C_19  and  C_20 
REMARK    7  A    between atoms: C_20  and  O_21 
REMARK    8  A    between atoms: C_22  and  C_20 
REMARK    9  A    between atoms: C_22  and  N_31 
REMARK   10  A    between atoms: C_22  and  C_23 
REMARK   11  A    between atoms: C_23  and  S_24 
REMARK   12  A    between atoms: S_24  and  C_25 
REMARK       I    between atoms: N_31  and  C_32 
REMARK   13  A    between atoms: C_32  and  O_34 
REMARK   14  A    between atoms: O_34  and  C_35 
REMARK   15  A    between atoms: C_35  and  C_36 
ROOT
ATOM      1  C   UNL d   1      30.683 -14.719  -0.249  0.00  0.00     0.167 C 
ENDROOT
BRANCH   1   2
ATOM      2  C   UNL d   1      30.865 -15.276   1.179  0.00  0.00     0.269 C 
BRANCH   2   3
ATOM      3  N   UNL d   1      30.247 -14.376   2.270  0.00  0.00    -0.055 N 
ATOM      4  C   UNL d   1      30.963 -14.452   3.601  0.00  0.00     0.241 C 
ATOM      5  C   UNL d   1      30.229 -13.751   4.730  0.00  0.00     0.016 C 
ATOM      6  C   UNL d   1      30.025 -12.276   4.420  0.00  0.00     0.007 C 
ATOM      7  C   UNL d   1      28.914 -14.479   4.951  0.00  0.00    -0.006 C 
ATOM      8  C   UNL d   1      29.094 -11.516   5.334  0.00  0.00     0.000 C 
ATOM      9  C   UNL d   1      27.776 -12.270   5.486  0.00  0.00     0.000 C 
ATOM     10  C   UNL d   1      28.032 -13.708   5.943  0.00  0.00     0.005 C 
ATOM     11  C   UNL d   1      28.111 -14.749   3.670  0.00  0.00     0.048 C 
ATOM     12  C   UNL d   1      28.742 -14.575   2.294  0.00  0.00     0.279 C 
ATOM     13  H   UNL d   1      30.375 -13.419   1.954  0.00  0.00     0.281 HD
BRANCH  12  14
ATOM     14  C   UNL d   1      27.968 -13.438   1.561  0.00  0.00     0.249 C 
ATOM     15  N   UNL d   1      28.557 -12.181   1.522  0.00  0.00    -0.349 N 
ATOM     16  H   UNL d   1      29.550 -12.046   1.448  0.00  0.00     0.163 HD
ATOM     17  O   UNL d   1      26.831 -13.653   1.151  0.00  0.00    -0.271 OA
BRANCH  15  18
ATOM     18  C   UNL d   1      27.867 -10.944   1.139  0.00  0.00     0.046 C 
ATOM     19  C   UNL d   1      28.860  -9.749   1.191  0.00  0.00     0.040 C 
ATOM     20  C   UNL d   1      26.726 -10.616   2.117  0.00  0.00     0.040 C 
BRANCH  18  21
ATOM     21  C   UNL d   1      27.406 -11.155  -0.309  0.00  0.00     0.194 C 
BRANCH  21  22
ATOM     22  O   UNL d   1      28.193 -12.101  -0.991  0.00  0.00    -0.398 OA
ATOM     23  H   UNL d   1      28.200 -12.908  -0.449  0.00  0.00     0.209 HD
ENDBRANCH  21  22
ENDBRANCH  18  21
ENDBRANCH  15  18
ENDBRANCH  12  14
ENDBRANCH   2   3
ENDBRANCH   1   2
BRANCH   1  24
ATOM     24  O   UNL d   1      30.397 -13.326  -0.103  0.00  0.00    -0.392 OA
ATOM     25  H   UNL d   1      29.971 -12.982  -0.910  0.00  0.00     0.210 HD
ENDBRANCH   1  24
BRANCH   1  26
ATOM     26  C   UNL d   1      29.669 -15.571  -1.094  0.00  0.00     0.126 C 
BRANCH  26  27
ATOM     27  N   UNL d   1      28.260 -15.352  -0.744  0.00  0.00    -0.329 N 
ATOM     28  C   UNL d   1      27.393 -16.354  -0.420  0.00  0.00     0.361 C 
ATOM     29  O   UNL d   1      27.707 -17.550  -0.491  0.00  0.00    -0.238 OA
ATOM     30  H   UNL d   1      27.923 -14.400  -0.614  0.00  0.00     0.165 HD
BRANCH  28  31
ATOM     31  O   UNL d   1      26.234 -15.907   0.065  0.00  0.00    -0.299 OA
BRANCH  31  32
ATOM     32  C   UNL d   1      25.172 -15.743  -0.910  0.00  0.00     0.219 C 
BRANCH  32  33
ATOM     33  C   UNL d   1      24.176 -16.865  -0.743  0.00  0.00    -0.034 A 
ATOM     34  C   UNL d   1      24.586 -18.183  -0.486  0.00  0.00     0.009 A 
ATOM     35  C   UNL d   1      23.651 -19.226  -0.517  0.00  0.00     0.001 A 
ATOM     36  C   UNL d   1      22.299 -18.951  -0.717  0.00  0.00     0.000 A 
ATOM     37  C   UNL d   1      21.876 -17.639  -0.891  0.00  0.00     0.001 A 
ATOM     38  C   UNL d   1      22.806 -16.607  -0.893  0.00  0.00     0.009 A 
ENDBRANCH  32  33
ENDBRANCH  31  32
ENDBRANCH  28  31
ENDBRANCH  26  27
BRANCH  26  39
ATOM     39  C   UNL d   1      29.993 -15.394  -2.614  0.00  0.00     0.107 C 
BRANCH  39  40
ATOM     40  S   UNL d   1      29.557 -13.704  -3.154  0.00  0.00    -0.128 SA
BRANCH  40  41
ATOM     41  C   UNL d   1      27.833 -13.834  -3.591  0.00  0.00     0.000 A 
ATOM     42  C   UNL d   1      27.332 -15.120  -3.833  0.00  0.00     0.018 A 
ATOM     43  C   UNL d   1      25.987 -15.315  -4.153  0.00  0.00     0.001 A 
ATOM     44  C   UNL d   1      25.112 -14.234  -4.158  0.00  0.00     0.000 A 
ATOM     45  C   UNL d   1      25.592 -12.952  -3.892  0.00  0.00     0.001 A 
ATOM     46  C   UNL d   1      26.951 -12.750  -3.620  0.00  0.00     0.018 A 
ENDBRANCH  40  41
ENDBRANCH  39  40
ENDBRANCH  26  39
ENDBRANCH   1  26
TORSDOF 15
ENDMDL
MODEL 5
REMARK VINA RESULT:    -6.972      2.722      5.155
REMARK INTER + INTRA:         -20.078
REMARK INTER:                 -11.446
REMARK INTRA:                  -8.631
REMARK CONF_INDEPENDENT:        4.474
REMARK UNBOUND:                -8.631
REMARK  15 active torsions:
REMARK  status: ('A' for Active; 'I' for Inactive)
REMARK    1  A    between atoms: C_2  and  C_4 
REMARK    2  A    between atoms: C_2  and  N_6 
REMARK    3  A    between atoms: C_4  and  O_5 
REMARK       I    between atoms: N_6  and  C_7 
REMARK    4  A    between atoms: C_9  and  C_7 
REMARK    5  A    between atoms: N_18  and  C_19 
REMARK    6  A    between atoms: C_19  and  C_20 
REMARK    7  A    between atoms: C_20  and  O_21 
REMARK    8  A    between atoms: C_22  and  C_20 
REMARK    9  A    between atoms: C_22  and  N_31 
REMARK   10  A    between atoms: C_22  and  C_23 
REMARK   11  A    between atoms: C_23  and  S_24 
REMARK   12  A    between atoms: S_24  and  C_25 
REMARK       I    between atoms: N_31  and  C_32 
REMARK   13  A    between atoms: C_32  and  O_34 
REMARK   14  A    between atoms: O_34  and  C_35 
REMARK   15  A    between atoms: C_35  and  C_36 
ROOT
ATOM      1  C   UNL d   1      28.322 -13.494  -0.305  0.00  0.00     0.167 C 
ENDROOT
BRANCH   1   2
ATOM      2  C   UNL d   1      27.028 -13.425  -1.144  0.00  0.00     0.269 C 
BRANCH   2   3
ATOM      3  N   UNL d   1      27.255 -12.891  -2.574  0.00  0.00    -0.055 N 
ATOM      4  C   UNL d   1      27.094 -11.391  -2.697  0.00  0.00     0.241 C 
ATOM      5  C   UNL d   1      27.090 -10.893  -4.130  0.00  0.00     0.016 C 
ATOM      6  C   UNL d   1      28.382 -11.260  -4.843  0.00  0.00     0.007 C 
ATOM      7  C   UNL d   1      25.868 -11.475  -4.821  0.00  0.00    -0.006 C 
ATOM      8  C   UNL d   1      28.412 -11.051  -6.338  0.00  0.00     0.000 C 
ATOM      9  C   UNL d   1      27.187 -11.691  -6.982  0.00  0.00     0.000 C 
ATOM     10  C   UNL d   1      25.906 -11.175  -6.326  0.00  0.00     0.005 C 
ATOM     11  C   UNL d   1      25.678 -12.985  -4.615  0.00  0.00     0.048 C 
ATOM     12  C   UNL d   1      26.475 -13.742  -3.559  0.00  0.00     0.279 C 
ATOM     13  H   UNL d   1      28.230 -13.072  -2.792  0.00  0.00     0.281 HD
BRANCH  12  14
ATOM     14  C   UNL d   1      27.366 -14.785  -4.298  0.00  0.00     0.249 C 
ATOM     15  N   UNL d   1      28.707 -14.852  -3.942  0.00  0.00    -0.349 N 
ATOM     16  H   UNL d   1      29.029 -14.705  -3.002  0.00  0.00     0.163 HD
ATOM     17  O   UNL d   1      26.895 -15.421  -5.236  0.00  0.00    -0.271 OA
BRANCH  15  18
ATOM     18  C   UNL d   1      29.744 -15.552  -4.709  0.00  0.00     0.046 C 
ATOM     19  C   UNL d   1      29.543 -15.288  -6.228  0.00  0.00     0.040 C 
ATOM     20  C   UNL d   1      29.655 -17.074  -4.507  0.00  0.00     0.040 C 
BRANCH  18  21
ATOM     21  C   UNL d   1      31.077 -14.940  -4.262  0.00  0.00     0.194 C 
BRANCH  21  22
ATOM     22  O   UNL d   1      31.041 -14.482  -2.932  0.00  0.00    -0.398 OA
ATOM     23  H   UNL d   1      30.370 -15.013  -2.468  0.00  0.00     0.209 HD
ENDBRANCH  21  22
ENDBRANCH  18  21
ENDBRANCH  15  18
ENDBRANCH  12  14
ENDBRANCH   2   3
ENDBRANCH   1   2
BRANCH   1  24
ATOM     24  O   UNL d   1      29.404 -13.515  -1.237  0.00  0.00    -0.392 OA
ATOM     25  H   UNL d   1      29.975 -14.290  -1.075  0.00  0.00     0.210 HD
ENDBRANCH   1  24
BRANCH   1  26
ATOM     26  C   UNL d   1      28.276 -14.646   0.764  0.00  0.00     0.126 C 
BRANCH  26  27
ATOM     27  N   UNL d   1      27.661 -15.889   0.282  0.00  0.00    -0.329 N 
ATOM     28  C   UNL d   1      28.138 -16.614  -0.770  0.00  0.00     0.361 C 
ATOM     29  O   UNL d   1      29.083 -16.224  -1.470  0.00  0.00    -0.238 OA
ATOM     30  H   UNL d   1      26.909 -16.312   0.822  0.00  0.00     0.165 HD
BRANCH  28  31
ATOM     31  O   UNL d   1      27.552 -17.806  -0.893  0.00  0.00    -0.299 OA
BRANCH  31  32
ATOM     32  C   UNL d   1      26.632 -18.161   0.170  0.00  0.00     0.219 C 
BRANCH  32  33
ATOM     33  C   UNL d   1      25.229 -17.800  -0.255  0.00  0.00    -0.034 A 
ATOM     34  C   UNL d   1      24.966 -16.670  -1.046  0.00  0.00     0.009 A 
ATOM     35  C   UNL d   1      23.645 -16.264  -1.270  0.00  0.00     0.001 A 
ATOM     36  C   UNL d   1      22.584 -17.024  -0.781  0.00  0.00     0.000 A 
ATOM     37  C   UNL d   1      22.836 -18.188  -0.065  0.00  0.00     0.001 A 
ATOM     38  C   UNL d   1      24.147 -18.575   0.185  0.00  0.00     0.009 A 
ENDBRANCH  32  33
ENDBRANCH  31  32
ENDBRANCH  28  31
ENDBRANCH  26  27
BRANCH  26  39
ATOM     39  C   UNL d   1      29.701 -14.827   1.384  0.00  0.00     0.107 C 
BRANCH  39  40
ATOM     40  S   UNL d   1      30.221 -13.285   2.215  0.00  0.00    -0.128 SA
BRANCH  40  41
ATOM     41  C   UNL d   1      29.397 -13.359   3.794  0.00  0.00     0.000 A 
ATOM     42  C   UNL d   1      28.840 -12.168   4.279  0.00  0.00     0.018 A 
ATOM     43  C   UNL d   1      28.152 -12.143   5.493  0.00  0.00     0.001 A 
ATOM     44  C   UNL d   1      27.946 -13.324   6.198  0.00  0.00     0.000 A 
ATOM     45  C   UNL d   1      28.470 -14.521   5.712  0.00  0.00     0.001 A 
ATOM     46  C   UNL d   1      29.203 -14.538   4.519  0.00  0.00     0.018 A 
ENDBRANCH  40  41
ENDBRANCH  39  40
ENDBRANCH  26  39
ENDBRANCH   1  26
TORSDOF 15
ENDMDL
MODEL 6
REMARK VINA RESULT:    -6.863      4.912      8.097
REMARK INTER + INTRA:         -20.972
REMARK INTER:                 -11.338
REMARK INTRA:                  -9.634
REMARK CONF_INDEPENDENT:        4.474
REMARK UNBOUND:                -9.634
REMARK  15 active torsions:
REMARK  status: ('A' for Active; 'I' for Inactive)
REMARK    1  A    between atoms: C_2  and  C_4 
REMARK    2  A    between atoms: C_2  and  N_6 
REMARK    3  A    between atoms: C_4  and  O_5 
REMARK       I    between atoms: N_6  and  C_7 
REMARK    4  A    between atoms: C_9  and  C_7 
REMARK    5  A    between atoms: N_18  and  C_19 
REMARK    6  A    between atoms: C_19  and  C_20 
REMARK    7  A    between atoms: C_20  and  O_21 
REMARK    8  A    between atoms: C_22  and  C_20 
REMARK    9  A    between atoms: C_22  and  N_31 
REMARK   10  A    between atoms: C_22  and  C_23 
REMARK   11  A    between atoms: C_23  and  S_24 
REMARK   12  A    between atoms: S_24  and  C_25 
REMARK       I    between atoms: N_31  and  C_32 
REMARK   13  A    between atoms: C_32  and  O_34 
REMARK   14  A    between atoms: O_34  and  C_35 
REMARK   15  A    between atoms: C_35  and  C_36 
ROOT
ATOM      1  C   UNL d   1      28.554 -14.824   2.082  0.00  0.00     0.167 C 
ENDROOT
BRANCH   1   2
ATOM      2  C   UNL d   1      28.010 -14.811   3.526  0.00  0.00     0.269 C 
BRANCH   2   3
ATOM      3  N   UNL d   1      28.716 -13.782   4.435  0.00  0.00    -0.055 N 
ATOM      4  C   UNL d   1      29.659 -14.405   5.442  0.00  0.00     0.241 C 
ATOM      5  C   UNL d   1      30.176 -13.427   6.481  0.00  0.00     0.016 C 
ATOM      6  C   UNL d   1      30.924 -12.275   5.826  0.00  0.00     0.007 C 
ATOM      7  C   UNL d   1      28.989 -12.948   7.300  0.00  0.00    -0.006 C 
ATOM      8  C   UNL d   1      31.272 -11.104   6.713  0.00  0.00     0.000 C 
ATOM      9  C   UNL d   1      30.037 -10.639   7.477  0.00  0.00     0.000 C 
ATOM     10  C   UNL d   1      29.408 -11.807   8.238  0.00  0.00     0.005 C 
ATOM     11  C   UNL d   1      27.781 -12.495   6.468  0.00  0.00     0.048 C 
ATOM     12  C   UNL d   1      27.691 -12.803   4.978  0.00  0.00     0.279 C 
ATOM     13  H   UNL d   1      29.308 -13.226   3.827  0.00  0.00     0.281 HD
BRANCH  12  14
ATOM     14  C   UNL d   1      27.688 -11.444   4.215  0.00  0.00     0.249 C 
ATOM     15  N   UNL d   1      28.464 -11.349   3.066  0.00  0.00    -0.349 N 
ATOM     16  H   UNL d   1      28.596 -12.117   2.433  0.00  0.00     0.163 HD
ATOM     17  O   UNL d   1      27.106 -10.481   4.705  0.00  0.00    -0.271 OA
BRANCH  15  18
ATOM     18  C   UNL d   1      28.810 -10.094   2.390  0.00  0.00     0.046 C 
ATOM     19  C   UNL d   1      29.378  -9.079   3.421  0.00  0.00     0.040 C 
ATOM     20  C   UNL d   1      27.568  -9.440   1.760  0.00  0.00     0.040 C 
BRANCH  18  21
ATOM     21  C   UNL d   1      29.905 -10.454   1.379  0.00  0.00     0.194 C 
BRANCH  21  22
ATOM     22  O   UNL d   1      29.535 -11.520   0.540  0.00  0.00    -0.398 OA
ATOM     23  H   UNL d   1      28.611 -11.739   0.751  0.00  0.00     0.209 HD
ENDBRANCH  21  22
ENDBRANCH  18  21
ENDBRANCH  15  18
ENDBRANCH  12  14
ENDBRANCH   2   3
ENDBRANCH   1   2
BRANCH   1  24
ATOM     24  O   UNL d   1      29.207 -13.569   1.887  0.00  0.00    -0.392 OA
ATOM     25  H   UNL d   1      28.805 -13.091   1.138  0.00  0.00     0.210 HD
ENDBRANCH   1  24
BRANCH   1  26
ATOM     26  C   UNL d   1      27.451 -15.226   1.036  0.00  0.00     0.126 C 
BRANCH  26  27
ATOM     27  N   UNL d   1      27.186 -14.201   0.018  0.00  0.00    -0.329 N 
ATOM     28  C   UNL d   1      26.892 -12.902   0.307  0.00  0.00     0.361 C 
ATOM     29  O   UNL d   1      26.730 -12.502   1.469  0.00  0.00    -0.238 OA
ATOM     30  H   UNL d   1      27.342 -14.425  -0.963  0.00  0.00     0.165 HD
BRANCH  28  31
ATOM     31  O   UNL d   1      26.899 -12.111  -0.767  0.00  0.00    -0.299 OA
BRANCH  31  32
ATOM     32  C   UNL d   1      27.783 -12.525  -1.840  0.00  0.00     0.219 C 
BRANCH  32  33
ATOM     33  C   UNL d   1      26.980 -13.275  -2.875  0.00  0.00    -0.034 A 
ATOM     34  C   UNL d   1      25.577 -13.222  -2.900  0.00  0.00     0.009 A 
ATOM     35  C   UNL d   1      24.859 -14.068  -3.755  0.00  0.00     0.001 A 
ATOM     36  C   UNL d   1      25.533 -14.903  -4.645  0.00  0.00     0.000 A 
ATOM     37  C   UNL d   1      26.923 -14.900  -4.682  0.00  0.00     0.001 A 
ATOM     38  C   UNL d   1      27.635 -14.086  -3.812  0.00  0.00     0.009 A 
ENDBRANCH  32  33
ENDBRANCH  31  32
ENDBRANCH  28  31
ENDBRANCH  26  27
BRANCH  26  39
ATOM     39  C   UNL d   1      27.783 -16.641   0.459  0.00  0.00     0.107 C 
BRANCH  39  40
ATOM     40  S   UNL d   1      26.982 -16.856  -1.169  0.00  0.00    -0.128 SA
BRANCH  40  41
ATOM     41  C   UNL d   1      25.277 -17.183  -0.760  0.00  0.00     0.000 A 
ATOM     42  C   UNL d   1      24.333 -16.224  -1.151  0.00  0.00     0.018 A 
ATOM     43  C   UNL d   1      22.974 -16.414  -0.896  0.00  0.00     0.001 A 
ATOM     44  C   UNL d   1      22.537 -17.600  -0.316  0.00  0.00     0.000 A 
ATOM     45  C   UNL d   1      23.463 -18.574   0.053  0.00  0.00     0.001 A 
ATOM     46  C   UNL d   1      24.832 -18.363  -0.158  0.00  0.00     0.018 A 
ENDBRANCH  40  41
ENDBRANCH  39  40
ENDBRANCH  26  39
ENDBRANCH   1  26
TORSDOF 15
ENDMDL
MODEL 7
REMARK VINA RESULT:    -6.406      3.966      7.579
REMARK INTER + INTRA:         -20.584
REMARK INTER:                 -10.880
REMARK INTRA:                  -9.704
REMARK CONF_INDEPENDENT:        4.474
REMARK UNBOUND:                -9.704
REMARK  15 active torsions:
REMARK  status: ('A' for Active; 'I' for Inactive)
REMARK    1  A    between atoms: C_2  and  C_4 
REMARK    2  A    between atoms: C_2  and  N_6 
REMARK    3  A    between atoms: C_4  and  O_5 
REMARK       I    between atoms: N_6  and  C_7 
REMARK    4  A    between atoms: C_9  and  C_7 
REMARK    5  A    between atoms: N_18  and  C_19 
REMARK    6  A    between atoms: C_19  and  C_20 
REMARK    7  A    between atoms: C_20  and  O_21 
REMARK    8  A    between atoms: C_22  and  C_20 
REMARK    9  A    between atoms: C_22  and  N_31 
REMARK   10  A    between atoms: C_22  and  C_23 
REMARK   11  A    between atoms: C_23  and  S_24 
REMARK   12  A    between atoms: S_24  and  C_25 
REMARK       I    between atoms: N_31  and  C_32 
REMARK   13  A    between atoms: C_32  and  O_34 
REMARK   14  A    between atoms: O_34  and  C_35 
REMARK   15  A    between atoms: C_35  and  C_36 
ROOT
ATOM      1  C   UNL d   1      31.714 -14.943   0.541  0.00  0.00     0.167 C 
ENDROOT
BRANCH   1   2
ATOM      2  C   UNL d   1      31.645 -15.102   2.075  0.00  0.00     0.269 C 
BRANCH   2   3
ATOM      3  N   UNL d   1      30.995 -13.896   2.786  0.00  0.00    -0.055 N 
ATOM      4  C   UNL d   1      31.986 -13.002   3.498  0.00  0.00     0.241 C 
ATOM      5  C   UNL d   1      31.336 -11.953   4.382  0.00  0.00     0.016 C 
ATOM      6  C   UNL d   1      30.420 -11.046   3.576  0.00  0.00     0.007 C 
ATOM      7  C   UNL d   1      30.595 -12.677   5.494  0.00  0.00    -0.006 C 
ATOM      8  C   UNL d   1      29.519 -10.124   4.363  0.00  0.00     0.000 C 
ATOM      9  C   UNL d   1      28.769 -10.910   5.433  0.00  0.00     0.000 C 
ATOM     10  C   UNL d   1      29.751 -11.689   6.311  0.00  0.00     0.005 C 
ATOM     11  C   UNL d   1      29.698 -13.829   5.017  0.00  0.00     0.048 C 
ATOM     12  C   UNL d   1      29.803 -14.373   3.597  0.00  0.00     0.279 C 
ATOM     13  H   UNL d   1      30.594 -13.319   2.054  0.00  0.00     0.281 HD
BRANCH  12  14
ATOM     14  C   UNL d   1      28.441 -14.107   2.888  0.00  0.00     0.249 C 
ATOM     15  N   UNL d   1      28.462 -13.366   1.712  0.00  0.00    -0.349 N 
ATOM     16  H   UNL d   1      29.210 -13.424   1.045  0.00  0.00     0.163 HD
ATOM     17  O   UNL d   1      27.400 -14.451   3.438  0.00  0.00    -0.271 OA
BRANCH  15  18
ATOM     18  C   UNL d   1      27.280 -12.780   1.070  0.00  0.00     0.046 C 
ATOM     19  C   UNL d   1      26.538 -11.857   2.077  0.00  0.00     0.040 C 
ATOM     20  C   UNL d   1      26.280 -13.867   0.644  0.00  0.00     0.040 C 
BRANCH  18  21
ATOM     21  C   UNL d   1      27.815 -11.934  -0.091  0.00  0.00     0.194 C 
BRANCH  21  22
ATOM     22  O   UNL d   1      29.101 -12.330  -0.499  0.00  0.00    -0.398 OA
ATOM     23  H   UNL d   1      29.093 -13.301  -0.558  0.00  0.00     0.209 HD
ENDBRANCH  21  22
ENDBRANCH  18  21
ENDBRANCH  15  18
ENDBRANCH  12  14
ENDBRANCH   2   3
ENDBRANCH   1   2
BRANCH   1  24
ATOM     24  O   UNL d   1      31.037 -13.722   0.234  0.00  0.00    -0.392 OA
ATOM     25  H   UNL d   1      30.553 -13.807  -0.609  0.00  0.00     0.210 HD
ENDBRANCH   1  24
BRANCH   1  26
ATOM     26  C   UNL d   1      31.233 -16.236  -0.212  0.00  0.00     0.126 C 
BRANCH  26  27
ATOM     27  N   UNL d   1      29.927 -16.740   0.232  0.00  0.00    -0.329 N 
ATOM     28  C   UNL d   1      28.753 -16.070   0.054  0.00  0.00     0.361 C 
ATOM     29  O   UNL d   1      28.709 -14.924  -0.417  0.00  0.00    -0.238 OA
ATOM     30  H   UNL d   1      29.858 -17.692   0.587  0.00  0.00     0.165 HD
BRANCH  28  31
ATOM     31  O   UNL d   1      27.680 -16.807   0.343  0.00  0.00    -0.299 OA
BRANCH  31  32
ATOM     32  C   UNL d   1      27.047 -17.457  -0.790  0.00  0.00     0.219 C 
BRANCH  32  33
ATOM     33  C   UNL d   1      25.550 -17.421  -0.601  0.00  0.00    -0.034 A 
ATOM     34  C   UNL d   1      24.858 -18.476   0.015  0.00  0.00     0.009 A 
ATOM     35  C   UNL d   1      23.458 -18.493   0.011  0.00  0.00     0.001 A 
ATOM     36  C   UNL d   1      22.745 -17.423  -0.527  0.00  0.00     0.000 A 
ATOM     37  C   UNL d   1      23.424 -16.337  -1.067  0.00  0.00     0.001 A 
ATOM     38  C   UNL d   1      24.812 -16.334  -1.093  0.00  0.00     0.009 A 
ENDBRANCH  32  33
ENDBRANCH  31  32
ENDBRANCH  28  31
ENDBRANCH  26  27
BRANCH  26  39
ATOM     39  C   UNL d   1      31.346 -16.002  -1.755  0.00  0.00     0.107 C 
BRANCH  39  40
ATOM     40  S   UNL d   1      30.274 -17.183  -2.646  0.00  0.00    -0.128 SA
BRANCH  40  41
ATOM     41  C   UNL d   1      29.256 -16.136  -3.670  0.00  0.00     0.000 A 
ATOM     42  C   UNL d   1      29.643 -15.982  -5.008  0.00  0.00     0.018 A 
ATOM     43  C   UNL d   1      28.888 -15.204  -5.886  0.00  0.00     0.001 A 
ATOM     44  C   UNL d   1      27.694 -14.635  -5.455  0.00  0.00     0.000 A 
ATOM     45  C   UNL d   1      27.283 -14.803  -4.134  0.00  0.00     0.001 A 
ATOM     46  C   UNL d   1      28.066 -15.543  -3.240  0.00  0.00     0.018 A 
ENDBRANCH  40  41
ENDBRANCH  39  40
ENDBRANCH  26  39
ENDBRANCH   1  26
TORSDOF 15
ENDMDL
MODEL 8
REMARK VINA RESULT:    -6.324      3.397      6.775
REMARK INTER + INTRA:         -20.322
REMARK INTER:                 -10.799
REMARK INTRA:                  -9.523
REMARK CONF_INDEPENDENT:        4.474
REMARK UNBOUND:                -9.523
REMARK  15 active torsions:
REMARK  status: ('A' for Active; 'I' for Inactive)
REMARK    1  A    between atoms: C_2  and  C_4 
REMARK    2  A    between atoms: C_2  and  N_6 
REMARK    3  A    between atoms: C_4  and  O_5 
REMARK       I    between atoms: N_6  and  C_7 
REMARK    4  A    between atoms: C_9  and  C_7 
REMARK    5  A    between atoms: N_18  and  C_19 
REMARK    6  A    between atoms: C_19  and  C_20 
REMARK    7  A    between atoms: C_20  and  O_21 
REMARK    8  A    between atoms: C_22  and  C_20 
REMARK    9  A    between atoms: C_22  and  N_31 
REMARK   10  A    between atoms: C_22  and  C_23 
REMARK   11  A    between atoms: C_23  and  S_24 
REMARK   12  A    between atoms: S_24  and  C_25 
REMARK       I    between atoms: N_31  and  C_32 
REMARK   13  A    between atoms: C_32  and  O_34 
REMARK   14  A    between atoms: O_34  and  C_35 
REMARK   15  A    between atoms: C_35  and  C_36 
ROOT
ATOM      1  C   UNL d   1      30.494 -14.862  -0.280  0.00  0.00     0.167 C 
ENDROOT
BRANCH   1   2
ATOM      2  C   UNL d   1      30.395 -15.404   1.161  0.00  0.00     0.269 C 
BRANCH   2   3
ATOM      3  N   UNL d   1      29.905 -14.351   2.178  0.00  0.00    -0.055 N 
ATOM      4  C   UNL d   1      30.718 -14.312   3.453  0.00  0.00     0.241 C 
ATOM      5  C   UNL d   1      30.108 -13.446   4.540  0.00  0.00     0.016 C 
ATOM      6  C   UNL d   1      29.948 -12.008   4.071  0.00  0.00     0.007 C 
ATOM      7  C   UNL d   1      28.782 -14.070   4.941  0.00  0.00    -0.006 C 
ATOM      8  C   UNL d   1      29.126 -11.097   4.953  0.00  0.00     0.000 C 
ATOM      9  C   UNL d   1      27.791 -11.756   5.288  0.00  0.00     0.000 C 
ATOM     10  C   UNL d   1      28.016 -13.142   5.894  0.00  0.00     0.005 C 
ATOM     11  C   UNL d   1      27.870 -14.443   3.763  0.00  0.00     0.048 C 
ATOM     12  C   UNL d   1      28.399 -14.464   2.334  0.00  0.00     0.279 C 
ATOM     13  H   UNL d   1      30.052 -13.447   1.741  0.00  0.00     0.281 HD
BRANCH  12  14
ATOM     14  C   UNL d   1      27.623 -13.380   1.528  0.00  0.00     0.249 C 
ATOM     15  N   UNL d   1      28.370 -12.448   0.818  0.00  0.00    -0.349 N 
ATOM     16  H   UNL d   1      29.241 -12.675   0.371  0.00  0.00     0.163 HD
ATOM     17  O   UNL d   1      26.402 -13.310   1.636  0.00  0.00    -0.271 OA
BRANCH  15  18
ATOM     18  C   UNL d   1      27.838 -11.206   0.247  0.00  0.00     0.046 C 
ATOM     19  C   UNL d   1      26.861 -10.539   1.256  0.00  0.00     0.040 C 
ATOM     20  C   UNL d   1      27.033 -11.482  -1.035  0.00  0.00     0.040 C 
BRANCH  18  21
ATOM     21  C   UNL d   1      29.050 -10.291   0.037  0.00  0.00     0.194 C 
BRANCH  21  22
ATOM     22  O   UNL d   1      30.263 -11.002   0.008  0.00  0.00    -0.398 OA
ATOM     23  H   UNL d   1      30.259 -11.537  -0.805  0.00  0.00     0.209 HD
ENDBRANCH  21  22
ENDBRANCH  18  21
ENDBRANCH  15  18
ENDBRANCH  12  14
ENDBRANCH   2   3
ENDBRANCH   1   2
BRANCH   1  24
ATOM     24  O   UNL d   1      30.892 -13.495  -0.168  0.00  0.00    -0.392 OA
ATOM     25  H   UNL d   1      30.409 -12.948  -0.816  0.00  0.00     0.210 HD
ENDBRANCH   1  24
BRANCH   1  26
ATOM     26  C   UNL d   1      29.199 -15.163  -1.119  0.00  0.00     0.126 C 
BRANCH  26  27
ATOM     27  N   UNL d   1      29.269 -14.713  -2.515  0.00  0.00    -0.329 N 
ATOM     28  C   UNL d   1      29.429 -13.411  -2.887  0.00  0.00     0.361 C 
ATOM     29  O   UNL d   1      29.433 -12.483  -2.065  0.00  0.00    -0.238 OA
ATOM     30  H   UNL d   1      29.321 -15.408  -3.258  0.00  0.00     0.165 HD
BRANCH  28  31
ATOM     31  O   UNL d   1      29.676 -13.265  -4.189  0.00  0.00    -0.299 OA
BRANCH  31  32
ATOM     32  C   UNL d   1      28.854 -14.068  -5.074  0.00  0.00     0.219 C 
BRANCH  32  33
ATOM     33  C   UNL d   1      27.403 -13.873  -4.706  0.00  0.00    -0.034 A 
ATOM     34  C   UNL d   1      26.798 -12.607  -4.737  0.00  0.00     0.009 A 
ATOM     35  C   UNL d   1      25.508 -12.434  -4.219  0.00  0.00     0.001 A 
ATOM     36  C   UNL d   1      24.787 -13.531  -3.749  0.00  0.00     0.000 A 
ATOM     37  C   UNL d   1      25.350 -14.801  -3.790  0.00  0.00     0.001 A 
ATOM     38  C   UNL d   1      26.642 -14.969  -4.274  0.00  0.00     0.009 A 
ENDBRANCH  32  33
ENDBRANCH  31  32
ENDBRANCH  28  31
ENDBRANCH  26  27
BRANCH  26  39
ATOM     39  C   UNL d   1      28.811 -16.668  -0.942  0.00  0.00     0.107 C 
BRANCH  39  40
ATOM     40  S   UNL d   1      27.776 -16.876   0.549  0.00  0.00    -0.128 SA
BRANCH  40  41
ATOM     41  C   UNL d   1      26.130 -17.078  -0.107  0.00  0.00     0.000 A 
ATOM     42  C   UNL d   1      25.454 -18.261   0.222  0.00  0.00     0.018 A 
ATOM     43  C   UNL d   1      24.152 -18.488  -0.225  0.00  0.00     0.001 A 
ATOM     44  C   UNL d   1      23.483 -17.501  -0.941  0.00  0.00     0.000 A 
ATOM     45  C   UNL d   1      24.135 -16.308  -1.251  0.00  0.00     0.001 A 
ATOM     46  C   UNL d   1      25.459 -16.100  -0.845  0.00  0.00     0.018 A 
ENDBRANCH  40  41
ENDBRANCH  39  40
ENDBRANCH  26  39
ENDBRANCH   1  26
TORSDOF 15
ENDMDL
MODEL 9
REMARK VINA RESULT:    -6.038      3.016      7.171
REMARK INTER + INTRA:         -20.191
REMARK INTER:                 -10.513
REMARK INTRA:                  -9.678
REMARK CONF_INDEPENDENT:        4.474
REMARK UNBOUND:                -9.678
REMARK  15 active torsions:
REMARK  status: ('A' for Active; 'I' for Inactive)
REMARK    1  A    between atoms: C_2  and  C_4 
REMARK    2  A    between atoms: C_2  and  N_6 
REMARK    3  A    between atoms: C_4  and  O_5 
REMARK       I    between atoms: N_6  and  C_7 
REMARK    4  A    between atoms: C_9  and  C_7 
REMARK    5  A    between atoms: N_18  and  C_19 
REMARK    6  A    between atoms: C_19  and  C_20 
REMARK    7  A    between atoms: C_20  and  O_21 
REMARK    8  A    between atoms: C_22  and  C_20 
REMARK    9  A    between atoms: C_22  and  N_31 
REMARK   10  A    between atoms: C_22  and  C_23 
REMARK   11  A    between atoms: C_23  and  S_24 
REMARK   12  A    between atoms: S_24  and  C_25 
REMARK       I    between atoms: N_31  and  C_32 
REMARK   13  A    between atoms: C_32  and  O_34 
REMARK   14  A    between atoms: O_34  and  C_35 
REMARK   15  A    between atoms: C_35  and  C_36 
ROOT
ATOM      1  C   UNL d   1      30.738 -15.889  -0.984  0.00  0.00     0.167 C 
ENDROOT
BRANCH   1   2
ATOM      2  C   UNL d   1      29.827 -16.144   0.236  0.00  0.00     0.269 C 
BRANCH   2   3
ATOM      3  N   UNL d   1      29.625 -14.896   1.120  0.00  0.00    -0.055 N 
ATOM      4  C   UNL d   1      30.570 -14.825   2.300  0.00  0.00     0.241 C 
ATOM      5  C   UNL d   1      30.227 -13.729   3.292  0.00  0.00     0.016 C 
ATOM      6  C   UNL d   1      30.246 -12.361   2.627  0.00  0.00     0.007 C 
ATOM      7  C   UNL d   1      28.871 -14.055   3.895  0.00  0.00    -0.006 C 
ATOM      8  C   UNL d   1      29.681 -11.212   3.428  0.00  0.00     0.000 C 
ATOM      9  C   UNL d   1      28.304 -11.579   3.972  0.00  0.00     0.000 C 
ATOM     10  C   UNL d   1      28.371 -12.889   4.759  0.00  0.00     0.005 C 
ATOM     11  C   UNL d   1      27.788 -14.421   2.870  0.00  0.00     0.048 C 
ATOM     12  C   UNL d   1      28.147 -14.725   1.420  0.00  0.00     0.279 C 
ATOM     13  H   UNL d   1      29.864 -14.097   0.540  0.00  0.00     0.281 HD
BRANCH  12  14
ATOM     14  C   UNL d   1      27.468 -13.642   0.529  0.00  0.00     0.249 C 
ATOM     15  N   UNL d   1      28.280 -12.920  -0.336  0.00  0.00    -0.349 N 
ATOM     16  H   UNL d   1      29.075 -13.321  -0.801  0.00  0.00     0.163 HD
ATOM     17  O   UNL d   1      26.280 -13.382   0.698  0.00  0.00    -0.271 OA
BRANCH  15  18
ATOM     18  C   UNL d   1      27.882 -11.689  -1.029  0.00  0.00     0.046 C 
ATOM     19  C   UNL d   1      27.380 -10.642   0.005  0.00  0.00     0.040 C 
ATOM     20  C   UNL d   1      26.717 -11.948  -1.999  0.00  0.00     0.040 C 
BRANCH  18  21
ATOM     21  C   UNL d   1      29.152 -11.162  -1.706  0.00  0.00     0.194 C 
BRANCH  21  22
ATOM     22  O   UNL d   1      30.231 -12.059  -1.601  0.00  0.00    -0.398 OA
ATOM     23  H   UNL d   1      29.967 -12.874  -2.062  0.00  0.00     0.209 HD
ENDBRANCH  21  22
ENDBRANCH  18  21
ENDBRANCH  15  18
ENDBRANCH  12  14
ENDBRANCH   2   3
ENDBRANCH   1   2
BRANCH   1  24
ATOM     24  O   UNL d   1      30.884 -14.472  -1.086  0.00  0.00    -0.392 OA
ATOM     25  H   UNL d   1      30.558 -14.159  -1.951  0.00  0.00     0.210 HD
ENDBRANCH   1  24
BRANCH   1  26
ATOM     26  C   UNL d   1      30.240 -16.650  -2.266  0.00  0.00     0.126 C 
BRANCH  26  27
ATOM     27  N   UNL d   1      28.790 -16.572  -2.487  0.00  0.00    -0.329 N 
ATOM     28  C   UNL d   1      28.118 -15.408  -2.714  0.00  0.00     0.361 C 
ATOM     29  O   UNL d   1      28.671 -14.301  -2.655  0.00  0.00    -0.238 OA
ATOM     30  H   UNL d   1      28.259 -17.434  -2.599  0.00  0.00     0.165 HD
BRANCH  28  31
ATOM     31  O   UNL d   1      26.854 -15.599  -3.095  0.00  0.00    -0.299 OA
BRANCH  31  32
ATOM     32  C   UNL d   1      25.845 -15.109  -2.175  0.00  0.00     0.219 C 
BRANCH  32  33
ATOM     33  C   UNL d   1      25.372 -16.253  -1.312  0.00  0.00    -0.034 A 
ATOM     34  C   UNL d   1      26.233 -16.904  -0.413  0.00  0.00     0.009 A 
ATOM     35  C   UNL d   1      25.815 -18.071   0.237  0.00  0.00     0.001 A 
ATOM     36  C   UNL d   1      24.516 -18.545   0.062  0.00  0.00     0.000 A 
ATOM     37  C   UNL d   1      23.632 -17.861  -0.764  0.00  0.00     0.001 A 
ATOM     38  C   UNL d   1      24.056 -16.721  -1.434  0.00  0.00     0.009 A 
ENDBRANCH  32  33
ENDBRANCH  31  32
ENDBRANCH  28  31
ENDBRANCH  26  27
BRANCH  26  39
ATOM     39  C   UNL d   1      31.106 -16.210  -3.492  0.00  0.00     0.107 C 
BRANCH  39  40
ATOM     40  S   UNL d   1      30.096 -16.239  -5.015  0.00  0.00    -0.128 SA
BRANCH  40  41
ATOM     41  C   UNL d   1      30.489 -17.815  -5.750  0.00  0.00     0.000 A 
ATOM     42  C   UNL d   1      30.401 -18.943  -4.924  0.00  0.00     0.018 A 
ATOM     43  C   UNL d   1      30.663 -20.219  -5.425  0.00  0.00     0.001 A 
ATOM     44  C   UNL d   1      30.941 -20.389  -6.777  0.00  0.00     0.000 A 
ATOM     45  C   UNL d   1      31.005 -19.277  -7.616  0.00  0.00     0.001 A 
ATOM     46  C   UNL d   1      30.790 -17.992  -7.103  0.00  0.00     0.018 A 
ENDBRANCH  40  41
ENDBRANCH  39  40
ENDBRANCH  26  39
ENDBRANCH   1  26
TORSDOF 15
ENDMDL
