MODEL 1
REMARK VINA RESULT:    -8.301      0.000      0.000
REMARK INTER + INTRA:         -13.590
REMARK INTER:                 -10.985
REMARK INTRA:                  -2.604
REMARK CONF_INDEPENDENT:        2.685
REMARK UNBOUND:                -2.604
REMARK  9 active torsions:
REMARK  status: ('A' for Active; 'I' for Inactive)
REMARK    1  A    between atoms: CG_2  and  CB_4 
REMARK    2  A    between atoms: CB_4  and  CA_5 
REMARK    3  A    between atoms: CA_5  and  N_6 
REMARK    4  A    between atoms: CA_5  and  C_32 
REMARK       I    between atoms: N_6  and  C_7 
REMARK    5  A    between atoms: C_7  and  C_9 
REMARK    6  A    between atoms: C_9  and  C_10 
REMARK    7  A    between atoms: C_9  and  N_20 
REMARK    8  A    between atoms: C_10  and  C_11 
REMARK    9  A    between atoms: C_30  and  O_31 
ROOT
ATOM      1  C   UNK d   0      28.374 -13.144   1.933  0.00  0.00     0.188 C 
ENDROOT
BRANCH   1   2
ATOM      2  C   UNK d   0      28.217 -11.600   1.578  0.00  0.00     0.241 C 
ATOM      3  N   LEU d   1      26.908 -11.168   1.331  0.00  0.00    -0.345 N 
ATOM      4  H   LEU d   1      26.165 -11.837   1.151  0.00  0.00     0.163 HD
ATOM      5  O   UNK d   0      29.190 -10.845   1.592  0.00  0.00    -0.271 OA
BRANCH   3   6
ATOM      6  CA  LEU d   1      26.412  -9.765   1.359  0.00  0.00     0.185 C 
BRANCH   6   7
ATOM      7  CB  LEU d   1      27.302  -8.838   0.474  0.00  0.00     0.040 C 
BRANCH   7   8
ATOM      8  CG  LEU d   1      26.559  -8.063  -0.626  0.00  0.00    -0.020 C 
ATOM      9  CD1 LEU d   1      26.284  -8.866  -1.883  0.00  0.00     0.009 C 
ATOM     10  CD2 LEU d   1      25.153  -7.682  -0.202  0.00  0.00     0.009 C 
ENDBRANCH   7   8
ENDBRANCH   6   7
BRANCH   6  11
ATOM     11  C   LEU d   1      26.330  -9.148   2.829  0.00  0.00     0.196 C 
ATOM     12  O   LEU d   1      26.302  -9.967   3.793  0.00  0.00    -0.646 OA
ATOM     13  OXT LEU d   1      26.280  -7.880   2.885  0.00  0.00    -0.646 OA
ENDBRANCH   6  11
ENDBRANCH   3   6
ENDBRANCH   1   2
BRANCH   1  14
ATOM     14  C   UNK d   0      27.380 -13.320   3.093  0.00  0.00     0.076 C 
BRANCH  14  15
ATOM     15  C   UNK d   0      27.997 -13.792   4.357  0.00  0.00    -0.028 A 
ATOM     16  C   UNK d   0      28.155 -15.110   4.744  0.00  0.00     0.096 A 
ATOM     17  N   UNK d   0      28.488 -15.120   6.075  0.00  0.00    -0.365 N 
ATOM     18  C   UNK d   0      28.606 -13.822   6.528  0.00  0.00     0.042 A 
ATOM     19  H   UNK d   0      28.430 -15.951   6.658  0.00  0.00     0.165 HD
ATOM     20  C   UNK d   0      28.888 -13.325   7.800  0.00  0.00     0.030 A 
ATOM     21  C   UNK d   0      28.302 -12.978   5.464  0.00  0.00    -0.002 A 
ATOM     22  C   UNK d   0      28.855 -11.933   7.964  0.00  0.00     0.002 A 
ATOM     23  C   UNK d   0      28.530 -11.076   6.913  0.00  0.00     0.001 A 
ATOM     24  C   UNK d   0      28.237 -11.590   5.657  0.00  0.00     0.014 A 
ENDBRANCH  14  15
ENDBRANCH   1  14
BRANCH   1  25
ATOM     25  N   UNK d   0      28.149 -14.062   0.733  0.00  0.00    -0.290 N 
ATOM     26  C   UNK d   0      26.931 -14.146   0.033  0.00  0.00     0.260 C 
ATOM     27  O   UNK d   0      26.280 -13.172  -0.368  0.00  0.00    -0.267 OA
ATOM     28  C   UNK d   0      26.393 -15.547  -0.174  0.00  0.00     0.058 A 
ATOM     29  C   UNK d   0      25.089 -15.808  -0.622  0.00  0.00     0.019 A 
ATOM     30  C   UNK d   0      27.208 -16.604   0.262  0.00  0.00     0.047 A 
ATOM     31  C   UNK d   0      24.612 -17.126  -0.658  0.00  0.00     0.001 A 
ATOM     32  C   UNK d   0      25.431 -18.178  -0.251  0.00  0.00     0.002 A 
ATOM     33  C   UNK d   0      26.723 -17.916   0.206  0.00  0.00     0.030 A 
ATOM     34  N   UNK d   0      28.510 -16.361   0.648  0.00  0.00    -0.346 N 
ATOM     35  C   UNK d   0      29.051 -15.092   0.333  0.00  0.00     0.332 C 
ATOM     36  H   UNK d   0      29.026 -17.009   1.217  0.00  0.00     0.164 HD
BRANCH  35  37
ATOM     37  O   UNK d   0      30.308 -15.014   0.916  0.00  0.00    -0.359 OA
ATOM     38  H   UNK d   0      30.204 -15.575   1.701  0.00  0.00     0.214 HD
ENDBRANCH  35  37
ENDBRANCH   1  25
TORSDOF 9
ENDMDL
MODEL 2
REMARK VINA RESULT:    -7.871      1.054      1.885
REMARK INTER + INTRA:         -13.638
REMARK INTER:                 -10.556
REMARK INTRA:                  -3.083
REMARK CONF_INDEPENDENT:        2.685
REMARK UNBOUND:                -3.083
REMARK  9 active torsions:
REMARK  status: ('A' for Active; 'I' for Inactive)
REMARK    1  A    between atoms: CG_2  and  CB_4 
REMARK    2  A    between atoms: CB_4  and  CA_5 
REMARK    3  A    between atoms: CA_5  and  N_6 
REMARK    4  A    between atoms: CA_5  and  C_32 
REMARK       I    between atoms: N_6  and  C_7 
REMARK    5  A    between atoms: C_7  and  C_9 
REMARK    6  A    between atoms: C_9  and  C_10 
REMARK    7  A    between atoms: C_9  and  N_20 
REMARK    8  A    between atoms: C_10  and  C_11 
REMARK    9  A    between atoms: C_30  and  O_31 
ROOT
ATOM      1  C   UNK d   0      28.669 -13.198   1.966  0.00  0.00     0.188 C 
ENDROOT
BRANCH   1   2
ATOM      2  C   UNK d   0      28.767 -11.649   1.615  0.00  0.00     0.241 C 
ATOM      3  N   LEU d   1      27.543 -10.991   1.440  0.00  0.00    -0.345 N 
ATOM      4  H   LEU d   1      26.686 -11.518   1.305  0.00  0.00     0.163 HD
ATOM      5  O   UNK d   0      29.857 -11.077   1.572  0.00  0.00    -0.271 OA
BRANCH   3   6
ATOM      6  CA  LEU d   1      27.305  -9.523   1.490  0.00  0.00     0.185 C 
BRANCH   6   7
ATOM      7  CB  LEU d   1      28.311  -8.824   2.456  0.00  0.00     0.040 C 
BRANCH   7   8
ATOM      8  CG  LEU d   1      27.732  -8.388   3.811  0.00  0.00    -0.020 C 
ATOM      9  CD1 LEU d   1      28.682  -8.548   4.983  0.00  0.00     0.009 C 
ATOM     10  CD2 LEU d   1      27.451  -6.897   3.856  0.00  0.00     0.009 C 
ENDBRANCH   7   8
ENDBRANCH   6   7
BRANCH   6  11
ATOM     11  C   LEU d   1      25.819  -9.134   1.927  0.00  0.00     0.196 C 
ATOM     12  O   LEU d   1      25.449  -7.945   1.706  0.00  0.00    -0.646 OA
ATOM     13  OXT LEU d   1      25.154 -10.066   2.478  0.00  0.00    -0.646 OA
ENDBRANCH   6  11
ENDBRANCH   3   6
ENDBRANCH   1   2
BRANCH   1  14
ATOM     14  C   UNK d   0      27.613 -13.219   3.083  0.00  0.00     0.076 C 
BRANCH  14  15
ATOM     15  C   UNK d   0      28.104 -13.755   4.376  0.00  0.00    -0.028 A 
ATOM     16  C   UNK d   0      28.178 -15.089   4.730  0.00  0.00     0.096 A 
ATOM     17  N   UNK d   0      28.400 -15.155   6.082  0.00  0.00    -0.365 N 
ATOM     18  C   UNK d   0      28.532 -13.878   6.587  0.00  0.00     0.042 A 
ATOM     19  H   UNK d   0      28.262 -16.000   6.629  0.00  0.00     0.165 HD
ATOM     20  C   UNK d   0      28.727 -13.433   7.894  0.00  0.00     0.030 A 
ATOM     21  C   UNK d   0      28.349 -12.989   5.532  0.00  0.00    -0.002 A 
ATOM     22  C   UNK d   0      28.736 -12.046   8.102  0.00  0.00     0.002 A 
ATOM     23  C   UNK d   0      28.532 -11.144   7.058  0.00  0.00     0.001 A 
ATOM     24  C   UNK d   0      28.323 -11.606   5.766  0.00  0.00     0.014 A 
ENDBRANCH  14  15
ENDBRANCH   1  14
BRANCH   1  25
ATOM     25  N   UNK d   0      28.355 -14.071   0.752  0.00  0.00    -0.290 N 
ATOM     26  C   UNK d   0      27.117 -14.059   0.083  0.00  0.00     0.260 C 
ATOM     27  O   UNK d   0      26.521 -13.035  -0.278  0.00  0.00    -0.267 OA
ATOM     28  C   UNK d   0      26.484 -15.417  -0.142  0.00  0.00     0.058 A 
ATOM     29  C   UNK d   0      25.155 -15.583  -0.560  0.00  0.00     0.019 A 
ATOM     30  C   UNK d   0      27.239 -16.535   0.249  0.00  0.00     0.047 A 
ATOM     31  C   UNK d   0      24.592 -16.866  -0.613  0.00  0.00     0.001 A 
ATOM     32  C   UNK d   0      25.351 -17.978  -0.251  0.00  0.00     0.002 A 
ATOM     33  C   UNK d   0      26.668 -17.810   0.177  0.00  0.00     0.030 A 
ATOM     34  N   UNK d   0      28.563 -16.386   0.606  0.00  0.00    -0.346 N 
ATOM     35  C   UNK d   0      29.177 -15.147   0.305  0.00  0.00     0.332 C 
ATOM     36  H   UNK d   0      29.051 -17.079   1.146  0.00  0.00     0.164 HD
BRANCH  35  37
ATOM     37  O   UNK d   0      30.451 -15.164   0.856  0.00  0.00    -0.359 OA
ATOM     38  H   UNK d   0      30.325 -15.718   1.642  0.00  0.00     0.214 HD
ENDBRANCH  35  37
ENDBRANCH   1  25
TORSDOF 9
ENDMDL
MODEL 3
REMARK VINA RESULT:    -7.254      5.750      7.404
REMARK INTER + INTRA:         -13.477
REMARK INTER:                  -9.939
REMARK INTRA:                  -3.538
REMARK CONF_INDEPENDENT:        2.685
REMARK UNBOUND:                -3.538
REMARK  9 active torsions:
REMARK  status: ('A' for Active; 'I' for Inactive)
REMARK    1  A    between atoms: CG_2  and  CB_4 
REMARK    2  A    between atoms: CB_4  and  CA_5 
REMARK    3  A    between atoms: CA_5  and  N_6 
REMARK    4  A    between atoms: CA_5  and  C_32 
REMARK       I    between atoms: N_6  and  C_7 
REMARK    5  A    between atoms: C_7  and  C_9 
REMARK    6  A    between atoms: C_9  and  C_10 
REMARK    7  A    between atoms: C_9  and  N_20 
REMARK    8  A    between atoms: C_10  and  C_11 
REMARK    9  A    between atoms: C_30  and  O_31 
ROOT
ATOM      1  C   UNK d   0      28.949 -15.620  -1.601  0.00  0.00     0.188 C 
ENDROOT
BRANCH   1   2
ATOM      2  C   UNK d   0      28.881 -14.286  -2.466  0.00  0.00     0.241 C 
ATOM      3  N   LEU d   1      28.705 -14.469  -3.844  0.00  0.00    -0.345 N 
ATOM      4  H   LEU d   1      28.859 -15.378  -4.270  0.00  0.00     0.163 HD
ATOM      5  O   UNK d   0      28.917 -13.179  -1.928  0.00  0.00    -0.271 OA
BRANCH   3   6
ATOM      6  CA  LEU d   1      28.230 -13.455  -4.824  0.00  0.00     0.185 C 
BRANCH   6   7
ATOM      7  CB  LEU d   1      26.784 -12.980  -4.484  0.00  0.00     0.040 C 
BRANCH   7   8
ATOM      8  CG  LEU d   1      25.866 -14.048  -3.868  0.00  0.00    -0.020 C 
ATOM      9  CD1 LEU d   1      24.390 -13.700  -3.896  0.00  0.00     0.009 C 
ATOM     10  CD2 LEU d   1      25.883 -15.340  -4.665  0.00  0.00     0.009 C 
ENDBRANCH   7   8
ENDBRANCH   6   7
BRANCH   6  11
ATOM     11  C   LEU d   1      28.260 -13.969  -6.336  0.00  0.00     0.196 C 
ATOM     12  O   LEU d   1      28.148 -13.094  -7.242  0.00  0.00    -0.646 OA
ATOM     13  OXT LEU d   1      28.375 -15.227  -6.479  0.00  0.00    -0.646 OA
ENDBRANCH   6  11
ENDBRANCH   3   6
ENDBRANCH   1   2
BRANCH   1  14
ATOM     14  C   UNK d   0      27.676 -16.364  -2.036  0.00  0.00     0.076 C 
BRANCH  14  15
ATOM     15  C   UNK d   0      26.931 -17.000  -0.922  0.00  0.00    -0.028 A 
ATOM     16  C   UNK d   0      27.451 -17.877   0.010  0.00  0.00     0.096 A 
ATOM     17  N   UNK d   0      26.401 -18.457   0.675  0.00  0.00    -0.365 N 
ATOM     18  C   UNK d   0      25.216 -17.915   0.223  0.00  0.00     0.042 A 
ATOM     19  H   UNK d   0      26.493 -19.299   1.238  0.00  0.00     0.165 HD
ATOM     20  C   UNK d   0      23.895 -18.203   0.563  0.00  0.00     0.030 A 
ATOM     21  C   UNK d   0      25.530 -17.000  -0.778  0.00  0.00    -0.002 A 
ATOM     22  C   UNK d   0      22.890 -17.528  -0.146  0.00  0.00     0.002 A 
ATOM     23  C   UNK d   0      23.190 -16.626  -1.166  0.00  0.00     0.001 A 
ATOM     24  C   UNK d   0      24.511 -16.363  -1.502  0.00  0.00     0.014 A 
ENDBRANCH  14  15
ENDBRANCH   1  14
BRANCH   1  25
ATOM     25  N   UNK d   0      30.254 -16.391  -1.787  0.00  0.00    -0.290 N 
ATOM     26  C   UNK d   0      30.647 -16.977  -3.005  0.00  0.00     0.260 C 
ATOM     27  O   UNK d   0      30.625 -16.401  -4.102  0.00  0.00    -0.267 OA
ATOM     28  C   UNK d   0      31.068 -18.429  -2.926  0.00  0.00     0.058 A 
ATOM     29  C   UNK d   0      31.248 -19.238  -4.058  0.00  0.00     0.019 A 
ATOM     30  C   UNK d   0      31.116 -19.001  -1.644  0.00  0.00     0.047 A 
ATOM     31  C   UNK d   0      31.501 -20.609  -3.908  0.00  0.00     0.001 A 
ATOM     32  C   UNK d   0      31.576 -21.170  -2.633  0.00  0.00     0.002 A 
ATOM     33  C   UNK d   0      31.384 -20.367  -1.509  0.00  0.00     0.030 A 
ATOM     34  N   UNK d   0      30.997 -18.202  -0.525  0.00  0.00    -0.346 N 
ATOM     35  C   UNK d   0      31.100 -16.804  -0.716  0.00  0.00     0.332 C 
ATOM     36  H   UNK d   0      30.747 -18.577   0.373  0.00  0.00     0.164 HD
BRANCH  35  37
ATOM     37  O   UNK d   0      30.829 -16.192   0.500  0.00  0.00    -0.359 OA
ATOM     38  H   UNK d   0      30.405 -16.909   0.998  0.00  0.00     0.214 HD
ENDBRANCH  35  37
ENDBRANCH   1  25
TORSDOF 9
ENDMDL
MODEL 4
REMARK VINA RESULT:    -6.870      3.009      5.118
REMARK INTER + INTRA:         -13.248
REMARK INTER:                  -9.554
REMARK INTRA:                  -3.694
REMARK CONF_INDEPENDENT:        2.685
REMARK UNBOUND:                -3.694
REMARK  9 active torsions:
REMARK  status: ('A' for Active; 'I' for Inactive)
REMARK    1  A    between atoms: CG_2  and  CB_4 
REMARK    2  A    between atoms: CB_4  and  CA_5 
REMARK    3  A    between atoms: CA_5  and  N_6 
REMARK    4  A    between atoms: CA_5  and  C_32 
REMARK       I    between atoms: N_6  and  C_7 
REMARK    5  A    between atoms: C_7  and  C_9 
REMARK    6  A    between atoms: C_9  and  C_10 
REMARK    7  A    between atoms: C_9  and  N_20 
REMARK    8  A    between atoms: C_10  and  C_11 
REMARK    9  A    between atoms: C_30  and  O_31 
ROOT
ATOM      1  C   UNK d   0      27.939 -14.205  -0.875  0.00  0.00     0.188 C 
ENDROOT
BRANCH   1   2
ATOM      2  C   UNK d   0      28.595 -13.523  -2.155  0.00  0.00     0.241 C 
ATOM      3  N   LEU d   1      28.313 -14.142  -3.379  0.00  0.00    -0.345 N 
ATOM      4  H   LEU d   1      27.931 -15.083  -3.410  0.00  0.00     0.163 HD
ATOM      5  O   UNK d   0      29.248 -12.484  -2.054  0.00  0.00    -0.271 OA
BRANCH   3   6
ATOM      6  CA  LEU d   1      28.451 -13.542  -4.734  0.00  0.00     0.185 C 
BRANCH   6   7
ATOM      7  CB  LEU d   1      27.568 -12.264  -4.874  0.00  0.00     0.040 C 
BRANCH   7   8
ATOM      8  CG  LEU d   1      26.380 -12.173  -3.903  0.00  0.00    -0.020 C 
ATOM      9  CD1 LEU d   1      25.754 -10.795  -3.802  0.00  0.00     0.009 C 
ATOM     10  CD2 LEU d   1      25.198 -13.003  -4.371  0.00  0.00     0.009 C 
ENDBRANCH   7   8
ENDBRANCH   6   7
BRANCH   6  11
ATOM     11  C   LEU d   1      28.086 -14.551  -5.917  0.00  0.00     0.196 C 
ATOM     12  O   LEU d   1      28.485 -14.244  -7.077  0.00  0.00    -0.646 OA
ATOM     13  OXT LEU d   1      27.404 -15.567  -5.573  0.00  0.00    -0.646 OA
ENDBRANCH   6  11
ENDBRANCH   3   6
ENDBRANCH   1   2
BRANCH   1  14
ATOM     14  C   UNK d   0      26.844 -13.198  -0.487  0.00  0.00     0.076 C 
BRANCH  14  15
ATOM     15  C   UNK d   0      27.082 -12.505   0.803  0.00  0.00    -0.028 A 
ATOM     16  C   UNK d   0      27.172 -11.139   0.990  0.00  0.00     0.096 A 
ATOM     17  N   UNK d   0      27.681 -10.918   2.244  0.00  0.00    -0.365 N 
ATOM     18  C   UNK d   0      27.859 -12.127   2.886  0.00  0.00     0.042 A 
ATOM     19  H   UNK d   0      28.065 -10.025   2.542  0.00  0.00     0.165 HD
ATOM     20  C   UNK d   0      28.378 -12.420   4.147  0.00  0.00     0.030 A 
ATOM     21  C   UNK d   0      27.487 -13.131   1.997  0.00  0.00    -0.002 A 
ATOM     22  C   UNK d   0      28.509 -13.774   4.485  0.00  0.00     0.002 A 
ATOM     23  C   UNK d   0      28.162 -14.791   3.596  0.00  0.00     0.001 A 
ATOM     24  C   UNK d   0      27.661 -14.481   2.339  0.00  0.00     0.014 A 
ENDBRANCH  14  15
ENDBRANCH   1  14
BRANCH   1  25
ATOM     25  N   UNK d   0      27.456 -15.631  -1.134  0.00  0.00    -0.290 N 
ATOM     26  C   UNK d   0      26.308 -15.940  -1.888  0.00  0.00     0.260 C 
ATOM     27  O   UNK d   0      26.045 -15.460  -2.999  0.00  0.00    -0.267 OA
ATOM     28  C   UNK d   0      25.330 -16.889  -1.227  0.00  0.00     0.058 A 
ATOM     29  C   UNK d   0      24.032 -17.111  -1.712  0.00  0.00     0.019 A 
ATOM     30  C   UNK d   0      25.717 -17.431   0.009  0.00  0.00     0.047 A 
ATOM     31  C   UNK d   0      23.133 -17.895  -0.973  0.00  0.00     0.001 A 
ATOM     32  C   UNK d   0      23.528 -18.455   0.241  0.00  0.00     0.002 A 
ATOM     33  C   UNK d   0      24.814 -18.223   0.727  0.00  0.00     0.030 A 
ATOM     34  N   UNK d   0      27.009 -17.265   0.464  0.00  0.00    -0.346 N 
ATOM     35  C   UNK d   0      27.963 -16.782  -0.463  0.00  0.00     0.332 C 
ATOM     36  H   UNK d   0      27.252 -17.380   1.432  0.00  0.00     0.164 HD
BRANCH  35  37
ATOM     37  O   UNK d   0      29.149 -16.571   0.224  0.00  0.00    -0.359 OA
ATOM     38  H   UNK d   0      29.330 -17.450   0.593  0.00  0.00     0.214 HD
ENDBRANCH  35  37
ENDBRANCH   1  25
TORSDOF 9
ENDMDL
MODEL 5
REMARK VINA RESULT:    -6.108      3.920      7.185
REMARK INTER + INTRA:         -13.550
REMARK INTER:                  -8.793
REMARK INTRA:                  -4.757
REMARK CONF_INDEPENDENT:        2.685
REMARK UNBOUND:                -4.757
REMARK  9 active torsions:
REMARK  status: ('A' for Active; 'I' for Inactive)
REMARK    1  A    between atoms: CG_2  and  CB_4 
REMARK    2  A    between atoms: CB_4  and  CA_5 
REMARK    3  A    between atoms: CA_5  and  N_6 
REMARK    4  A    between atoms: CA_5  and  C_32 
REMARK       I    between atoms: N_6  and  C_7 
REMARK    5  A    between atoms: C_7  and  C_9 
REMARK    6  A    between atoms: C_9  and  C_10 
REMARK    7  A    between atoms: C_9  and  N_20 
REMARK    8  A    between atoms: C_10  and  C_11 
REMARK    9  A    between atoms: C_30  and  O_31 
ROOT
ATOM      1  C   UNK d   0      26.964 -14.625  -2.774  0.00  0.00     0.188 C 
ENDROOT
BRANCH   1   2
ATOM      2  C   UNK d   0      28.053 -13.828  -1.931  0.00  0.00     0.241 C 
ATOM      3  N   LEU d   1      27.990 -12.433  -2.030  0.00  0.00    -0.345 N 
ATOM      4  H   LEU d   1      27.454 -11.988  -2.769  0.00  0.00     0.163 HD
ATOM      5  O   UNK d   0      28.845 -14.421  -1.198  0.00  0.00    -0.271 OA
BRANCH   3   6
ATOM      6  CA  LEU d   1      28.593 -11.444  -1.094  0.00  0.00     0.185 C 
BRANCH   6   7
ATOM      7  CB  LEU d   1      28.461 -11.920   0.386  0.00  0.00     0.040 C 
BRANCH   7   8
ATOM      8  CG  LEU d   1      27.029 -12.224   0.856  0.00  0.00    -0.020 C 
ATOM      9  CD1 LEU d   1      26.818 -13.643   1.349  0.00  0.00     0.009 C 
ATOM     10  CD2 LEU d   1      26.652 -11.421   2.087  0.00  0.00     0.009 C 
ENDBRANCH   7   8
ENDBRANCH   6   7
BRANCH   6  11
ATOM     11  C   LEU d   1      27.966  -9.982  -1.223  0.00  0.00     0.196 C 
ATOM     12  O   LEU d   1      28.291  -9.139  -0.338  0.00  0.00    -0.646 OA
ATOM     13  OXT LEU d   1      27.177  -9.814  -2.204  0.00  0.00    -0.646 OA
ENDBRANCH   6  11
ENDBRANCH   3   6
ENDBRANCH   1   2
BRANCH   1  14
ATOM     14  C   UNK d   0      25.794 -14.737  -1.784  0.00  0.00     0.076 C 
BRANCH  14  15
ATOM     15  C   UNK d   0      25.691 -16.055  -1.109  0.00  0.00    -0.028 A 
ATOM     16  C   UNK d   0      26.731 -16.935  -0.877  0.00  0.00     0.096 A 
ATOM     17  N   UNK d   0      26.188 -18.139  -0.506  0.00  0.00    -0.365 N 
ATOM     18  C   UNK d   0      24.816 -18.022  -0.436  0.00  0.00     0.042 A 
ATOM     19  H   UNK d   0      26.711 -19.011  -0.507  0.00  0.00     0.165 HD
ATOM     20  C   UNK d   0      23.835 -18.969  -0.142  0.00  0.00     0.030 A 
ATOM     21  C   UNK d   0      24.487 -16.722  -0.811  0.00  0.00    -0.002 A 
ATOM     22  C   UNK d   0      22.498 -18.555  -0.236  0.00  0.00     0.002 A 
ATOM     23  C   UNK d   0      22.154 -17.263  -0.632  0.00  0.00     0.001 A 
ATOM     24  C   UNK d   0      23.144 -16.338  -0.936  0.00  0.00     0.014 A 
ENDBRANCH  14  15
ENDBRANCH   1  14
BRANCH   1  25
ATOM     25  N   UNK d   0      26.631 -13.959  -4.108  0.00  0.00    -0.290 N 
ATOM     26  C   UNK d   0      27.140 -14.394  -5.346  0.00  0.00     0.260 C 
ATOM     27  O   UNK d   0      27.141 -15.571  -5.732  0.00  0.00    -0.267 OA
ATOM     28  C   UNK d   0      27.769 -13.319  -6.207  0.00  0.00     0.058 A 
ATOM     29  C   UNK d   0      28.542 -13.602  -7.344  0.00  0.00     0.019 A 
ATOM     30  C   UNK d   0      27.688 -12.001  -5.728  0.00  0.00     0.047 A 
ATOM     31  C   UNK d   0      29.209 -12.566  -8.014  0.00  0.00     0.001 A 
ATOM     32  C   UNK d   0      29.105 -11.255  -7.552  0.00  0.00     0.002 A 
ATOM     33  C   UNK d   0      28.347 -10.976  -6.415  0.00  0.00     0.030 A 
ATOM     34  N   UNK d   0      26.884 -11.707  -4.646  0.00  0.00    -0.346 N 
ATOM     35  C   UNK d   0      25.968 -12.702  -4.232  0.00  0.00     0.332 C 
ATOM     36  H   UNK d   0      27.005 -10.869  -4.104  0.00  0.00     0.164 HD
BRANCH  35  37
ATOM     37  O   UNK d   0      25.358 -12.257  -3.068  0.00  0.00    -0.359 OA
ATOM     38  H   UNK d   0      25.948 -11.538  -2.792  0.00  0.00     0.214 HD
ENDBRANCH  35  37
ENDBRANCH   1  25
TORSDOF 9
ENDMDL
MODEL 6
REMARK VINA RESULT:    -5.908      3.058      4.563
REMARK INTER + INTRA:         -13.180
REMARK INTER:                  -8.592
REMARK INTRA:                  -4.588
REMARK CONF_INDEPENDENT:        2.685
REMARK UNBOUND:                -4.588
REMARK  9 active torsions:
REMARK  status: ('A' for Active; 'I' for Inactive)
REMARK    1  A    between atoms: CG_2  and  CB_4 
REMARK    2  A    between atoms: CB_4  and  CA_5 
REMARK    3  A    between atoms: CA_5  and  N_6 
REMARK    4  A    between atoms: CA_5  and  C_32 
REMARK       I    between atoms: N_6  and  C_7 
REMARK    5  A    between atoms: C_7  and  C_9 
REMARK    6  A    between atoms: C_9  and  C_10 
REMARK    7  A    between atoms: C_9  and  N_20 
REMARK    8  A    between atoms: C_10  and  C_11 
REMARK    9  A    between atoms: C_30  and  O_31 
ROOT
ATOM      1  C   UNK d   0      29.702 -11.848   2.218  0.00  0.00     0.188 C 
ENDROOT
BRANCH   1   2
ATOM      2  C   UNK d   0      28.624 -11.277   1.197  0.00  0.00     0.241 C 
ATOM      3  N   LEU d   1      27.705 -10.367   1.736  0.00  0.00    -0.345 N 
ATOM      4  H   LEU d   1      27.592 -10.278   2.741  0.00  0.00     0.163 HD
ATOM      5  O   UNK d   0      28.658 -11.581   0.004  0.00  0.00    -0.271 OA
BRANCH   3   6
ATOM      6  CA  LEU d   1      26.860  -9.402   0.982  0.00  0.00     0.185 C 
BRANCH   6   7
ATOM      7  CB  LEU d   1      27.725  -8.529   0.021  0.00  0.00     0.040 C 
BRANCH   7   8
ATOM      8  CG  LEU d   1      27.251  -8.487  -1.440  0.00  0.00    -0.020 C 
ATOM      9  CD1 LEU d   1      26.991  -9.848  -2.057  0.00  0.00     0.009 C 
ATOM     10  CD2 LEU d   1      25.888  -7.833  -1.577  0.00  0.00     0.009 C 
ENDBRANCH   7   8
ENDBRANCH   6   7
BRANCH   6  11
ATOM     11  C   LEU d   1      26.003  -8.437   1.922  0.00  0.00     0.196 C 
ATOM     12  O   LEU d   1      25.155  -7.689   1.356  0.00  0.00    -0.646 OA
ATOM     13  OXT LEU d   1      26.277  -8.504   3.161  0.00  0.00    -0.646 OA
ENDBRANCH   6  11
ENDBRANCH   3   6
ENDBRANCH   1   2
BRANCH   1  14
ATOM     14  C   UNK d   0      30.281 -10.567   2.840  0.00  0.00     0.076 C 
BRANCH  14  15
ATOM     15  C   UNK d   0      31.021 -10.786   4.108  0.00  0.00    -0.028 A 
ATOM     16  C   UNK d   0      32.097 -11.634   4.287  0.00  0.00     0.096 A 
ATOM     17  N   UNK d   0      32.304 -11.773   5.636  0.00  0.00    -0.365 N 
ATOM     18  C   UNK d   0      31.412 -10.973   6.321  0.00  0.00     0.042 A 
ATOM     19  H   UNK d   0      32.870 -12.514   6.041  0.00  0.00     0.165 HD
ATOM     20  C   UNK d   0      31.208 -10.803   7.690  0.00  0.00     0.030 A 
ATOM     21  C   UNK d   0      30.601 -10.347   5.378  0.00  0.00    -0.002 A 
ATOM     22  C   UNK d   0      30.151  -9.969   8.080  0.00  0.00     0.002 A 
ATOM     23  C   UNK d   0      29.317  -9.354   7.147  0.00  0.00     0.001 A 
ATOM     24  C   UNK d   0      29.524  -9.547   5.788  0.00  0.00     0.014 A 
ENDBRANCH  14  15
ENDBRANCH   1  14
BRANCH   1  25
ATOM     25  N   UNK d   0      29.119 -12.852   3.210  0.00  0.00    -0.290 N 
ATOM     26  C   UNK d   0      28.160 -12.517   4.185  0.00  0.00     0.260 C 
ATOM     27  O   UNK d   0      27.128 -11.868   3.964  0.00  0.00    -0.267 OA
ATOM     28  C   UNK d   0      28.483 -12.958   5.597  0.00  0.00     0.058 A 
ATOM     29  C   UNK d   0      27.780 -12.502   6.722  0.00  0.00     0.019 A 
ATOM     30  C   UNK d   0      29.644 -13.732   5.764  0.00  0.00     0.047 A 
ATOM     31  C   UNK d   0      28.221 -12.842   8.010  0.00  0.00     0.001 A 
ATOM     32  C   UNK d   0      29.357 -13.633   8.173  0.00  0.00     0.002 A 
ATOM     33  C   UNK d   0      30.063 -14.075   7.054  0.00  0.00     0.030 A 
ATOM     34  N   UNK d   0      30.307 -14.232   4.662  0.00  0.00    -0.346 N 
ATOM     35  C   UNK d   0      29.635 -14.165   3.419  0.00  0.00     0.332 C 
ATOM     36  H   UNK d   0      31.263 -14.537   4.710  0.00  0.00     0.164 HD
BRANCH  35  37
ATOM     37  O   UNK d   0      30.518 -14.597   2.440  0.00  0.00    -0.359 OA
ATOM     38  H   UNK d   0      30.165 -15.474   2.220  0.00  0.00     0.214 HD
ENDBRANCH  35  37
ENDBRANCH   1  25
TORSDOF 9
ENDMDL
MODEL 7
REMARK VINA RESULT:    -5.707      3.698      6.075
REMARK INTER + INTRA:         -13.193
REMARK INTER:                  -8.392
REMARK INTRA:                  -4.801
REMARK CONF_INDEPENDENT:        2.685
REMARK UNBOUND:                -4.801
REMARK  9 active torsions:
REMARK  status: ('A' for Active; 'I' for Inactive)
REMARK    1  A    between atoms: CG_2  and  CB_4 
REMARK    2  A    between atoms: CB_4  and  CA_5 
REMARK    3  A    between atoms: CA_5  and  N_6 
REMARK    4  A    between atoms: CA_5  and  C_32 
REMARK       I    between atoms: N_6  and  C_7 
REMARK    5  A    between atoms: C_7  and  C_9 
REMARK    6  A    between atoms: C_9  and  C_10 
REMARK    7  A    between atoms: C_9  and  N_20 
REMARK    8  A    between atoms: C_10  and  C_11 
REMARK    9  A    between atoms: C_30  and  O_31 
ROOT
ATOM      1  C   UNK d   0      28.995 -16.237  -0.285  0.00  0.00     0.188 C 
ENDROOT
BRANCH   1   2
ATOM      2  C   UNK d   0      29.326 -16.631  -1.791  0.00  0.00     0.241 C 
ATOM      3  N   LEU d   1      28.436 -16.140  -2.754  0.00  0.00    -0.345 N 
ATOM      4  H   LEU d   1      27.527 -15.777  -2.483  0.00  0.00     0.163 HD
ATOM      5  O   UNK d   0      30.341 -17.271  -2.069  0.00  0.00    -0.271 OA
BRANCH   3   6
ATOM      6  CA  LEU d   1      28.684 -16.013  -4.216  0.00  0.00     0.185 C 
BRANCH   6   7
ATOM      7  CB  LEU d   1      30.076 -15.366  -4.494  0.00  0.00     0.040 C 
BRANCH   7   8
ATOM      8  CG  LEU d   1      31.060 -16.235  -5.292  0.00  0.00    -0.020 C 
ATOM      9  CD1 LEU d   1      30.443 -17.472  -5.918  0.00  0.00     0.009 C 
ATOM     10  CD2 LEU d   1      31.590 -15.514  -6.518  0.00  0.00     0.009 C 
ENDBRANCH   7   8
ENDBRANCH   6   7
BRANCH   6  11
ATOM     11  C   LEU d   1      27.563 -15.172  -4.980  0.00  0.00     0.196 C 
ATOM     12  O   LEU d   1      27.589 -15.198  -6.245  0.00  0.00    -0.646 OA
ATOM     13  OXT LEU d   1      26.758 -14.534  -4.232  0.00  0.00    -0.646 OA
ENDBRANCH   6  11
ENDBRANCH   3   6
ENDBRANCH   1   2
BRANCH   1  14
ATOM     14  C   UNK d   0      29.834 -14.965  -0.083  0.00  0.00     0.076 C 
BRANCH  14  15
ATOM     15  C   UNK d   0      30.190 -14.688   1.331  0.00  0.00    -0.028 A 
ATOM     16  C   UNK d   0      31.403 -14.958   1.934  0.00  0.00     0.096 A 
ATOM     17  N   UNK d   0      31.237 -14.831   3.290  0.00  0.00    -0.365 N 
ATOM     18  C   UNK d   0      29.948 -14.421   3.557  0.00  0.00     0.042 A 
ATOM     19  H   UNK d   0      31.897 -15.200   3.970  0.00  0.00     0.165 HD
ATOM     20  C   UNK d   0      29.299 -14.192   4.770  0.00  0.00     0.030 A 
ATOM     21  C   UNK d   0      29.278 -14.325   2.341  0.00  0.00    -0.002 A 
ATOM     22  C   UNK d   0      27.938 -13.858   4.714  0.00  0.00     0.002 A 
ATOM     23  C   UNK d   0      27.249 -13.781   3.504  0.00  0.00     0.001 A 
ATOM     24  C   UNK d   0      27.907 -14.027   2.307  0.00  0.00     0.014 A 
ENDBRANCH  14  15
ENDBRANCH   1  14
BRANCH   1  25
ATOM     25  N   UNK d   0      27.498 -16.083  -0.020  0.00  0.00    -0.290 N 
ATOM     26  C   UNK d   0      26.719 -17.054   0.636  0.00  0.00     0.260 C 
ATOM     27  O   UNK d   0      27.030 -17.606   1.700  0.00  0.00    -0.267 OA
ATOM     28  C   UNK d   0      25.445 -17.458  -0.076  0.00  0.00     0.058 A 
ATOM     29  C   UNK d   0      24.681 -18.575   0.294  0.00  0.00     0.019 A 
ATOM     30  C   UNK d   0      25.131 -16.755  -1.251  0.00  0.00     0.047 A 
ATOM     31  C   UNK d   0      23.591 -18.971  -0.494  0.00  0.00     0.001 A 
ATOM     32  C   UNK d   0      23.264 -18.256  -1.646  0.00  0.00     0.002 A 
ATOM     33  C   UNK d   0      24.032 -17.154  -2.020  0.00  0.00     0.030 A 
ATOM     34  N   UNK d   0      25.842 -15.622  -1.591  0.00  0.00    -0.346 N 
ATOM     35  C   UNK d   0      26.683 -15.066  -0.598  0.00  0.00     0.332 C 
ATOM     36  H   UNK d   0      25.849 -15.259  -2.528  0.00  0.00     0.164 HD
BRANCH  35  37
ATOM     37  O   UNK d   0      27.390 -14.024  -1.181  0.00  0.00    -0.359 OA
ATOM     38  H   UNK d   0      27.166 -14.126  -2.120  0.00  0.00     0.214 HD
ENDBRANCH  35  37
ENDBRANCH   1  25
TORSDOF 9
ENDMDL
MODEL 8
REMARK VINA RESULT:    -5.521      3.475      7.298
REMARK INTER + INTRA:         -12.983
REMARK INTER:                  -8.206
REMARK INTRA:                  -4.777
REMARK CONF_INDEPENDENT:        2.685
REMARK UNBOUND:                -4.777
REMARK  9 active torsions:
REMARK  status: ('A' for Active; 'I' for Inactive)
REMARK    1  A    between atoms: CG_2  and  CB_4 
REMARK    2  A    between atoms: CB_4  and  CA_5 
REMARK    3  A    between atoms: CA_5  and  N_6 
REMARK    4  A    between atoms: CA_5  and  C_32 
REMARK       I    between atoms: N_6  and  C_7 
REMARK    5  A    between atoms: C_7  and  C_9 
REMARK    6  A    between atoms: C_9  and  C_10 
REMARK    7  A    between atoms: C_9  and  N_20 
REMARK    8  A    between atoms: C_10  and  C_11 
REMARK    9  A    between atoms: C_30  and  O_31 
ROOT
ATOM      1  C   UNK d   0      26.205 -14.079  -1.024  0.00  0.00     0.188 C 
ENDROOT
BRANCH   1   2
ATOM      2  C   UNK d   0      25.832 -13.314  -2.369  0.00  0.00     0.241 C 
ATOM      3  N   LEU d   1      26.797 -12.415  -2.840  0.00  0.00    -0.345 N 
ATOM      4  H   LEU d   1      27.553 -12.102  -2.237  0.00  0.00     0.163 HD
ATOM      5  O   UNK d   0      24.787 -13.564  -2.970  0.00  0.00    -0.271 OA
BRANCH   3   6
ATOM      6  CA  LEU d   1      26.907 -11.866  -4.219  0.00  0.00     0.185 C 
BRANCH   6   7
ATOM      7  CB  LEU d   1      26.629 -12.969  -5.285  0.00  0.00     0.040 C 
BRANCH   7   8
ATOM      8  CG  LEU d   1      27.189 -14.362  -4.957  0.00  0.00    -0.020 C 
ATOM      9  CD1 LEU d   1      26.167 -15.481  -5.012  0.00  0.00     0.009 C 
ATOM     10  CD2 LEU d   1      28.197 -14.828  -5.992  0.00  0.00     0.009 C 
ENDBRANCH   7   8
ENDBRANCH   6   7
BRANCH   6  11
ATOM     11  C   LEU d   1      28.325 -11.199  -4.526  0.00  0.00     0.196 C 
ATOM     12  O   LEU d   1      29.169 -11.185  -3.584  0.00  0.00    -0.646 OA
ATOM     13  OXT LEU d   1      28.458 -10.723  -5.697  0.00  0.00    -0.646 OA
ENDBRANCH   6  11
ENDBRANCH   3   6
ENDBRANCH   1   2
BRANCH   1  14
ATOM     14  C   UNK d   0      26.807 -15.394  -1.546  0.00  0.00     0.076 C 
BRANCH  14  15
ATOM     15  C   UNK d   0      26.298 -16.610  -0.865  0.00  0.00    -0.028 A 
ATOM     16  C   UNK d   0      27.053 -17.694  -0.461  0.00  0.00     0.096 A 
ATOM     17  N   UNK d   0      26.192 -18.714  -0.148  0.00  0.00    -0.365 N 
ATOM     18  C   UNK d   0      24.891 -18.275  -0.287  0.00  0.00     0.042 A 
ATOM     19  H   UNK d   0      26.485 -19.683  -0.052  0.00  0.00     0.165 HD
ATOM     20  C   UNK d   0      23.681 -18.948  -0.121  0.00  0.00     0.030 A 
ATOM     21  C   UNK d   0      24.940 -16.958  -0.735  0.00  0.00    -0.002 A 
ATOM     22  C   UNK d   0      22.509 -18.239  -0.423  0.00  0.00     0.002 A 
ATOM     23  C   UNK d   0      22.544 -16.927  -0.894  0.00  0.00     0.001 A 
ATOM     24  C   UNK d   0      23.759 -16.278  -1.068  0.00  0.00     0.014 A 
ENDBRANCH  14  15
ENDBRANCH   1  14
BRANCH   1  25
ATOM     25  N   UNK d   0      27.111 -13.265  -0.101  0.00  0.00    -0.290 N 
ATOM     26  C   UNK d   0      26.659 -12.626   1.069  0.00  0.00     0.260 C 
ATOM     27  O   UNK d   0      25.958 -13.162   1.938  0.00  0.00    -0.267 OA
ATOM     28  C   UNK d   0      27.038 -11.166   1.203  0.00  0.00     0.058 A 
ATOM     29  C   UNK d   0      26.474 -10.313   2.163  0.00  0.00     0.019 A 
ATOM     30  C   UNK d   0      27.875 -10.639   0.205  0.00  0.00     0.047 A 
ATOM     31  C   UNK d   0      26.767  -8.941   2.141  0.00  0.00     0.001 A 
ATOM     32  C   UNK d   0      27.620  -8.425   1.167  0.00  0.00     0.002 A 
ATOM     33  C   UNK d   0      28.170  -9.272   0.205  0.00  0.00     0.030 A 
ATOM     34  N   UNK d   0      28.479 -11.480  -0.706  0.00  0.00    -0.346 N 
ATOM     35  C   UNK d   0      28.440 -12.867  -0.430  0.00  0.00     0.332 C 
ATOM     36  H   UNK d   0      28.844 -11.145  -1.581  0.00  0.00     0.164 HD
BRANCH  35  37
ATOM     37  O   UNK d   0      28.985 -13.530  -1.521  0.00  0.00    -0.359 OA
ATOM     38  H   UNK d   0      28.989 -12.836  -2.199  0.00  0.00     0.214 HD
ENDBRANCH  35  37
ENDBRANCH   1  25
TORSDOF 9
ENDMDL
MODEL 9
REMARK VINA RESULT:    -5.355      1.726      6.330
REMARK INTER + INTRA:         -13.017
REMARK INTER:                  -8.040
REMARK INTRA:                  -4.977
REMARK CONF_INDEPENDENT:        2.685
REMARK UNBOUND:                -4.977
REMARK  9 active torsions:
REMARK  status: ('A' for Active; 'I' for Inactive)
REMARK    1  A    between atoms: CG_2  and  CB_4 
REMARK    2  A    between atoms: CB_4  and  CA_5 
REMARK    3  A    between atoms: CA_5  and  N_6 
REMARK    4  A    between atoms: CA_5  and  C_32 
REMARK       I    between atoms: N_6  and  C_7 
REMARK    5  A    between atoms: C_7  and  C_9 
REMARK    6  A    between atoms: C_9  and  C_10 
REMARK    7  A    between atoms: C_9  and  N_20 
REMARK    8  A    between atoms: C_10  and  C_11 
REMARK    9  A    between atoms: C_30  and  O_31 
ROOT
ATOM      1  C   UNK d   0      28.205 -13.745   2.764  0.00  0.00     0.188 C 
ENDROOT
BRANCH   1   2
ATOM      2  C   UNK d   0      27.018 -12.689   2.671  0.00  0.00     0.241 C 
ATOM      3  N   LEU d   1      27.294 -11.424   3.204  0.00  0.00    -0.345 N 
ATOM      4  H   LEU d   1      28.093 -11.280   3.815  0.00  0.00     0.163 HD
ATOM      5  O   UNK d   0      25.962 -12.972   2.105  0.00  0.00    -0.271 OA
BRANCH   3   6
ATOM      6  CA  LEU d   1      26.559 -10.160   2.927  0.00  0.00     0.185 C 
BRANCH   6   7
ATOM      7  CB  LEU d   1      26.331  -9.968   1.396  0.00  0.00     0.040 C 
BRANCH   7   8
ATOM      8  CG  LEU d   1      27.488  -9.302   0.634  0.00  0.00    -0.020 C 
ATOM      9  CD1 LEU d   1      28.818 -10.020   0.758  0.00  0.00     0.009 C 
ATOM     10  CD2 LEU d   1      27.272  -9.334  -0.868  0.00  0.00     0.009 C 
ENDBRANCH   7   8
ENDBRANCH   6   7
BRANCH   6  11
ATOM     11  C   LEU d   1      27.285  -8.861   3.505  0.00  0.00     0.196 C 
ATOM     12  O   LEU d   1      26.656  -7.767   3.422  0.00  0.00    -0.646 OA
ATOM     13  OXT LEU d   1      28.448  -9.055   3.979  0.00  0.00    -0.646 OA
ENDBRANCH   6  11
ENDBRANCH   3   6
ENDBRANCH   1   2
BRANCH   1  14
ATOM     14  C   UNK d   0      28.832 -13.664   1.363  0.00  0.00     0.076 C 
BRANCH  14  15
ATOM     15  C   UNK d   0      27.892 -13.966   0.255  0.00  0.00    -0.028 A 
ATOM     16  C   UNK d   0      27.308 -13.043  -0.592  0.00  0.00     0.096 A 
ATOM     17  N   UNK d   0      26.298 -13.676  -1.271  0.00  0.00    -0.365 N 
ATOM     18  C   UNK d   0      26.270 -15.008  -0.914  0.00  0.00     0.042 A 
ATOM     19  H   UNK d   0      25.566 -13.179  -1.773  0.00  0.00     0.165 HD
ATOM     20  C   UNK d   0      25.411 -16.037  -1.302  0.00  0.00     0.030 A 
ATOM     21  C   UNK d   0      27.263 -15.207   0.041  0.00  0.00    -0.002 A 
ATOM     22  C   UNK d   0      25.591 -17.285  -0.690  0.00  0.00     0.002 A 
ATOM     23  C   UNK d   0      26.567 -17.492   0.285  0.00  0.00     0.001 A 
ATOM     24  C   UNK d   0      27.403 -16.453   0.670  0.00  0.00     0.014 A 
ENDBRANCH  14  15
ENDBRANCH   1  14
BRANCH   1  25
ATOM     25  N   UNK d   0      29.160 -13.477   3.926  0.00  0.00    -0.290 N 
ATOM     26  C   UNK d   0      29.195 -14.250   5.101  0.00  0.00     0.260 C 
ATOM     27  O   UNK d   0      29.229 -15.488   5.128  0.00  0.00    -0.267 OA
ATOM     28  C   UNK d   0      29.132 -13.471   6.398  0.00  0.00     0.058 A 
ATOM     29  C   UNK d   0      28.905 -14.074   7.644  0.00  0.00     0.019 A 
ATOM     30  C   UNK d   0      29.146 -12.070   6.291  0.00  0.00     0.047 A 
ATOM     31  C   UNK d   0      28.720 -13.278   8.784  0.00  0.00     0.001 A 
ATOM     32  C   UNK d   0      28.761 -11.889   8.681  0.00  0.00     0.002 A 
ATOM     33  C   UNK d   0      28.973 -11.290   7.439  0.00  0.00     0.030 A 
ATOM     34  N   UNK d   0      29.425 -11.471   5.080  0.00  0.00    -0.346 N 
ATOM     35  C   UNK d   0      29.949 -12.296   4.057  0.00  0.00     0.332 C 
ATOM     36  H   UNK d   0      29.177 -10.517   4.887  0.00  0.00     0.164 HD
BRANCH  35  37
ATOM     37  O   UNK d   0      30.036 -11.532   2.902  0.00  0.00    -0.359 OA
ATOM     38  H   UNK d   0      29.624 -10.698   3.178  0.00  0.00     0.214 HD
ENDBRANCH  35  37
ENDBRANCH   1  25
TORSDOF 9
ENDMDL
