MODEL 1
REMARK VINA RESULT:    -7.761      0.000      0.000
REMARK INTER + INTRA:          -9.457
REMARK INTER:                  -8.954
REMARK INTRA:                  -0.502
REMARK CONF_INDEPENDENT:        1.193
REMARK UNBOUND:                -0.502
REMARK  4 active torsions:
REMARK  status: ('A' for Active; 'I' for Inactive)
REMARK       I    between atoms: C_2  and  N_3 
REMARK    1  A    between atoms: C_2  and  C_18 
REMARK    2  A    between atoms: N_3  and  C_4 
REMARK    3  A    between atoms: C_4  and  C_5 
REMARK    4  A    between atoms: C_8  and  N_9 
ROOT
ATOM      1  C   UNL d   1      24.602 -17.504  -0.990  0.00  0.00    -0.025 A 
ATOM      2  C   UNL d   1      25.424 -18.271  -0.155  0.00  0.00     0.014 A 
ATOM      3  C   UNL d   1      26.591 -17.723   0.404  0.00  0.00     0.049 A 
ATOM      4  C   UNL d   1      26.928 -16.394   0.145  0.00  0.00     0.102 A 
ATOM      5  N   UNL d   1      26.103 -15.703  -0.658  0.00  0.00    -0.352 N 
ATOM      6  C   UNL d   1      24.985 -16.190  -1.210  0.00  0.00     0.098 A 
ATOM      7  H   UNL d   1      26.388 -14.758  -0.883  0.00  0.00     0.166 HD
ENDROOT
BRANCH   1   8
ATOM      8  C   UNL d   1      23.308 -18.046  -1.552  0.00  0.00     0.162 C 
BRANCH   8   9
ATOM      9  N   UNL d   1      22.681 -19.068  -0.724  0.00  0.00    -0.356 N 
ATOM     10  C   UNL d   1      21.320 -18.968  -0.462  0.00  0.00     0.224 C 
ATOM     11  O   UNL d   1      20.643 -18.094  -1.000  0.00  0.00    -0.273 OA
ATOM     12  H   UNL d   1      23.234 -19.676  -0.137  0.00  0.00     0.162 HD
BRANCH  10  13
ATOM     13  C   UNL d   1      20.746 -20.033   0.478  0.00  0.00     0.109 C 
ATOM     14  C   UNL d   1      19.541 -20.762  -0.141  0.00  0.00     0.048 C 
ATOM     15  C   UNL d   1      18.392 -20.359   0.797  0.00  0.00     0.122 C 
ATOM     16  C   UNL d   1      18.508 -21.116   2.117  0.00  0.00     0.034 C 
ATOM     17  O   UNL d   1      18.788 -19.037   1.209  0.00  0.00    -0.380 OA
ATOM     18  C   UNL d   1      19.723 -20.438   2.758  0.00  0.00     0.035 C 
ATOM     19  C   UNL d   1      20.099 -19.383   1.711  0.00  0.00     0.135 C 
ENDBRANCH  10  13
ENDBRANCH   8   9
ENDBRANCH   1   8
BRANCH   4  20
ATOM     20  N   UNL d   1      28.048 -15.743   0.607  0.00  0.00    -0.367 N 
ATOM     21  C   UNL d   1      27.921 -14.806   1.728  0.00  0.00     0.124 C 
ATOM     22  C   UNL d   1      27.908 -13.377   1.182  0.00  0.00     0.020 C 
ATOM     23  C   UNL d   1      29.267 -12.863   0.712  0.00  0.00     0.002 C 
ATOM     24  C   UNL d   1      29.993 -13.770  -0.285  0.00  0.00     0.002 C 
ATOM     25  C   UNL d   1      30.447 -15.098   0.327  0.00  0.00     0.020 C 
ATOM     26  C   UNL d   1      29.391 -16.215   0.247  0.00  0.00     0.124 C 
ENDBRANCH   4  20
TORSDOF 4
ENDMDL
MODEL 2
REMARK VINA RESULT:    -7.615      1.493      2.253
REMARK INTER + INTRA:          -9.320
REMARK INTER:                  -8.809
REMARK INTRA:                  -0.512
REMARK CONF_INDEPENDENT:        1.193
REMARK UNBOUND:                -0.512
REMARK  4 active torsions:
REMARK  status: ('A' for Active; 'I' for Inactive)
REMARK       I    between atoms: C_2  and  N_3 
REMARK    1  A    between atoms: C_2  and  C_18 
REMARK    2  A    between atoms: N_3  and  C_4 
REMARK    3  A    between atoms: C_4  and  C_5 
REMARK    4  A    between atoms: C_8  and  N_9 
ROOT
ATOM      1  C   UNL d   1      24.253 -17.144  -1.069  0.00  0.00    -0.025 A 
ATOM      2  C   UNL d   1      25.044 -17.819  -0.131  0.00  0.00     0.014 A 
ATOM      3  C   UNL d   1      26.435 -17.621  -0.090  0.00  0.00     0.049 A 
ATOM      4  C   UNL d   1      27.037 -16.726  -0.975  0.00  0.00     0.102 A 
ATOM      5  N   UNL d   1      26.231 -16.103  -1.850  0.00  0.00    -0.352 N 
ATOM      6  C   UNL d   1      24.904 -16.266  -1.922  0.00  0.00     0.098 A 
ATOM      7  H   UNL d   1      26.686 -15.499  -2.523  0.00  0.00     0.166 HD
ENDROOT
BRANCH   1   8
ATOM      8  C   UNL d   1      22.749 -17.288  -1.095  0.00  0.00     0.162 C 
BRANCH   8   9
ATOM      9  N   UNL d   1      22.226 -18.246  -0.130  0.00  0.00    -0.356 N 
ATOM     10  C   UNL d   1      21.333 -19.214  -0.573  0.00  0.00     0.224 C 
ATOM     11  O   UNL d   1      21.071 -19.321  -1.769  0.00  0.00    -0.273 OA
ATOM     12  H   UNL d   1      22.282 -18.070   0.863  0.00  0.00     0.162 HD
BRANCH  10  13
ATOM     13  C   UNL d   1      20.766 -20.137   0.511  0.00  0.00     0.109 C 
ATOM     14  C   UNL d   1      19.462 -20.822   0.063  0.00  0.00     0.048 C 
ATOM     15  C   UNL d   1      18.430 -20.243   1.042  0.00  0.00     0.122 C 
ATOM     16  C   UNL d   1      18.603 -20.880   2.418  0.00  0.00     0.034 C 
ATOM     17  O   UNL d   1      18.953 -18.924   1.288  0.00  0.00    -0.380 OA
ATOM     18  C   UNL d   1      19.913 -20.244   2.891  0.00  0.00     0.035 C 
ATOM     19  C   UNL d   1      20.274 -19.325   1.719  0.00  0.00     0.135 C 
ENDBRANCH  10  13
ENDBRANCH   8   9
ENDBRANCH   1   8
BRANCH   4  20
ATOM     20  N   UNL d   1      28.382 -16.458  -1.057  0.00  0.00    -0.367 N 
ATOM     21  C   UNL d   1      28.936 -15.938  -2.313  0.00  0.00     0.124 C 
ATOM     22  C   UNL d   1      29.610 -17.083  -3.070  0.00  0.00     0.020 C 
ATOM     23  C   UNL d   1      30.952 -17.526  -2.489  0.00  0.00     0.002 C 
ATOM     24  C   UNL d   1      30.933 -17.859  -0.995  0.00  0.00     0.002 C 
ATOM     25  C   UNL d   1      30.688 -16.636  -0.107  0.00  0.00     0.020 C 
ATOM     26  C   UNL d   1      29.200 -16.345   0.158  0.00  0.00     0.124 C 
ENDBRANCH   4  20
TORSDOF 4
ENDMDL
MODEL 3
REMARK VINA RESULT:    -7.361      2.653      4.255
REMARK INTER + INTRA:          -9.782
REMARK INTER:                  -8.554
REMARK INTRA:                  -1.228
REMARK CONF_INDEPENDENT:        1.193
REMARK UNBOUND:                -1.228
REMARK  4 active torsions:
REMARK  status: ('A' for Active; 'I' for Inactive)
REMARK       I    between atoms: C_2  and  N_3 
REMARK    1  A    between atoms: C_2  and  C_18 
REMARK    2  A    between atoms: N_3  and  C_4 
REMARK    3  A    between atoms: C_4  and  C_5 
REMARK    4  A    between atoms: C_8  and  N_9 
ROOT
ATOM      1  C   UNL d   1      26.544 -15.327   0.084  0.00  0.00    -0.025 A 
ATOM      2  C   UNL d   1      26.271 -13.968   0.285  0.00  0.00     0.014 A 
ATOM      3  C   UNL d   1      26.838 -13.275   1.367  0.00  0.00     0.049 A 
ATOM      4  C   UNL d   1      27.701 -13.936   2.243  0.00  0.00     0.102 A 
ATOM      5  N   UNL d   1      27.930 -15.237   2.001  0.00  0.00    -0.352 N 
ATOM      6  C   UNL d   1      27.408 -15.932   0.983  0.00  0.00     0.098 A 
ATOM      7  H   UNL d   1      28.512 -15.720   2.674  0.00  0.00     0.166 HD
ENDROOT
BRANCH   1   8
ATOM      8  C   UNL d   1      26.000 -16.081  -1.108  0.00  0.00     0.162 C 
BRANCH   8   9
ATOM      9  N   UNL d   1      24.817 -16.880  -0.817  0.00  0.00    -0.356 N 
ATOM     10  C   UNL d   1      24.987 -18.140  -0.256  0.00  0.00     0.224 C 
ATOM     11  O   UNL d   1      26.104 -18.528   0.080  0.00  0.00    -0.273 OA
ATOM     12  H   UNL d   1      23.925 -16.665  -1.240  0.00  0.00     0.162 HD
BRANCH  10  13
ATOM     13  C   UNL d   1      23.705 -18.953  -0.050  0.00  0.00     0.109 C 
ATOM     14  C   UNL d   1      23.034 -19.324  -1.385  0.00  0.00     0.048 C 
ATOM     15  C   UNL d   1      21.699 -18.567  -1.307  0.00  0.00     0.122 C 
ATOM     16  C   UNL d   1      20.758 -19.270  -0.334  0.00  0.00     0.034 C 
ATOM     17  O   UNL d   1      22.057 -17.401  -0.539  0.00  0.00    -0.380 OA
ATOM     18  C   UNL d   1      21.409 -18.950   1.015  0.00  0.00     0.035 C 
ATOM     19  C   UNL d   1      22.611 -18.093   0.603  0.00  0.00     0.135 C 
ENDBRANCH  10  13
ENDBRANCH   8   9
ENDBRANCH   1   8
BRANCH   4  20
ATOM     20  N   UNL d   1      28.302 -13.386   3.349  0.00  0.00    -0.367 N 
ATOM     21  C   UNL d   1      29.516 -14.008   3.890  0.00  0.00     0.124 C 
ATOM     22  C   UNL d   1      29.142 -14.850   5.110  0.00  0.00     0.020 C 
ATOM     23  C   UNL d   1      28.818 -14.043   6.365  0.00  0.00     0.002 C 
ATOM     24  C   UNL d   1      27.768 -12.946   6.177  0.00  0.00     0.002 C 
ATOM     25  C   UNL d   1      28.246 -11.800   5.280  0.00  0.00     0.020 C 
ATOM     26  C   UNL d   1      27.972 -12.023   3.782  0.00  0.00     0.124 C 
ENDBRANCH   4  20
TORSDOF 4
ENDMDL
MODEL 4
REMARK VINA RESULT:    -7.001      3.443      5.325
REMARK INTER + INTRA:          -9.329
REMARK INTER:                  -8.194
REMARK INTRA:                  -1.135
REMARK CONF_INDEPENDENT:        1.193
REMARK UNBOUND:                -1.135
REMARK  4 active torsions:
REMARK  status: ('A' for Active; 'I' for Inactive)
REMARK       I    between atoms: C_2  and  N_3 
REMARK    1  A    between atoms: C_2  and  C_18 
REMARK    2  A    between atoms: N_3  and  C_4 
REMARK    3  A    between atoms: C_4  and  C_5 
REMARK    4  A    between atoms: C_8  and  N_9 
ROOT
ATOM      1  C   UNL d   1      27.098 -14.360   1.184  0.00  0.00    -0.025 A 
ATOM      2  C   UNL d   1      26.655 -13.181   1.798  0.00  0.00     0.014 A 
ATOM      3  C   UNL d   1      27.052 -12.861   3.107  0.00  0.00     0.049 A 
ATOM      4  C   UNL d   1      27.914 -13.711   3.800  0.00  0.00     0.102 A 
ATOM      5  N   UNL d   1      28.312 -14.824   3.163  0.00  0.00    -0.352 N 
ATOM      6  C   UNL d   1      27.954 -15.165   1.918  0.00  0.00     0.098 A 
ATOM      7  H   UNL d   1      28.891 -15.460   3.696  0.00  0.00     0.166 HD
ENDROOT
BRANCH   1   8
ATOM      8  C   UNL d   1      26.740 -14.698  -0.245  0.00  0.00     0.162 C 
BRANCH   8   9
ATOM      9  N   UNL d   1      25.683 -15.692  -0.374  0.00  0.00    -0.356 N 
ATOM     10  C   UNL d   1      25.147 -15.933  -1.634  0.00  0.00     0.224 C 
ATOM     11  O   UNL d   1      25.625 -15.391  -2.629  0.00  0.00    -0.273 OA
ATOM     12  H   UNL d   1      25.162 -16.009   0.431  0.00  0.00     0.162 HD
BRANCH  10  13
ATOM     13  C   UNL d   1      23.988 -16.933  -1.682  0.00  0.00     0.109 C 
ATOM     14  C   UNL d   1      22.758 -16.432  -0.905  0.00  0.00     0.048 C 
ATOM     15  C   UNL d   1      22.640 -17.461   0.230  0.00  0.00     0.122 C 
ATOM     16  C   UNL d   1      22.090 -18.776  -0.315  0.00  0.00     0.034 C 
ATOM     17  O   UNL d   1      24.017 -17.819   0.457  0.00  0.00    -0.380 OA
ATOM     18  C   UNL d   1      23.280 -19.299  -1.124  0.00  0.00     0.035 C 
ATOM     19  C   UNL d   1      24.334 -18.209  -0.898  0.00  0.00     0.135 C 
ENDBRANCH  10  13
ENDBRANCH   8   9
ENDBRANCH   1   8
BRANCH   4  20
ATOM     20  N   UNL d   1      28.360 -13.530   5.088  0.00  0.00    -0.367 N 
ATOM     21  C   UNL d   1      27.754 -12.481   5.915  0.00  0.00     0.124 C 
ATOM     22  C   UNL d   1      28.683 -11.267   5.937  0.00  0.00     0.020 C 
ATOM     23  C   UNL d   1      29.931 -11.435   6.801  0.00  0.00     0.002 C 
ATOM     24  C   UNL d   1      30.758 -12.689   6.508  0.00  0.00     0.002 C 
ATOM     25  C   UNL d   1      30.038 -13.988   6.883  0.00  0.00     0.020 C 
ATOM     26  C   UNL d   1      29.160 -14.563   5.757  0.00  0.00     0.124 C 
ENDBRANCH   4  20
TORSDOF 4
ENDMDL
MODEL 5
REMARK VINA RESULT:    -6.903      3.178      5.366
REMARK INTER + INTRA:          -9.227
REMARK INTER:                  -8.096
REMARK INTRA:                  -1.131
REMARK CONF_INDEPENDENT:        1.193
REMARK UNBOUND:                -1.131
REMARK  4 active torsions:
REMARK  status: ('A' for Active; 'I' for Inactive)
REMARK       I    between atoms: C_2  and  N_3 
REMARK    1  A    between atoms: C_2  and  C_18 
REMARK    2  A    between atoms: N_3  and  C_4 
REMARK    3  A    between atoms: C_4  and  C_5 
REMARK    4  A    between atoms: C_8  and  N_9 
ROOT
ATOM      1  C   UNL d   1      27.391 -14.297   0.520  0.00  0.00    -0.025 A 
ATOM      2  C   UNL d   1      27.083 -13.004   0.959  0.00  0.00     0.014 A 
ATOM      3  C   UNL d   1      27.566 -12.530   2.191  0.00  0.00     0.049 A 
ATOM      4  C   UNL d   1      28.381 -13.345   2.979  0.00  0.00     0.102 A 
ATOM      5  N   UNL d   1      28.648 -14.573   2.507  0.00  0.00    -0.352 N 
ATOM      6  C   UNL d   1      28.205 -15.061   1.341  0.00  0.00     0.098 A 
ATOM      7  H   UNL d   1      29.193 -15.174   3.112  0.00  0.00     0.166 HD
ENDROOT
BRANCH   1   8
ATOM      8  C   UNL d   1      26.940 -14.810  -0.829  0.00  0.00     0.162 C 
BRANCH   8   9
ATOM      9  N   UNL d   1      25.826 -15.748  -0.766  0.00  0.00    -0.356 N 
ATOM     10  C   UNL d   1      25.241 -16.164  -1.956  0.00  0.00     0.224 C 
ATOM     11  O   UNL d   1      25.718 -15.827  -3.038  0.00  0.00    -0.273 OA
ATOM     12  H   UNL d   1      25.313 -15.892   0.092  0.00  0.00     0.162 HD
BRANCH  10  13
ATOM     13  C   UNL d   1      24.027 -17.088  -1.810  0.00  0.00     0.109 C 
ATOM     14  C   UNL d   1      22.883 -16.421  -1.027  0.00  0.00     0.048 C 
ATOM     15  C   UNL d   1      22.786 -17.298   0.230  0.00  0.00     0.122 C 
ATOM     16  C   UNL d   1      22.127 -18.631  -0.115  0.00  0.00     0.034 C 
ATOM     17  O   UNL d   1      24.152 -17.714   0.416  0.00  0.00    -0.380 OA
ATOM     18  C   UNL d   1      23.229 -19.321  -0.925  0.00  0.00     0.035 C 
ATOM     19  C   UNL d   1      24.355 -18.281  -0.898  0.00  0.00     0.135 C 
ENDBRANCH  10  13
ENDBRANCH   8   9
ENDBRANCH   1   8
BRANCH   4  20
ATOM     20  N   UNL d   1      28.899 -13.016   4.208  0.00  0.00    -0.367 N 
ATOM     21  C   UNL d   1      29.935 -13.869   4.801  0.00  0.00     0.124 C 
ATOM     22  C   UNL d   1      29.292 -14.773   5.853  0.00  0.00     0.020 C 
ATOM     23  C   UNL d   1      28.916 -14.069   7.155  0.00  0.00     0.002 C 
ATOM     24  C   UNL d   1      28.059 -12.811   6.988  0.00  0.00     0.002 C 
ATOM     25  C   UNL d   1      28.803 -11.660   6.306  0.00  0.00     0.020 C 
ATOM     26  C   UNL d   1      28.703 -11.674   4.770  0.00  0.00     0.124 C 
ENDBRANCH   4  20
TORSDOF 4
ENDMDL
MODEL 6
REMARK VINA RESULT:    -6.780      5.522      7.072
REMARK INTER + INTRA:          -9.191
REMARK INTER:                  -7.974
REMARK INTRA:                  -1.217
REMARK CONF_INDEPENDENT:        1.193
REMARK UNBOUND:                -1.217
REMARK  4 active torsions:
REMARK  status: ('A' for Active; 'I' for Inactive)
REMARK       I    between atoms: C_2  and  N_3 
REMARK    1  A    between atoms: C_2  and  C_18 
REMARK    2  A    between atoms: N_3  and  C_4 
REMARK    3  A    between atoms: C_4  and  C_5 
REMARK    4  A    between atoms: C_8  and  N_9 
ROOT
ATOM      1  C   UNL d   1      26.675 -14.124  -4.317  0.00  0.00    -0.025 A 
ATOM      2  C   UNL d   1      27.756 -13.497  -4.949  0.00  0.00     0.014 A 
ATOM      3  C   UNL d   1      27.695 -12.136  -5.294  0.00  0.00     0.049 A 
ATOM      4  C   UNL d   1      26.555 -11.390  -4.986  0.00  0.00     0.102 A 
ATOM      5  N   UNL d   1      25.551 -12.040  -4.376  0.00  0.00    -0.352 N 
ATOM      6  C   UNL d   1      25.570 -13.335  -4.034  0.00  0.00     0.098 A 
ATOM      7  H   UNL d   1      24.710 -11.504  -4.209  0.00  0.00     0.166 HD
ENDROOT
BRANCH   1   8
ATOM      8  C   UNL d   1      26.737 -15.568  -3.876  0.00  0.00     0.162 C 
BRANCH   8   9
ATOM      9  N   UNL d   1      25.736 -15.930  -2.882  0.00  0.00    -0.356 N 
ATOM     10  C   UNL d   1      26.086 -15.882  -1.538  0.00  0.00     0.224 C 
ATOM     11  O   UNL d   1      27.184 -15.447  -1.194  0.00  0.00    -0.273 OA
ATOM     12  H   UNL d   1      24.909 -16.452  -3.138  0.00  0.00     0.162 HD
BRANCH  10  13
ATOM     13  C   UNL d   1      25.009 -16.351  -0.554  0.00  0.00     0.109 C 
ATOM     14  C   UNL d   1      25.258 -17.788  -0.065  0.00  0.00     0.048 C 
ATOM     15  C   UNL d   1      24.043 -18.544  -0.625  0.00  0.00     0.122 C 
ATOM     16  C   UNL d   1      22.797 -18.201   0.187  0.00  0.00     0.034 C 
ATOM     17  O   UNL d   1      23.775 -17.825  -1.844  0.00  0.00    -0.380 OA
ATOM     18  C   UNL d   1      22.530 -16.758  -0.250  0.00  0.00     0.035 C 
ATOM     19  C   UNL d   1      23.654 -16.508  -1.261  0.00  0.00     0.135 C 
ENDBRANCH  10  13
ENDBRANCH   8   9
ENDBRANCH   1   8
BRANCH   4  20
ATOM     20  N   UNL d   1      26.356 -10.064  -5.286  0.00  0.00    -0.367 N 
ATOM     21  C   UNL d   1      26.533  -9.056  -4.235  0.00  0.00     0.124 C 
ATOM     22  C   UNL d   1      25.159  -8.644  -3.706  0.00  0.00     0.020 C 
ATOM     23  C   UNL d   1      24.361  -7.741  -4.645  0.00  0.00     0.002 C 
ATOM     24  C   UNL d   1      24.207  -8.265  -6.074  0.00  0.00     0.002 C 
ATOM     25  C   UNL d   1      25.527  -8.299  -6.850  0.00  0.00     0.020 C 
ATOM     26  C   UNL d   1      26.318  -9.609  -6.681  0.00  0.00     0.124 C 
ENDBRANCH   4  20
TORSDOF 4
ENDMDL
MODEL 7
REMARK VINA RESULT:    -6.562      6.291      9.857
REMARK INTER + INTRA:          -8.941
REMARK INTER:                  -7.755
REMARK INTRA:                  -1.187
REMARK CONF_INDEPENDENT:        1.193
REMARK UNBOUND:                -1.187
REMARK  4 active torsions:
REMARK  status: ('A' for Active; 'I' for Inactive)
REMARK       I    between atoms: C_2  and  N_3 
REMARK    1  A    between atoms: C_2  and  C_18 
REMARK    2  A    between atoms: N_3  and  C_4 
REMARK    3  A    between atoms: C_4  and  C_5 
REMARK    4  A    between atoms: C_8  and  N_9 
ROOT
ATOM      1  C   UNL d   1      26.263 -13.374  -4.635  0.00  0.00    -0.025 A 
ATOM      2  C   UNL d   1      26.111 -14.754  -4.822  0.00  0.00     0.014 A 
ATOM      3  C   UNL d   1      25.690 -15.579  -3.766  0.00  0.00     0.049 A 
ATOM      4  C   UNL d   1      25.398 -15.021  -2.521  0.00  0.00     0.102 A 
ATOM      5  N   UNL d   1      25.556 -13.693  -2.398  0.00  0.00    -0.352 N 
ATOM      6  C   UNL d   1      25.957 -12.874  -3.379  0.00  0.00     0.098 A 
ATOM      7  H   UNL d   1      25.395 -13.308  -1.476  0.00  0.00     0.166 HD
ENDROOT
BRANCH   1   8
ATOM      8  C   UNL d   1      26.651 -12.453  -5.769  0.00  0.00     0.162 C 
BRANCH   8   9
ATOM      9  N   UNL d   1      25.962 -11.170  -5.756  0.00  0.00    -0.356 N 
ATOM     10  C   UNL d   1      26.596 -10.070  -6.322  0.00  0.00     0.224 C 
ATOM     11  O   UNL d   1      27.668 -10.201  -6.910  0.00  0.00    -0.273 OA
ATOM     12  H   UNL d   1      25.184 -11.001  -5.135  0.00  0.00     0.162 HD
BRANCH  10  13
ATOM     13  C   UNL d   1      25.847  -8.739  -6.203  0.00  0.00     0.109 C 
ATOM     14  C   UNL d   1      26.371  -7.882  -5.037  0.00  0.00     0.048 C 
ATOM     15  C   UNL d   1      25.155  -7.816  -4.101  0.00  0.00     0.122 C 
ATOM     16  C   UNL d   1      24.108  -6.866  -4.675  0.00  0.00     0.034 C 
ATOM     17  O   UNL d   1      24.522  -9.088  -4.336  0.00  0.00    -0.380 OA
ATOM     18  C   UNL d   1      23.577  -7.672  -5.864  0.00  0.00     0.035 C 
ATOM     19  C   UNL d   1      24.390  -8.968  -5.771  0.00  0.00     0.135 C 
ENDBRANCH  10  13
ENDBRANCH   8   9
ENDBRANCH   1   8
BRANCH   4  20
ATOM     20  N   UNL d   1      25.001 -15.713  -1.402  0.00  0.00    -0.367 N 
ATOM     21  C   UNL d   1      25.840 -15.674  -0.199  0.00  0.00     0.124 C 
ATOM     22  C   UNL d   1      26.654 -16.965  -0.118  0.00  0.00     0.020 C 
ATOM     23  C   UNL d   1      25.854 -18.197   0.300  0.00  0.00     0.002 C 
ATOM     24  C   UNL d   1      24.588 -18.457  -0.520  0.00  0.00     0.002 C 
ATOM     25  C   UNL d   1      23.505 -17.394  -0.312  0.00  0.00     0.020 C 
ATOM     26  C   UNL d   1      23.619 -16.191  -1.266  0.00  0.00     0.124 C 
ENDBRANCH   4  20
TORSDOF 4
ENDMDL
MODEL 8
REMARK VINA RESULT:    -6.509      5.914      7.744
REMARK INTER + INTRA:          -8.913
REMARK INTER:                  -7.702
REMARK INTRA:                  -1.211
REMARK CONF_INDEPENDENT:        1.193
REMARK UNBOUND:                -1.211
REMARK  4 active torsions:
REMARK  status: ('A' for Active; 'I' for Inactive)
REMARK       I    between atoms: C_2  and  N_3 
REMARK    1  A    between atoms: C_2  and  C_18 
REMARK    2  A    between atoms: N_3  and  C_4 
REMARK    3  A    between atoms: C_4  and  C_5 
REMARK    4  A    between atoms: C_8  and  N_9 
ROOT
ATOM      1  C   UNL d   1      28.044 -14.997  -5.153  0.00  0.00    -0.025 A 
ATOM      2  C   UNL d   1      28.875 -15.955  -4.558  0.00  0.00     0.014 A 
ATOM      3  C   UNL d   1      29.961 -16.500  -5.264  0.00  0.00     0.049 A 
ATOM      4  C   UNL d   1      30.233 -16.070  -6.564  0.00  0.00     0.102 A 
ATOM      5  N   UNL d   1      29.407 -15.147  -7.083  0.00  0.00    -0.352 N 
ATOM      6  C   UNL d   1      28.362 -14.606  -6.444  0.00  0.00     0.098 A 
ATOM      7  H   UNL d   1      29.581 -14.885  -8.045  0.00  0.00     0.166 HD
ENDROOT
BRANCH   1   8
ATOM      8  C   UNL d   1      26.909 -14.345  -4.396  0.00  0.00     0.162 C 
BRANCH   8   9
ATOM      9  N   UNL d   1      26.367 -15.161  -3.319  0.00  0.00    -0.356 N 
ATOM     10  C   UNL d   1      25.075 -14.903  -2.875  0.00  0.00     0.224 C 
ATOM     11  O   UNL d   1      24.373 -14.073  -3.448  0.00  0.00    -0.273 OA
ATOM     12  H   UNL d   1      26.971 -15.712  -2.725  0.00  0.00     0.162 HD
BRANCH  10  13
ATOM     13  C   UNL d   1      24.600 -15.748  -1.688  0.00  0.00     0.109 C 
ATOM     14  C   UNL d   1      25.504 -15.574  -0.455  0.00  0.00     0.048 C 
ATOM     15  C   UNL d   1      26.100 -16.979  -0.280  0.00  0.00     0.122 C 
ATOM     16  C   UNL d   1      25.048 -17.923   0.296  0.00  0.00     0.034 C 
ATOM     17  O   UNL d   1      26.170 -17.450  -1.639  0.00  0.00    -0.380 OA
ATOM     18  C   UNL d   1      24.106 -18.101  -0.898  0.00  0.00     0.035 C 
ATOM     19  C   UNL d   1      24.779 -17.247  -1.978  0.00  0.00     0.135 C 
ENDBRANCH  10  13
ENDBRANCH   8   9
ENDBRANCH   1   8
BRANCH   4  20
ATOM     20  N   UNL d   1      31.243 -16.536  -7.370  0.00  0.00    -0.367 N 
ATOM     21  C   UNL d   1      31.155 -17.893  -7.920  0.00  0.00     0.124 C 
ATOM     22  C   UNL d   1      32.041 -18.824  -7.092  0.00  0.00     0.020 C 
ATOM     23  C   UNL d   1      33.540 -18.662  -7.339  0.00  0.00     0.002 C 
ATOM     24  C   UNL d   1      34.066 -17.230  -7.213  0.00  0.00     0.002 C 
ATOM     25  C   UNL d   1      33.547 -16.297  -8.311  0.00  0.00     0.020 C 
ATOM     26  C   UNL d   1      32.213 -15.610  -7.967  0.00  0.00     0.124 C 
ENDBRANCH   4  20
TORSDOF 4
ENDMDL
MODEL 9
REMARK VINA RESULT:    -6.499      9.267     12.380
REMARK INTER + INTRA:          -8.930
REMARK INTER:                  -7.692
REMARK INTRA:                  -1.238
REMARK CONF_INDEPENDENT:        1.193
REMARK UNBOUND:                -1.238
REMARK  4 active torsions:
REMARK  status: ('A' for Active; 'I' for Inactive)
REMARK       I    between atoms: C_2  and  N_3 
REMARK    1  A    between atoms: C_2  and  C_18 
REMARK    2  A    between atoms: N_3  and  C_4 
REMARK    3  A    between atoms: C_4  and  C_5 
REMARK    4  A    between atoms: C_8  and  N_9 
ROOT
ATOM      1  C   UNL d   1      31.532 -21.383   2.755  0.00  0.00    -0.025 A 
ATOM      2  C   UNL d   1      30.194 -21.575   2.389  0.00  0.00     0.014 A 
ATOM      3  C   UNL d   1      29.857 -22.426   1.323  0.00  0.00     0.049 A 
ATOM      4  C   UNL d   1      30.861 -23.108   0.633  0.00  0.00     0.102 A 
ATOM      5  N   UNL d   1      32.125 -22.891   1.028  0.00  0.00    -0.352 N 
ATOM      6  C   UNL d   1      32.486 -22.087   2.036  0.00  0.00     0.098 A 
ATOM      7  H   UNL d   1      32.847 -23.347   0.485  0.00  0.00     0.166 HD
ENDROOT
BRANCH   1   8
ATOM      8  C   UNL d   1      31.920 -20.525   3.937  0.00  0.00     0.162 C 
BRANCH   8   9
ATOM      9  N   UNL d   1      32.730 -21.214   4.933  0.00  0.00    -0.356 N 
ATOM     10  C   UNL d   1      32.178 -21.461   6.184  0.00  0.00     0.224 C 
ATOM     11  O   UNL d   1      30.999 -21.194   6.410  0.00  0.00    -0.273 OA
ATOM     12  H   UNL d   1      33.734 -21.279   4.836  0.00  0.00     0.162 HD
BRANCH  10  13
ATOM     13  C   UNL d   1      33.113 -22.119   7.204  0.00  0.00     0.109 C 
ATOM     14  C   UNL d   1      34.337 -21.242   7.517  0.00  0.00     0.048 C 
ATOM     15  C   UNL d   1      35.500 -22.096   6.990  0.00  0.00     0.122 C 
ATOM     16  C   UNL d   1      35.762 -23.262   7.939  0.00  0.00     0.034 C 
ATOM     17  O   UNL d   1      34.892 -22.784   5.880  0.00  0.00    -0.380 OA
ATOM     18  C   UNL d   1      34.543 -24.152   7.680  0.00  0.00     0.035 C 
ATOM     19  C   UNL d   1      33.785 -23.365   6.605  0.00  0.00     0.135 C 
ENDBRANCH  10  13
ENDBRANCH   8   9
ENDBRANCH   1   8
BRANCH   4  20
ATOM     20  N   UNL d   1      30.672 -23.949  -0.438  0.00  0.00    -0.367 N 
ATOM     21  C   UNL d   1      31.515 -23.794  -1.629  0.00  0.00     0.124 C 
ATOM     22  C   UNL d   1      30.729 -23.039  -2.701  0.00  0.00     0.020 C 
ATOM     23  C   UNL d   1      29.645 -23.863  -3.393  0.00  0.00     0.002 C 
ATOM     24  C   UNL d   1      28.660 -24.560  -2.452  0.00  0.00     0.002 C 
ATOM     25  C   UNL d   1      29.304 -25.675  -1.621  0.00  0.00     0.020 C 
ATOM     26  C   UNL d   1      29.906 -25.193  -0.289  0.00  0.00     0.124 C 
ENDBRANCH   4  20
TORSDOF 4
ENDMDL
