MODEL 1
REMARK VINA RESULT:    -8.055      0.000      0.000
REMARK INTER + INTRA:         -16.248
REMARK INTER:                 -11.635
REMARK INTRA:                  -4.613
REMARK CONF_INDEPENDENT:        3.580
REMARK UNBOUND:                -4.613
REMARK  12 active torsions:
REMARK  status: ('A' for Active; 'I' for Inactive)
REMARK    1  A    between atoms: C_2  and  C_3 
REMARK    2  A    between atoms: C_4  and  C_5 
REMARK    3  A    between atoms: C_5  and  O_7 
REMARK    4  A    between atoms: C_12  and  C_13 
REMARK    5  A    between atoms: C_13  and  N_14 
REMARK    6  A    between atoms: N_14  and  C_15 
REMARK    7  A    between atoms: N_14  and  C_27 
REMARK    8  A    between atoms: C_15  and  C_16 
REMARK    9  A    between atoms: C_16  and  O_17 
REMARK   10  A    between atoms: C_16  and  C_18 
REMARK   11  A    between atoms: C_18  and  O_19 
REMARK   12  A    between atoms: O_19  and  C_20 
ROOT
ATOM      1  C   UNL d   1      31.508 -16.259   0.507  0.00  0.00     0.313 C 
ENDROOT
BRANCH   1   2
ATOM      2  C   UNL d   1      30.224 -15.818  -0.221  0.00  0.00     0.134 C 
ATOM      3  N   UNL d   1      30.198 -15.783  -1.524  0.00  0.00    -0.225 NA
ATOM      4  C   UNL d   1      28.934 -15.709  -2.046  0.00  0.00     0.116 A 
ATOM      5  S   UNL d   1      28.601 -15.380  -3.674  0.00  0.00    -0.063 SA
ATOM      6  C   UNL d   1      27.766 -15.914  -1.348  0.00  0.00     0.076 A 
ATOM      7  C   UNL d   1      26.886 -15.540  -3.456  0.00  0.00     0.089 A 
ATOM      8  C   UNL d   1      26.573 -15.902  -2.145  0.00  0.00    -0.017 A 
ATOM      9  C   UNL d   1      27.914 -16.066   0.072  0.00  0.00     0.260 C 
ATOM     10  N   UNL d   1      29.110 -15.599   0.561  0.00  0.00    -0.309 N 
ATOM     11  O   UNL d   1      27.144 -16.643   0.830  0.00  0.00    -0.267 OA
ATOM     12  H   UNL d   1      29.139 -15.793   1.545  0.00  0.00     0.170 HD
BRANCH   7  13
ATOM     13  C   UNL d   1      26.038 -15.249  -4.623  0.00  0.00     0.300 C 
ATOM     14  O   UNL d   1      26.255 -15.572  -5.769  0.00  0.00    -0.259 OA
BRANCH  13  15
ATOM     15  O   UNL d   1      24.950 -14.516  -4.237  0.00  0.00    -0.322 OA
ATOM     16  C   UNL d   1      25.161 -13.122  -4.011  0.00  0.00     0.213 C 
ENDBRANCH  13  15
ENDBRANCH   7  13
BRANCH   8  17
ATOM     17  C   UNL d   1      25.202 -16.156  -1.561  0.00  0.00     0.037 C 
ATOM     18  C   UNL d   1      25.001 -17.577  -1.055  0.00  0.00     0.010 C 
ENDBRANCH   8  17
ENDBRANCH   1   2
BRANCH   1  19
ATOM     19  N   UNL d   1      31.707 -17.798   0.796  0.00  0.00    -0.058 N 
ATOM     20  H   UNL d   1      30.780 -18.198   0.978  0.00  0.00     0.280 HD
BRANCH  19  21
ATOM     21  C   UNL d   1      32.430 -18.570  -0.358  0.00  0.00     0.269 C 
BRANCH  21  22
ATOM     22  C   UNL d   1      31.517 -18.925  -1.497  0.00  0.00     0.168 C 
BRANCH  22  23
ATOM     23  O   UNL d   1      30.181 -18.614  -1.177  0.00  0.00    -0.392 OA
ATOM     24  H   UNL d   1      29.815 -17.894  -1.712  0.00  0.00     0.210 HD
ENDBRANCH  22  23
BRANCH  22  25
ATOM     25  C   UNL d   1      31.767 -18.292  -2.815  0.00  0.00     0.209 C 
BRANCH  25  26
ATOM     26  O   UNL d   1      30.489 -18.179  -3.446  0.00  0.00    -0.348 OA
BRANCH  26  27
ATOM     27  C   UNL d   1      30.549 -18.347  -4.793  0.00  0.00     0.074 A 
ATOM     28  C   UNL d   1      30.557 -17.173  -5.555  0.00  0.00     0.037 A 
ATOM     29  C   UNL d   1      30.753 -17.256  -6.929  0.00  0.00     0.003 A 
ATOM     30  C   UNL d   1      30.913 -18.505  -7.523  0.00  0.00     0.001 A 
ATOM     31  C   UNL d   1      30.819 -19.670  -6.763  0.00  0.00     0.009 A 
ATOM     32  C   UNL d   1      30.597 -19.611  -5.392  0.00  0.00    -0.029 A 
ATOM     33  C   UNL d   1      30.405 -20.903  -4.650  0.00  0.00     0.051 C 
ENDBRANCH  26  27
ENDBRANCH  25  26
ENDBRANCH  22  25
ENDBRANCH  21  22
ENDBRANCH  19  21
BRANCH  19  34
ATOM     34  C   UNL d   1      32.514 -18.039   2.089  0.00  0.00     0.180 C 
ATOM     35  C   UNL d   1      32.996 -19.483   2.169  0.00  0.00     0.039 C 
ATOM     36  C   UNL d   1      33.738 -17.115   2.112  0.00  0.00     0.039 C 
ENDBRANCH  19  34
ENDBRANCH   1  19
TORSDOF 12
ENDMDL
MODEL 2
REMARK VINA RESULT:    -7.414      4.735      6.950
REMARK INTER + INTRA:         -15.026
REMARK INTER:                 -10.994
REMARK INTRA:                  -4.032
REMARK CONF_INDEPENDENT:        3.580
REMARK UNBOUND:                -4.032
REMARK  12 active torsions:
REMARK  status: ('A' for Active; 'I' for Inactive)
REMARK    1  A    between atoms: C_2  and  C_3 
REMARK    2  A    between atoms: C_4  and  C_5 
REMARK    3  A    between atoms: C_5  and  O_7 
REMARK    4  A    between atoms: C_12  and  C_13 
REMARK    5  A    between atoms: C_13  and  N_14 
REMARK    6  A    between atoms: N_14  and  C_15 
REMARK    7  A    between atoms: N_14  and  C_27 
REMARK    8  A    between atoms: C_15  and  C_16 
REMARK    9  A    between atoms: C_16  and  O_17 
REMARK   10  A    between atoms: C_16  and  C_18 
REMARK   11  A    between atoms: C_18  and  O_19 
REMARK   12  A    between atoms: O_19  and  C_20 
ROOT
ATOM      1  C   UNL d   1      28.217 -14.926   1.878  0.00  0.00     0.313 C 
ENDROOT
BRANCH   1   2
ATOM      2  C   UNL d   1      27.553 -13.586   1.508  0.00  0.00     0.134 C 
ATOM      3  N   UNL d   1      27.359 -12.684   2.431  0.00  0.00    -0.225 NA
ATOM      4  C   UNL d   1      27.084 -11.439   1.932  0.00  0.00     0.116 A 
ATOM      5  S   UNL d   1      26.528 -10.146   2.872  0.00  0.00    -0.063 SA
ATOM      6  C   UNL d   1      27.244 -11.048   0.621  0.00  0.00     0.076 A 
ATOM      7  C   UNL d   1      26.524  -9.045   1.529  0.00  0.00     0.089 A 
ATOM      8  C   UNL d   1      27.006  -9.656   0.371  0.00  0.00    -0.017 A 
ATOM      9  C   UNL d   1      27.581 -12.097  -0.298  0.00  0.00     0.260 C 
ATOM     10  N   UNL d   1      27.310 -13.360   0.170  0.00  0.00    -0.309 N 
ATOM     11  O   UNL d   1      28.158 -11.971  -1.372  0.00  0.00    -0.267 OA
ATOM     12  H   UNL d   1      27.624 -14.019  -0.517  0.00  0.00     0.170 HD
BRANCH   7  13
ATOM     13  C   UNL d   1      26.003  -7.692   1.781  0.00  0.00     0.300 C 
ATOM     14  O   UNL d   1      25.155  -7.115   1.138  0.00  0.00    -0.259 OA
BRANCH  13  15
ATOM     15  O   UNL d   1      26.643  -7.138   2.855  0.00  0.00    -0.322 OA
ATOM     16  C   UNL d   1      27.790  -6.334   2.577  0.00  0.00     0.213 C 
ENDBRANCH  13  15
ENDBRANCH   7  13
BRANCH   8  17
ATOM     17  C   UNL d   1      27.177  -9.035  -0.997  0.00  0.00     0.037 C 
ATOM     18  C   UNL d   1      25.909  -8.397  -1.546  0.00  0.00     0.010 C 
ENDBRANCH   8  17
ENDBRANCH   1   2
BRANCH   1  19
ATOM     19  N   UNL d   1      29.682 -15.200   1.356  0.00  0.00    -0.058 N 
ATOM     20  H   UNL d   1      29.944 -16.144   1.662  0.00  0.00     0.280 HD
BRANCH  19  21
ATOM     21  C   UNL d   1      29.838 -15.054  -0.194  0.00  0.00     0.269 C 
BRANCH  21  22
ATOM     22  C   UNL d   1      29.764 -16.365  -0.924  0.00  0.00     0.168 C 
BRANCH  22  23
ATOM     23  O   UNL d   1      30.319 -17.398  -0.145  0.00  0.00    -0.392 OA
ATOM     24  H   UNL d   1      29.655 -17.918   0.333  0.00  0.00     0.210 HD
ENDBRANCH  22  23
BRANCH  22  25
ATOM     25  C   UNL d   1      28.429 -16.856  -1.343  0.00  0.00     0.209 C 
BRANCH  25  26
ATOM     26  O   UNL d   1      27.477 -16.100  -0.590  0.00  0.00    -0.348 OA
BRANCH  26  27
ATOM     27  C   UNL d   1      26.226 -16.626  -0.642  0.00  0.00     0.074 A 
ATOM     28  C   UNL d   1      26.016 -17.780   0.122  0.00  0.00     0.037 A 
ATOM     29  C   UNL d   1      24.730 -18.299   0.228  0.00  0.00     0.003 A 
ATOM     30  C   UNL d   1      23.683 -17.677  -0.446  0.00  0.00     0.001 A 
ATOM     31  C   UNL d   1      23.922 -16.578  -1.270  0.00  0.00     0.009 A 
ATOM     32  C   UNL d   1      25.204 -16.059  -1.412  0.00  0.00    -0.029 A 
ATOM     33  C   UNL d   1      25.409 -14.939  -2.392  0.00  0.00     0.051 C 
ENDBRANCH  26  27
ENDBRANCH  25  26
ENDBRANCH  22  25
ENDBRANCH  21  22
ENDBRANCH  19  21
BRANCH  19  34
ATOM     34  C   UNL d   1      30.710 -14.259   2.015  0.00  0.00     0.180 C 
ATOM     35  C   UNL d   1      30.814 -12.943   1.251  0.00  0.00     0.039 C 
ATOM     36  C   UNL d   1      30.280 -13.952   3.456  0.00  0.00     0.039 C 
ENDBRANCH  19  34
ENDBRANCH   1  19
TORSDOF 12
ENDMDL
MODEL 3
REMARK VINA RESULT:    -7.113      2.851      4.270
REMARK INTER + INTRA:         -15.934
REMARK INTER:                 -10.692
REMARK INTRA:                  -5.242
REMARK CONF_INDEPENDENT:        3.580
REMARK UNBOUND:                -5.242
REMARK  12 active torsions:
REMARK  status: ('A' for Active; 'I' for Inactive)
REMARK    1  A    between atoms: C_2  and  C_3 
REMARK    2  A    between atoms: C_4  and  C_5 
REMARK    3  A    between atoms: C_5  and  O_7 
REMARK    4  A    between atoms: C_12  and  C_13 
REMARK    5  A    between atoms: C_13  and  N_14 
REMARK    6  A    between atoms: N_14  and  C_15 
REMARK    7  A    between atoms: N_14  and  C_27 
REMARK    8  A    between atoms: C_15  and  C_16 
REMARK    9  A    between atoms: C_16  and  O_17 
REMARK   10  A    between atoms: C_16  and  C_18 
REMARK   11  A    between atoms: C_18  and  O_19 
REMARK   12  A    between atoms: O_19  and  C_20 
ROOT
ATOM      1  C   UNL d   1      29.298 -13.489   2.504  0.00  0.00     0.313 C 
ENDROOT
BRANCH   1   2
ATOM      2  C   UNL d   1      28.177 -13.892   1.526  0.00  0.00     0.134 C 
ATOM      3  N   UNL d   1      27.978 -13.190   0.445  0.00  0.00    -0.225 NA
ATOM      4  C   UNL d   1      27.205 -13.827  -0.488  0.00  0.00     0.116 A 
ATOM      5  S   UNL d   1      26.560 -13.070  -1.858  0.00  0.00    -0.063 SA
ATOM      6  C   UNL d   1      26.865 -15.161  -0.471  0.00  0.00     0.076 A 
ATOM      7  C   UNL d   1      25.843 -14.536  -2.451  0.00  0.00     0.089 A 
ATOM      8  C   UNL d   1      26.148 -15.619  -1.626  0.00  0.00    -0.017 A 
ATOM      9  C   UNL d   1      27.240 -15.878   0.715  0.00  0.00     0.260 C 
ATOM     10  N   UNL d   1      27.514 -15.071   1.793  0.00  0.00    -0.309 N 
ATOM     11  O   UNL d   1      27.427 -17.086   0.811  0.00  0.00    -0.267 OA
ATOM     12  H   UNL d   1      27.813 -15.657   2.550  0.00  0.00     0.170 HD
BRANCH   7  13
ATOM     13  C   UNL d   1      25.021 -14.429  -3.667  0.00  0.00     0.300 C 
ATOM     14  O   UNL d   1      24.011 -13.775  -3.798  0.00  0.00    -0.259 OA
BRANCH  13  15
ATOM     15  O   UNL d   1      25.547 -15.213  -4.656  0.00  0.00    -0.322 OA
ATOM     16  C   UNL d   1      26.921 -15.000  -4.984  0.00  0.00     0.213 C 
ENDBRANCH  13  15
ENDBRANCH   7  13
BRANCH   8  17
ATOM     17  C   UNL d   1      25.731 -17.061  -1.806  0.00  0.00     0.037 C 
ATOM     18  C   UNL d   1      24.425 -17.416  -1.110  0.00  0.00     0.010 C 
ENDBRANCH   8  17
ENDBRANCH   1   2
BRANCH   1  19
ATOM     19  N   UNL d   1      30.091 -14.638   3.241  0.00  0.00    -0.058 N 
ATOM     20  H   UNL d   1      29.819 -15.526   2.805  0.00  0.00     0.280 HD
BRANCH  19  21
ATOM     21  C   UNL d   1      31.645 -14.455   3.209  0.00  0.00     0.269 C 
BRANCH  21  22
ATOM     22  C   UNL d   1      32.322 -15.310   2.176  0.00  0.00     0.168 C 
BRANCH  22  23
ATOM     23  O   UNL d   1      32.043 -16.672   2.399  0.00  0.00    -0.392 OA
ATOM     24  H   UNL d   1      31.179 -16.948   2.059  0.00  0.00     0.210 HD
ENDBRANCH  22  23
BRANCH  22  25
ATOM     25  C   UNL d   1      31.999 -15.067   0.749  0.00  0.00     0.209 C 
BRANCH  25  26
ATOM     26  O   UNL d   1      30.639 -15.475   0.578  0.00  0.00    -0.348 OA
BRANCH  26  27
ATOM     27  C   UNL d   1      30.328 -15.744  -0.717  0.00  0.00     0.074 A 
ATOM     28  C   UNL d   1      30.119 -17.093  -1.027  0.00  0.00     0.037 A 
ATOM     29  C   UNL d   1      29.666 -17.435  -2.296  0.00  0.00     0.003 A 
ATOM     30  C   UNL d   1      29.451 -16.434  -3.240  0.00  0.00     0.001 A 
ATOM     31  C   UNL d   1      29.744 -15.104  -2.943  0.00  0.00     0.009 A 
ATOM     32  C   UNL d   1      30.224 -14.742  -1.689  0.00  0.00    -0.029 A 
ATOM     33  C   UNL d   1      30.614 -13.309  -1.467  0.00  0.00     0.051 C 
ENDBRANCH  26  27
ENDBRANCH  25  26
ENDBRANCH  22  25
ENDBRANCH  21  22
ENDBRANCH  19  21
BRANCH  19  34
ATOM     34  C   UNL d   1      29.671 -14.766   4.720  0.00  0.00     0.180 C 
ATOM     35  C   UNL d   1      30.016 -13.501   5.496  0.00  0.00     0.039 C 
ATOM     36  C   UNL d   1      28.156 -14.993   4.807  0.00  0.00     0.039 C 
ENDBRANCH  19  34
ENDBRANCH   1  19
TORSDOF 12
ENDMDL
MODEL 4
REMARK VINA RESULT:    -7.094      1.377      1.742
REMARK INTER + INTRA:         -15.286
REMARK INTER:                 -10.674
REMARK INTRA:                  -4.612
REMARK CONF_INDEPENDENT:        3.580
REMARK UNBOUND:                -4.612
REMARK  12 active torsions:
REMARK  status: ('A' for Active; 'I' for Inactive)
REMARK    1  A    between atoms: C_2  and  C_3 
REMARK    2  A    between atoms: C_4  and  C_5 
REMARK    3  A    between atoms: C_5  and  O_7 
REMARK    4  A    between atoms: C_12  and  C_13 
REMARK    5  A    between atoms: C_13  and  N_14 
REMARK    6  A    between atoms: N_14  and  C_15 
REMARK    7  A    between atoms: N_14  and  C_27 
REMARK    8  A    between atoms: C_15  and  C_16 
REMARK    9  A    between atoms: C_16  and  O_17 
REMARK   10  A    between atoms: C_16  and  C_18 
REMARK   11  A    between atoms: C_18  and  O_19 
REMARK   12  A    between atoms: O_19  and  C_20 
ROOT
ATOM      1  C   UNL d   1      30.625 -15.050   1.095  0.00  0.00     0.313 C 
ENDROOT
BRANCH   1   2
ATOM      2  C   UNL d   1      29.236 -15.021   0.429  0.00  0.00     0.134 C 
ATOM      3  N   UNL d   1      29.043 -14.288  -0.633  0.00  0.00    -0.225 NA
ATOM      4  C   UNL d   1      27.898 -14.601  -1.315  0.00  0.00     0.116 A 
ATOM      5  S   UNL d   1      27.251 -13.656  -2.562  0.00  0.00    -0.063 SA
ATOM      6  C   UNL d   1      27.129 -15.726  -1.116  0.00  0.00     0.076 A 
ATOM      7  C   UNL d   1      25.950 -14.765  -2.861  0.00  0.00     0.089 A 
ATOM      8  C   UNL d   1      26.045 -15.891  -2.041  0.00  0.00    -0.017 A 
ATOM      9  C   UNL d   1      27.501 -16.536   0.009  0.00  0.00     0.260 C 
ATOM     10  N   UNL d   1      28.287 -15.886   0.930  0.00  0.00    -0.309 N 
ATOM     11  O   UNL d   1      27.273 -17.731   0.157  0.00  0.00    -0.267 OA
ATOM     12  H   UNL d   1      28.534 -16.544   1.645  0.00  0.00     0.170 HD
BRANCH   7  13
ATOM     13  C   UNL d   1      24.953 -14.365  -3.866  0.00  0.00     0.300 C 
ATOM     14  O   UNL d   1      23.963 -13.695  -3.671  0.00  0.00    -0.259 OA
BRANCH  13  15
ATOM     15  O   UNL d   1      25.283 -14.889  -5.085  0.00  0.00    -0.322 OA
ATOM     16  C   UNL d   1      26.660 -15.200  -5.300  0.00  0.00     0.213 C 
ENDBRANCH  13  15
ENDBRANCH   7  13
BRANCH   8  17
ATOM     17  C   UNL d   1      25.122 -17.088  -2.007  0.00  0.00     0.037 C 
ATOM     18  C   UNL d   1      24.382 -17.258  -0.688  0.00  0.00     0.010 C 
ENDBRANCH   8  17
ENDBRANCH   1   2
BRANCH   1  19
ATOM     19  N   UNL d   1      31.419 -16.415   1.099  0.00  0.00    -0.058 N 
ATOM     20  H   UNL d   1      30.767 -17.147   1.401  0.00  0.00     0.280 HD
BRANCH  19  21
ATOM     21  C   UNL d   1      32.061 -16.776  -0.281  0.00  0.00     0.269 C 
BRANCH  21  22
ATOM     22  C   UNL d   1      31.094 -17.417  -1.236  0.00  0.00     0.168 C 
BRANCH  22  23
ATOM     23  O   UNL d   1      29.994 -17.956  -0.541  0.00  0.00    -0.392 OA
ATOM     24  H   UNL d   1      29.154 -17.853  -1.012  0.00  0.00     0.210 HD
ENDBRANCH  22  23
BRANCH  22  25
ATOM     25  C   UNL d   1      30.512 -16.575  -2.310  0.00  0.00     0.209 C 
BRANCH  25  26
ATOM     26  O   UNL d   1      29.785 -17.466  -3.159  0.00  0.00    -0.348 OA
BRANCH  26  27
ATOM     27  C   UNL d   1      30.017 -17.244  -4.479  0.00  0.00     0.074 A 
ATOM     28  C   UNL d   1      29.851 -15.923  -4.914  0.00  0.00     0.037 A 
ATOM     29  C   UNL d   1      30.199 -15.590  -6.218  0.00  0.00     0.003 A 
ATOM     30  C   UNL d   1      30.683 -16.578  -7.072  0.00  0.00     0.001 A 
ATOM     31  C   UNL d   1      30.763 -17.904  -6.650  0.00  0.00     0.009 A 
ATOM     32  C   UNL d   1      30.395 -18.265  -5.359  0.00  0.00    -0.029 A 
ATOM     33  C   UNL d   1      30.409 -19.724  -5.000  0.00  0.00     0.051 C 
ENDBRANCH  26  27
ENDBRANCH  25  26
ENDBRANCH  22  25
ENDBRANCH  21  22
ENDBRANCH  19  21
BRANCH  19  34
ATOM     34  C   UNL d   1      32.548 -16.418   2.149  0.00  0.00     0.180 C 
ATOM     35  C   UNL d   1      33.890 -16.748   1.506  0.00  0.00     0.039 C 
ATOM     36  C   UNL d   1      32.650 -15.032   2.801  0.00  0.00     0.039 C 
ENDBRANCH  19  34
ENDBRANCH   1  19
TORSDOF 12
ENDMDL
MODEL 5
REMARK VINA RESULT:    -6.633      2.361      5.538
REMARK INTER + INTRA:         -15.386
REMARK INTER:                 -10.212
REMARK INTRA:                  -5.174
REMARK CONF_INDEPENDENT:        3.580
REMARK UNBOUND:                -5.174
REMARK  12 active torsions:
REMARK  status: ('A' for Active; 'I' for Inactive)
REMARK    1  A    between atoms: C_2  and  C_3 
REMARK    2  A    between atoms: C_4  and  C_5 
REMARK    3  A    between atoms: C_5  and  O_7 
REMARK    4  A    between atoms: C_12  and  C_13 
REMARK    5  A    between atoms: C_13  and  N_14 
REMARK    6  A    between atoms: N_14  and  C_15 
REMARK    7  A    between atoms: N_14  and  C_27 
REMARK    8  A    between atoms: C_15  and  C_16 
REMARK    9  A    between atoms: C_16  and  O_17 
REMARK   10  A    between atoms: C_16  and  C_18 
REMARK   11  A    between atoms: C_18  and  O_19 
REMARK   12  A    between atoms: O_19  and  C_20 
ROOT
ATOM      1  C   UNL d   1      30.594 -15.124   1.638  0.00  0.00     0.313 C 
ENDROOT
BRANCH   1   2
ATOM      2  C   UNL d   1      29.997 -15.528   0.276  0.00  0.00     0.134 C 
ATOM      3  N   UNL d   1      29.650 -14.604  -0.577  0.00  0.00    -0.225 NA
ATOM      4  C   UNL d   1      29.459 -15.076  -1.849  0.00  0.00     0.116 A 
ATOM      5  S   UNL d   1      28.750 -14.174  -3.095  0.00  0.00    -0.063 SA
ATOM      6  C   UNL d   1      29.833 -16.319  -2.307  0.00  0.00     0.076 A 
ATOM      7  C   UNL d   1      28.967 -15.439  -4.264  0.00  0.00     0.089 A 
ATOM      8  C   UNL d   1      29.636 -16.532  -3.711  0.00  0.00    -0.017 A 
ATOM      9  C   UNL d   1      30.321 -17.224  -1.305  0.00  0.00     0.260 C 
ATOM     10  N   UNL d   1      29.979 -16.874  -0.021  0.00  0.00    -0.309 N 
ATOM     11  O   UNL d   1      31.068 -18.179  -1.484  0.00  0.00    -0.267 OA
ATOM     12  H   UNL d   1      30.405 -17.533   0.603  0.00  0.00     0.170 HD
BRANCH   7  13
ATOM     13  C   UNL d   1      28.407 -15.207  -5.605  0.00  0.00     0.300 C 
ATOM     14  O   UNL d   1      29.024 -14.887  -6.597  0.00  0.00    -0.259 OA
BRANCH  13  15
ATOM     15  O   UNL d   1      27.050 -15.375  -5.581  0.00  0.00    -0.322 OA
ATOM     16  C   UNL d   1      26.280 -14.312  -5.018  0.00  0.00     0.213 C 
ENDBRANCH  13  15
ENDBRANCH   7  13
BRANCH   8  17
ATOM     17  C   UNL d   1      30.030 -17.818  -4.403  0.00  0.00     0.037 C 
ATOM     18  C   UNL d   1      30.802 -17.609  -5.697  0.00  0.00     0.010 C 
ENDBRANCH   8  17
ENDBRANCH   1   2
BRANCH   1  19
ATOM     19  N   UNL d   1      29.745 -14.175   2.570  0.00  0.00    -0.058 N 
ATOM     20  H   UNL d   1      29.955 -13.208   2.294  0.00  0.00     0.280 HD
BRANCH  19  21
ATOM     21  C   UNL d   1      28.205 -14.447   2.516  0.00  0.00     0.269 C 
BRANCH  21  22
ATOM     22  C   UNL d   1      27.448 -13.421   1.721  0.00  0.00     0.168 C 
BRANCH  22  23
ATOM     23  O   UNL d   1      28.322 -12.695   0.889  0.00  0.00    -0.392 OA
ATOM     24  H   UNL d   1      28.332 -13.012  -0.026  0.00  0.00     0.210 HD
ENDBRANCH  22  23
BRANCH  22  25
ATOM     25  C   UNL d   1      26.355 -13.891   0.837  0.00  0.00     0.209 C 
BRANCH  25  26
ATOM     26  O   UNL d   1      26.978 -14.704  -0.161  0.00  0.00    -0.348 OA
BRANCH  26  27
ATOM     27  C   UNL d   1      26.411 -15.933  -0.271  0.00  0.00     0.074 A 
ATOM     28  C   UNL d   1      26.931 -16.924   0.570  0.00  0.00     0.037 A 
ATOM     29  C   UNL d   1      26.315 -18.169   0.614  0.00  0.00     0.003 A 
ATOM     30  C   UNL d   1      25.210 -18.416  -0.196  0.00  0.00     0.001 A 
ATOM     31  C   UNL d   1      24.755 -17.447  -1.091  0.00  0.00     0.009 A 
ATOM     32  C   UNL d   1      25.373 -16.204  -1.170  0.00  0.00    -0.029 A 
ATOM     33  C   UNL d   1      24.898 -15.245  -2.224  0.00  0.00     0.051 C 
ENDBRANCH  26  27
ENDBRANCH  25  26
ENDBRANCH  22  25
ENDBRANCH  21  22
ENDBRANCH  19  21
BRANCH  19  34
ATOM     34  C   UNL d   1      30.182 -14.280   4.045  0.00  0.00     0.180 C 
ATOM     35  C   UNL d   1      30.579 -12.914   4.595  0.00  0.00     0.039 C 
ATOM     36  C   UNL d   1      29.021 -14.824   4.889  0.00  0.00     0.039 C 
ENDBRANCH  19  34
ENDBRANCH   1  19
TORSDOF 12
ENDMDL
MODEL 6
REMARK VINA RESULT:    -6.550      1.684      2.510
REMARK INTER + INTRA:         -15.330
REMARK INTER:                 -10.130
REMARK INTRA:                  -5.200
REMARK CONF_INDEPENDENT:        3.580
REMARK UNBOUND:                -5.200
REMARK  12 active torsions:
REMARK  status: ('A' for Active; 'I' for Inactive)
REMARK    1  A    between atoms: C_2  and  C_3 
REMARK    2  A    between atoms: C_4  and  C_5 
REMARK    3  A    between atoms: C_5  and  O_7 
REMARK    4  A    between atoms: C_12  and  C_13 
REMARK    5  A    between atoms: C_13  and  N_14 
REMARK    6  A    between atoms: N_14  and  C_15 
REMARK    7  A    between atoms: N_14  and  C_27 
REMARK    8  A    between atoms: C_15  and  C_16 
REMARK    9  A    between atoms: C_16  and  O_17 
REMARK   10  A    between atoms: C_16  and  C_18 
REMARK   11  A    between atoms: C_18  and  O_19 
REMARK   12  A    between atoms: O_19  and  C_20 
ROOT
ATOM      1  C   UNL d   1      30.779 -14.221   0.807  0.00  0.00     0.313 C 
ENDROOT
BRANCH   1   2
ATOM      2  C   UNL d   1      29.361 -14.377   0.224  0.00  0.00     0.134 C 
ATOM      3  N   UNL d   1      29.008 -13.672  -0.815  0.00  0.00    -0.225 NA
ATOM      4  C   UNL d   1      27.877 -14.135  -1.433  0.00  0.00     0.116 A 
ATOM      5  S   UNL d   1      27.036 -13.280  -2.628  0.00  0.00    -0.063 SA
ATOM      6  C   UNL d   1      27.280 -15.354  -1.203  0.00  0.00     0.076 A 
ATOM      7  C   UNL d   1      25.880 -14.555  -2.864  0.00  0.00     0.089 A 
ATOM      8  C   UNL d   1      26.175 -15.661  -2.065  0.00  0.00    -0.017 A 
ATOM      9  C   UNL d   1      27.825 -16.111  -0.112  0.00  0.00     0.260 C 
ATOM     10  N   UNL d   1      28.570 -15.365   0.769  0.00  0.00    -0.309 N 
ATOM     11  O   UNL d   1      27.770 -17.327   0.034  0.00  0.00    -0.267 OA
ATOM     12  H   UNL d   1      28.945 -15.987   1.461  0.00  0.00     0.170 HD
BRANCH   7  13
ATOM     13  C   UNL d   1      24.780 -14.289  -3.804  0.00  0.00     0.300 C 
ATOM     14  O   UNL d   1      23.746 -13.710  -3.557  0.00  0.00    -0.259 OA
BRANCH  13  15
ATOM     15  O   UNL d   1      25.073 -14.824  -5.028  0.00  0.00    -0.322 OA
ATOM     16  C   UNL d   1      26.443 -15.136  -5.283  0.00  0.00     0.213 C 
ENDBRANCH  13  15
ENDBRANCH   7  13
BRANCH   8  17
ATOM     17  C   UNL d   1      25.426 -16.972  -1.992  0.00  0.00     0.037 C 
ATOM     18  C   UNL d   1      24.116 -16.891  -1.221  0.00  0.00     0.010 C 
ENDBRANCH   8  17
ENDBRANCH   1   2
BRANCH   1  19
ATOM     19  N   UNL d   1      31.390 -15.435   1.610  0.00  0.00    -0.058 N 
ATOM     20  H   UNL d   1      30.606 -15.986   1.975  0.00  0.00     0.280 HD
BRANCH  19  21
ATOM     21  C   UNL d   1      32.355 -16.330   0.764  0.00  0.00     0.269 C 
BRANCH  21  22
ATOM     22  C   UNL d   1      31.650 -17.438   0.035  0.00  0.00     0.168 C 
BRANCH  22  23
ATOM     23  O   UNL d   1      30.258 -17.351   0.228  0.00  0.00    -0.392 OA
ATOM     24  H   UNL d   1      29.784 -18.159  -0.019  0.00  0.00     0.210 HD
ENDBRANCH  22  23
BRANCH  22  25
ATOM     25  C   UNL d   1      31.842 -17.541  -1.432  0.00  0.00     0.209 C 
BRANCH  25  26
ATOM     26  O   UNL d   1      30.531 -17.638  -1.995  0.00  0.00    -0.348 OA
BRANCH  26  27
ATOM     27  C   UNL d   1      30.545 -17.753  -3.348  0.00  0.00     0.074 A 
ATOM     28  C   UNL d   1      30.990 -18.982  -3.852  0.00  0.00     0.037 A 
ATOM     29  C   UNL d   1      30.906 -19.225  -5.218  0.00  0.00     0.003 A 
ATOM     30  C   UNL d   1      30.406 -18.237  -6.061  0.00  0.00     0.001 A 
ATOM     31  C   UNL d   1      30.046 -16.988  -5.555  0.00  0.00     0.009 A 
ATOM     32  C   UNL d   1      30.147 -16.713  -4.196  0.00  0.00    -0.029 A 
ATOM     33  C   UNL d   1      29.839 -15.319  -3.732  0.00  0.00     0.051 C 
ENDBRANCH  26  27
ENDBRANCH  25  26
ENDBRANCH  22  25
ENDBRANCH  21  22
ENDBRANCH  19  21
BRANCH  19  34
ATOM     34  C   UNL d   1      32.169 -14.964   2.855  0.00  0.00     0.180 C 
ATOM     35  C   UNL d   1      33.588 -14.546   2.485  0.00  0.00     0.039 C 
ATOM     36  C   UNL d   1      31.456 -13.760   3.485  0.00  0.00     0.039 C 
ENDBRANCH  19  34
ENDBRANCH   1  19
TORSDOF 12
ENDMDL
MODEL 7
REMARK VINA RESULT:    -6.420      3.123      7.934
REMARK INTER + INTRA:         -15.000
REMARK INTER:                 -10.000
REMARK INTRA:                  -5.001
REMARK CONF_INDEPENDENT:        3.580
REMARK UNBOUND:                -5.001
REMARK  12 active torsions:
REMARK  status: ('A' for Active; 'I' for Inactive)
REMARK    1  A    between atoms: C_2  and  C_3 
REMARK    2  A    between atoms: C_4  and  C_5 
REMARK    3  A    between atoms: C_5  and  O_7 
REMARK    4  A    between atoms: C_12  and  C_13 
REMARK    5  A    between atoms: C_13  and  N_14 
REMARK    6  A    between atoms: N_14  and  C_15 
REMARK    7  A    between atoms: N_14  and  C_27 
REMARK    8  A    between atoms: C_15  and  C_16 
REMARK    9  A    between atoms: C_16  and  O_17 
REMARK   10  A    between atoms: C_16  and  C_18 
REMARK   11  A    between atoms: C_18  and  O_19 
REMARK   12  A    between atoms: O_19  and  C_20 
ROOT
ATOM      1  C   UNL d   1      27.621 -12.591  -5.757  0.00  0.00     0.313 C 
ENDROOT
BRANCH   1   2
ATOM      2  C   UNL d   1      28.156 -14.035  -5.798  0.00  0.00     0.134 C 
ATOM      3  N   UNL d   1      29.121 -14.345  -6.619  0.00  0.00    -0.225 NA
ATOM      4  C   UNL d   1      29.726 -15.538  -6.328  0.00  0.00     0.116 A 
ATOM      5  S   UNL d   1      30.815 -16.322  -7.362  0.00  0.00    -0.063 SA
ATOM      6  C   UNL d   1      29.568 -16.254  -5.163  0.00  0.00     0.076 A 
ATOM      7  C   UNL d   1      31.102 -17.614  -6.238  0.00  0.00     0.089 A 
ATOM      8  C   UNL d   1      30.405 -17.413  -5.045  0.00  0.00    -0.017 A 
ATOM      9  C   UNL d   1      28.564 -15.758  -4.266  0.00  0.00     0.260 C 
ATOM     10  N   UNL d   1      27.658 -14.910  -4.855  0.00  0.00    -0.309 N 
ATOM     11  O   UNL d   1      28.511 -15.939  -3.055  0.00  0.00    -0.267 OA
ATOM     12  H   UNL d   1      27.033 -14.581  -4.143  0.00  0.00     0.170 HD
BRANCH   7  13
ATOM     13  C   UNL d   1      31.972 -18.710  -6.694  0.00  0.00     0.300 C 
ATOM     14  O   UNL d   1      33.174 -18.667  -6.827  0.00  0.00    -0.259 OA
BRANCH  13  15
ATOM     15  O   UNL d   1      31.219 -19.814  -6.985  0.00  0.00    -0.322 OA
ATOM     16  C   UNL d   1      30.970 -20.076  -8.367  0.00  0.00     0.213 C 
ENDBRANCH  13  15
ENDBRANCH   7  13
BRANCH   8  17
ATOM     17  C   UNL d   1      30.405 -18.296  -3.818  0.00  0.00     0.037 C 
ATOM     18  C   UNL d   1      31.118 -17.686  -2.620  0.00  0.00     0.010 C 
ENDBRANCH   8  17
ENDBRANCH   1   2
BRANCH   1  19
ATOM     19  N   UNL d   1      26.109 -12.369  -5.360  0.00  0.00    -0.058 N 
ATOM     20  H   UNL d   1      25.569 -13.141  -5.767  0.00  0.00     0.280 HD
BRANCH  19  21
ATOM     21  C   UNL d   1      25.868 -12.273  -3.817  0.00  0.00     0.269 C 
BRANCH  21  22
ATOM     22  C   UNL d   1      25.185 -13.483  -3.247  0.00  0.00     0.168 C 
BRANCH  22  23
ATOM     23  O   UNL d   1      25.000 -14.463  -4.241  0.00  0.00    -0.392 OA
ATOM     24  H   UNL d   1      25.484 -15.284  -4.066  0.00  0.00     0.210 HD
ENDBRANCH  22  23
BRANCH  22  25
ATOM     25  C   UNL d   1      25.838 -14.184  -2.115  0.00  0.00     0.209 C 
BRANCH  25  26
ATOM     26  O   UNL d   1      25.959 -15.551  -2.515  0.00  0.00    -0.348 OA
BRANCH  26  27
ATOM     27  C   UNL d   1      25.423 -16.415  -1.614  0.00  0.00     0.074 A 
ATOM     28  C   UNL d   1      24.029 -16.543  -1.645  0.00  0.00     0.037 A 
ATOM     29  C   UNL d   1      23.418 -17.504  -0.848  0.00  0.00     0.003 A 
ATOM     30  C   UNL d   1      24.199 -18.303  -0.017  0.00  0.00     0.001 A 
ATOM     31  C   UNL d   1      25.577 -18.106   0.066  0.00  0.00     0.009 A 
ATOM     32  C   UNL d   1      26.206 -17.133  -0.703  0.00  0.00    -0.029 A 
ATOM     33  C   UNL d   1      27.675 -16.905  -0.492  0.00  0.00     0.051 C 
ENDBRANCH  26  27
ENDBRANCH  25  26
ENDBRANCH  22  25
ENDBRANCH  21  22
ENDBRANCH  19  21
BRANCH  19  34
ATOM     34  C   UNL d   1      25.531 -11.089  -5.999  0.00  0.00     0.180 C 
ATOM     35  C   UNL d   1      25.548  -9.930  -5.009  0.00  0.00     0.039 C 
ATOM     36  C   UNL d   1      26.373 -10.697  -7.221  0.00  0.00     0.039 C 
ENDBRANCH  19  34
ENDBRANCH   1  19
TORSDOF 12
ENDMDL
MODEL 8
REMARK VINA RESULT:    -6.400      3.210      4.573
REMARK INTER + INTRA:         -14.962
REMARK INTER:                  -9.979
REMARK INTRA:                  -4.983
REMARK CONF_INDEPENDENT:        3.580
REMARK UNBOUND:                -4.983
REMARK  12 active torsions:
REMARK  status: ('A' for Active; 'I' for Inactive)
REMARK    1  A    between atoms: C_2  and  C_3 
REMARK    2  A    between atoms: C_4  and  C_5 
REMARK    3  A    between atoms: C_5  and  O_7 
REMARK    4  A    between atoms: C_12  and  C_13 
REMARK    5  A    between atoms: C_13  and  N_14 
REMARK    6  A    between atoms: N_14  and  C_15 
REMARK    7  A    between atoms: N_14  and  C_27 
REMARK    8  A    between atoms: C_15  and  C_16 
REMARK    9  A    between atoms: C_16  and  O_17 
REMARK   10  A    between atoms: C_16  and  C_18 
REMARK   11  A    between atoms: C_18  and  O_19 
REMARK   12  A    between atoms: O_19  and  C_20 
ROOT
ATOM      1  C   UNL d   1      27.900 -14.419   2.719  0.00  0.00     0.313 C 
ENDROOT
BRANCH   1   2
ATOM      2  C   UNL d   1      27.929 -14.379   1.179  0.00  0.00     0.134 C 
ATOM      3  N   UNL d   1      27.150 -15.173   0.497  0.00  0.00    -0.225 NA
ATOM      4  C   UNL d   1      27.019 -14.815  -0.818  0.00  0.00     0.116 A 
ATOM      5  S   UNL d   1      26.301 -15.795  -1.998  0.00  0.00    -0.063 SA
ATOM      6  C   UNL d   1      27.416 -13.616  -1.366  0.00  0.00     0.076 A 
ATOM      7  C   UNL d   1      26.494 -14.603  -3.245  0.00  0.00     0.089 A 
ATOM      8  C   UNL d   1      27.058 -13.430  -2.743  0.00  0.00    -0.017 A 
ATOM      9  C   UNL d   1      28.163 -12.756  -0.492  0.00  0.00     0.260 C 
ATOM     10  N   UNL d   1      28.702 -13.398   0.596  0.00  0.00    -0.309 N 
ATOM     11  O   UNL d   1      28.266 -11.538  -0.578  0.00  0.00    -0.267 OA
ATOM     12  H   UNL d   1      29.157 -12.710   1.167  0.00  0.00     0.170 HD
BRANCH   7  13
ATOM     13  C   UNL d   1      26.087 -14.992  -4.605  0.00  0.00     0.300 C 
ATOM     14  O   UNL d   1      26.786 -15.516  -5.443  0.00  0.00    -0.259 OA
BRANCH  13  15
ATOM     15  O   UNL d   1      24.781 -14.648  -4.817  0.00  0.00    -0.322 OA
ATOM     16  C   UNL d   1      24.210 -13.700  -3.914  0.00  0.00     0.213 C 
ENDBRANCH  13  15
ENDBRANCH   7  13
BRANCH   8  17
ATOM     17  C   UNL d   1      27.369 -12.158  -3.499  0.00  0.00     0.037 C 
ATOM     18  C   UNL d   1      26.197 -11.192  -3.587  0.00  0.00     0.010 C 
ENDBRANCH   8  17
ENDBRANCH   1   2
BRANCH   1  19
ATOM     19  N   UNL d   1      29.269 -14.596   3.484  0.00  0.00    -0.058 N 
ATOM     20  H   UNL d   1      29.558 -15.575   3.372  0.00  0.00     0.280 HD
BRANCH  19  21
ATOM     21  C   UNL d   1      30.395 -13.624   2.999  0.00  0.00     0.269 C 
BRANCH  21  22
ATOM     22  C   UNL d   1      31.496 -14.319   2.248  0.00  0.00     0.168 C 
BRANCH  22  23
ATOM     23  O   UNL d   1      31.532 -15.688   2.576  0.00  0.00    -0.392 OA
ATOM     24  H   UNL d   1      31.013 -16.241   1.973  0.00  0.00     0.210 HD
ENDBRANCH  22  23
BRANCH  22  25
ATOM     25  C   UNL d   1      31.471 -14.265   0.766  0.00  0.00     0.209 C 
BRANCH  25  26
ATOM     26  O   UNL d   1      31.076 -15.569   0.331  0.00  0.00    -0.348 OA
BRANCH  26  27
ATOM     27  C   UNL d   1      30.605 -15.580  -0.942  0.00  0.00     0.074 A 
ATOM     28  C   UNL d   1      31.071 -14.556  -1.776  0.00  0.00     0.037 A 
ATOM     29  C   UNL d   1      30.741 -14.577  -3.126  0.00  0.00     0.003 A 
ATOM     30  C   UNL d   1      29.937 -15.600  -3.619  0.00  0.00     0.001 A 
ATOM     31  C   UNL d   1      29.411 -16.566  -2.762  0.00  0.00     0.009 A 
ATOM     32  C   UNL d   1      29.706 -16.549  -1.403  0.00  0.00    -0.029 A 
ATOM     33  C   UNL d   1      29.027 -17.557  -0.519  0.00  0.00     0.051 C 
ENDBRANCH  26  27
ENDBRANCH  25  26
ENDBRANCH  22  25
ENDBRANCH  21  22
ENDBRANCH  19  21
BRANCH  19  34
ATOM     34  C   UNL d   1      29.107 -14.393   5.004  0.00  0.00     0.180 C 
ATOM     35  C   UNL d   1      29.916 -13.194   5.484  0.00  0.00     0.039 C 
ATOM     36  C   UNL d   1      27.629 -14.147   5.337  0.00  0.00     0.039 C 
ENDBRANCH  19  34
ENDBRANCH   1  19
TORSDOF 12
ENDMDL
MODEL 9
REMARK VINA RESULT:    -6.075      3.215      5.611
REMARK INTER + INTRA:         -16.117
REMARK INTER:                  -9.654
REMARK INTRA:                  -6.463
REMARK CONF_INDEPENDENT:        3.580
REMARK UNBOUND:                -6.463
REMARK  12 active torsions:
REMARK  status: ('A' for Active; 'I' for Inactive)
REMARK    1  A    between atoms: C_2  and  C_3 
REMARK    2  A    between atoms: C_4  and  C_5 
REMARK    3  A    between atoms: C_5  and  O_7 
REMARK    4  A    between atoms: C_12  and  C_13 
REMARK    5  A    between atoms: C_13  and  N_14 
REMARK    6  A    between atoms: N_14  and  C_15 
REMARK    7  A    between atoms: N_14  and  C_27 
REMARK    8  A    between atoms: C_15  and  C_16 
REMARK    9  A    between atoms: C_16  and  O_17 
REMARK   10  A    between atoms: C_16  and  C_18 
REMARK   11  A    between atoms: C_18  and  O_19 
REMARK   12  A    between atoms: O_19  and  C_20 
ROOT
ATOM      1  C   UNL d   1      27.906 -14.446   2.685  0.00  0.00     0.313 C 
ENDROOT
BRANCH   1   2
ATOM      2  C   UNL d   1      27.666 -15.000   1.268  0.00  0.00     0.134 C 
ATOM      3  N   UNL d   1      26.716 -14.496   0.529  0.00  0.00    -0.225 NA
ATOM      4  C   UNL d   1      26.820 -14.824  -0.796  0.00  0.00     0.116 A 
ATOM      5  S   UNL d   1      25.600 -14.546  -1.938  0.00  0.00    -0.063 SA
ATOM      6  C   UNL d   1      27.921 -15.392  -1.398  0.00  0.00     0.076 A 
ATOM      7  C   UNL d   1      26.554 -15.161  -3.251  0.00  0.00     0.089 A 
ATOM      8  C   UNL d   1      27.831 -15.527  -2.823  0.00  0.00    -0.017 A 
ATOM      9  C   UNL d   1      28.969 -15.800  -0.505  0.00  0.00     0.260 C 
ATOM     10  N   UNL d   1      28.569 -15.932   0.803  0.00  0.00    -0.309 N 
ATOM     11  O   UNL d   1      30.155 -15.934  -0.783  0.00  0.00    -0.267 OA
ATOM     12  H   UNL d   1      29.375 -16.168   1.350  0.00  0.00     0.170 HD
BRANCH   7  13
ATOM     13  C   UNL d   1      25.900 -15.241  -4.567  0.00  0.00     0.300 C 
ATOM     14  O   UNL d   1      26.229 -15.949  -5.492  0.00  0.00    -0.259 OA
BRANCH  13  15
ATOM     15  O   UNL d   1      24.855 -14.361  -4.623  0.00  0.00    -0.322 OA
ATOM     16  C   UNL d   1      25.185 -12.971  -4.641  0.00  0.00     0.213 C 
ENDBRANCH  13  15
ENDBRANCH   7  13
BRANCH   8  17
ATOM     17  C   UNL d   1      28.960 -16.085  -3.660  0.00  0.00     0.037 C 
ATOM     18  C   UNL d   1      29.257 -15.274  -4.913  0.00  0.00     0.010 C 
ENDBRANCH   8  17
ENDBRANCH   1   2
BRANCH   1  19
ATOM     19  N   UNL d   1      29.335 -14.638   3.327  0.00  0.00    -0.058 N 
ATOM     20  H   UNL d   1      29.737 -15.494   2.928  0.00  0.00     0.280 HD
BRANCH  19  21
ATOM     21  C   UNL d   1      30.293 -13.420   3.110  0.00  0.00     0.269 C 
BRANCH  21  22
ATOM     22  C   UNL d   1      31.156 -13.554   1.887  0.00  0.00     0.168 C 
BRANCH  22  23
ATOM     23  O   UNL d   1      31.127 -14.875   1.402  0.00  0.00    -0.392 OA
ATOM     24  H   UNL d   1      30.892 -14.935   0.464  0.00  0.00     0.210 HD
ENDBRANCH  22  23
BRANCH  22  25
ATOM     25  C   UNL d   1      30.847 -12.694   0.719  0.00  0.00     0.209 C 
BRANCH  25  26
ATOM     26  O   UNL d   1      29.621 -13.192   0.177  0.00  0.00    -0.348 OA
BRANCH  26  27
ATOM     27  C   UNL d   1      29.124 -12.405  -0.813  0.00  0.00     0.074 A 
ATOM     28  C   UNL d   1      29.797 -12.468  -2.039  0.00  0.00     0.037 A 
ATOM     29  C   UNL d   1      29.271 -11.798  -3.137  0.00  0.00     0.003 A 
ATOM     30  C   UNL d   1      28.100 -11.059  -2.993  0.00  0.00     0.001 A 
ATOM     31  C   UNL d   1      27.487 -10.937  -1.746  0.00  0.00     0.009 A 
ATOM     32  C   UNL d   1      28.011 -11.577  -0.628  0.00  0.00    -0.029 A 
ATOM     33  C   UNL d   1      27.361 -11.323   0.702  0.00  0.00     0.051 C 
ENDBRANCH  26  27
ENDBRANCH  25  26
ENDBRANCH  22  25
ENDBRANCH  21  22
ENDBRANCH  19  21
BRANCH  19  34
ATOM     34  C   UNL d   1      29.253 -14.897   4.845  0.00  0.00     0.180 C 
ATOM     35  C   UNL d   1      30.030 -13.840   5.621  0.00  0.00     0.039 C 
ATOM     36  C   UNL d   1      27.787 -14.852   5.297  0.00  0.00     0.039 C 
ENDBRANCH  19  34
ENDBRANCH   1  19
TORSDOF 12
ENDMDL
