MODEL 1
REMARK VINA RESULT:    -6.999      0.000      0.000
REMARK INTER + INTRA:          -8.519
REMARK INTER:                  -8.192
REMARK INTRA:                  -0.327
REMARK CONF_INDEPENDENT:        1.193
REMARK UNBOUND:                -0.327
REMARK  4 active torsions:
REMARK  status: ('A' for Active; 'I' for Inactive)
REMARK    1  A    between atoms: O_2  and  C_3 
REMARK    2  A    between atoms: C_6  and  N_7 
REMARK       I    between atoms: N_7  and  C_8 
REMARK       I    between atoms: C_8  and  N_10 
REMARK    3  A    between atoms: N_10  and  C_11 
REMARK    4  A    between atoms: C_14  and  O_15 
ROOT
ATOM      1  N   UNL d   1      23.006 -18.010   0.330  0.00  0.00    -0.309 N 
ATOM      2  C   UNL d   1      23.807 -17.591  -0.727  0.00  0.00     0.325 C 
ATOM      3  O   UNL d   1      23.518 -17.771  -1.914  0.00  0.00    -0.247 OA
ATOM      4  N   UNL d   1      25.000 -16.957  -0.401  0.00  0.00    -0.309 N 
ATOM      5  H   UNL d   1      23.328 -17.877   1.279  0.00  0.00     0.170 HD
ATOM      6  H   UNL d   1      25.411 -17.088   0.510  0.00  0.00     0.170 HD
ENDROOT
BRANCH   1   7
ATOM      7  C   UNL d   1      21.770 -18.728   0.149  0.00  0.00     0.036 A 
ATOM      8  C   UNL d   1      21.227 -18.959  -1.122  0.00  0.00     0.032 A 
ATOM      9  C   UNL d   1      19.957 -19.577  -1.262  0.00  0.00     0.039 A 
ATOM     10  C   UNL d   1      19.238 -20.025  -0.146  0.00  0.00     0.068 A 
ATOM     11  C   UNL d   1      19.792 -19.834   1.103  0.00  0.00     0.039 A 
ATOM     12  C   UNL d   1      21.030 -19.210   1.236  0.00  0.00     0.032 A 
BRANCH  10  13
ATOM     13  O   UNL d   1      18.077 -20.711  -0.371  0.00  0.00    -0.356 OA
ATOM     14  C   UNL d   1      17.640 -21.575   0.681  0.00  0.00     0.210 C 
ENDBRANCH  10  13
ENDBRANCH   1   7
BRANCH   4  15
ATOM     15  C   UNL d   1      25.827 -16.416  -1.444  0.00  0.00     0.037 A 
ATOM     16  C   UNL d   1      27.192 -16.656  -1.528  0.00  0.00     0.032 A 
ATOM     17  C   UNL d   1      27.949 -16.043  -2.555  0.00  0.00     0.039 A 
ATOM     18  C   UNL d   1      27.370 -15.204  -3.535  0.00  0.00     0.074 A 
ATOM     19  C   UNL d   1      26.003 -14.937  -3.441  0.00  0.00    -0.026 A 
ATOM     20  C   UNL d   1      25.166 -14.004  -4.271  0.00  0.00     0.051 C 
ATOM     21  C   UNL d   1      25.266 -15.569  -2.409  0.00  0.00     0.039 A 
BRANCH  18  22
ATOM     22  O   UNL d   1      28.275 -14.764  -4.469  0.00  0.00    -0.355 OA
ATOM     23  C   UNL d   1      27.931 -14.823  -5.845  0.00  0.00     0.210 C 
ENDBRANCH  18  22
ENDBRANCH   4  15
TORSDOF 4
ENDMDL
MODEL 2
REMARK VINA RESULT:    -6.976      6.364      8.659
REMARK INTER + INTRA:          -8.624
REMARK INTER:                  -8.169
REMARK INTRA:                  -0.455
REMARK CONF_INDEPENDENT:        1.193
REMARK UNBOUND:                -0.455
REMARK  4 active torsions:
REMARK  status: ('A' for Active; 'I' for Inactive)
REMARK    1  A    between atoms: O_2  and  C_3 
REMARK    2  A    between atoms: C_6  and  N_7 
REMARK       I    between atoms: N_7  and  C_8 
REMARK       I    between atoms: C_8  and  N_10 
REMARK    3  A    between atoms: N_10  and  C_11 
REMARK    4  A    between atoms: C_14  and  O_15 
ROOT
ATOM      1  N   UNL d   1      28.627 -14.824   3.411  0.00  0.00    -0.309 N 
ATOM      2  C   UNL d   1      27.780 -14.680   2.317  0.00  0.00     0.325 C 
ATOM      3  O   UNL d   1      26.841 -13.878   2.283  0.00  0.00    -0.247 OA
ATOM      4  N   UNL d   1      28.013 -15.508   1.226  0.00  0.00    -0.309 N 
ATOM      5  H   UNL d   1      29.343 -15.536   3.394  0.00  0.00     0.170 HD
ATOM      6  H   UNL d   1      28.531 -16.365   1.343  0.00  0.00     0.170 HD
ENDROOT
BRANCH   1   7
ATOM      7  C   UNL d   1      28.475 -14.074   4.633  0.00  0.00     0.036 A 
ATOM      8  C   UNL d   1      27.867 -12.811   4.656  0.00  0.00     0.032 A 
ATOM      9  C   UNL d   1      27.826 -12.053   5.856  0.00  0.00     0.039 A 
ATOM     10  C   UNL d   1      28.335 -12.563   7.057  0.00  0.00     0.068 A 
ATOM     11  C   UNL d   1      28.897 -13.823   7.043  0.00  0.00     0.039 A 
ATOM     12  C   UNL d   1      28.952 -14.555   5.858  0.00  0.00     0.032 A 
BRANCH  10  13
ATOM     13  O   UNL d   1      28.155 -11.819   8.191  0.00  0.00    -0.356 OA
ATOM     14  C   UNL d   1      28.531 -12.443   9.421  0.00  0.00     0.210 C 
ENDBRANCH  10  13
ENDBRANCH   1   7
BRANCH   4  15
ATOM     15  C   UNL d   1      27.235 -15.345   0.030  0.00  0.00     0.037 A 
ATOM     16  C   UNL d   1      27.406 -14.280  -0.845  0.00  0.00     0.032 A 
ATOM     17  C   UNL d   1      26.563 -14.160  -1.975  0.00  0.00     0.039 A 
ATOM     18  C   UNL d   1      25.553 -15.103  -2.280  0.00  0.00     0.074 A 
ATOM     19  C   UNL d   1      25.358 -16.161  -1.390  0.00  0.00    -0.026 A 
ATOM     20  C   UNL d   1      24.298 -17.226  -1.412  0.00  0.00     0.051 C 
ATOM     21  C   UNL d   1      26.220 -16.263  -0.271  0.00  0.00     0.039 A 
BRANCH  18  22
ATOM     22  O   UNL d   1      24.893 -14.825  -3.451  0.00  0.00    -0.355 OA
ATOM     23  C   UNL d   1      25.156 -13.600  -4.118  0.00  0.00     0.210 C 
ENDBRANCH  18  22
ENDBRANCH   4  15
TORSDOF 4
ENDMDL
MODEL 3
REMARK VINA RESULT:    -6.570      1.910      2.406
REMARK INTER + INTRA:          -8.290
REMARK INTER:                  -7.763
REMARK INTRA:                  -0.527
REMARK CONF_INDEPENDENT:        1.193
REMARK UNBOUND:                -0.527
REMARK  4 active torsions:
REMARK  status: ('A' for Active; 'I' for Inactive)
REMARK    1  A    between atoms: O_2  and  C_3 
REMARK    2  A    between atoms: C_6  and  N_7 
REMARK       I    between atoms: N_7  and  C_8 
REMARK       I    between atoms: C_8  and  N_10 
REMARK    3  A    between atoms: N_10  and  C_11 
REMARK    4  A    between atoms: C_14  and  O_15 
ROOT
ATOM      1  N   UNL d   1      23.014 -18.540  -1.470  0.00  0.00    -0.309 N 
ATOM      2  C   UNL d   1      23.605 -17.289  -1.330  0.00  0.00     0.325 C 
ATOM      3  O   UNL d   1      23.159 -16.404  -0.592  0.00  0.00    -0.247 OA
ATOM      4  N   UNL d   1      24.744 -17.041  -2.085  0.00  0.00    -0.309 N 
ATOM      5  H   UNL d   1      23.401 -19.200  -2.131  0.00  0.00     0.170 HD
ATOM      6  H   UNL d   1      24.933 -17.588  -2.911  0.00  0.00     0.170 HD
ENDROOT
BRANCH   1   7
ATOM      7  C   UNL d   1      21.800 -18.922  -0.793  0.00  0.00     0.036 A 
ATOM      8  C   UNL d   1      21.708 -18.950   0.605  0.00  0.00     0.032 A 
ATOM      9  C   UNL d   1      20.534 -19.430   1.241  0.00  0.00     0.039 A 
ATOM     10  C   UNL d   1      19.417 -19.833   0.498  0.00  0.00     0.068 A 
ATOM     11  C   UNL d   1      19.492 -19.767  -0.878  0.00  0.00     0.039 A 
ATOM     12  C   UNL d   1      20.655 -19.313  -1.497  0.00  0.00     0.032 A 
BRANCH  10  13
ATOM     13  O   UNL d   1      18.285 -20.174   1.186  0.00  0.00    -0.356 OA
ATOM     14  C   UNL d   1      18.015 -21.574   1.302  0.00  0.00     0.210 C 
ENDBRANCH  10  13
ENDBRANCH   1   7
BRANCH   4  15
ATOM     15  C   UNL d   1      25.455 -15.804  -1.917  0.00  0.00     0.037 A 
ATOM     16  C   UNL d   1      26.115 -15.465  -0.743  0.00  0.00     0.032 A 
ATOM     17  C   UNL d   1      26.747 -14.203  -0.635  0.00  0.00     0.039 A 
ATOM     18  C   UNL d   1      26.765 -13.263  -1.692  0.00  0.00     0.074 A 
ATOM     19  C   UNL d   1      26.080 -13.587  -2.865  0.00  0.00    -0.026 A 
ATOM     20  C   UNL d   1      25.847 -12.739  -4.083  0.00  0.00     0.051 C 
ATOM     21  C   UNL d   1      25.462 -14.858  -2.951  0.00  0.00     0.039 A 
BRANCH  18  22
ATOM     22  O   UNL d   1      27.482 -12.131  -1.393  0.00  0.00    -0.355 OA
ATOM     23  C   UNL d   1      27.786 -11.843  -0.037  0.00  0.00     0.210 C 
ENDBRANCH  18  22
ENDBRANCH   4  15
TORSDOF 4
ENDMDL
MODEL 4
REMARK VINA RESULT:    -6.458      6.659      8.984
REMARK INTER + INTRA:          -7.979
REMARK INTER:                  -7.651
REMARK INTRA:                  -0.328
REMARK CONF_INDEPENDENT:        1.193
REMARK UNBOUND:                -0.328
REMARK  4 active torsions:
REMARK  status: ('A' for Active; 'I' for Inactive)
REMARK    1  A    between atoms: O_2  and  C_3 
REMARK    2  A    between atoms: C_6  and  N_7 
REMARK       I    between atoms: N_7  and  C_8 
REMARK       I    between atoms: C_8  and  N_10 
REMARK    3  A    between atoms: N_10  and  C_11 
REMARK    4  A    between atoms: C_14  and  O_15 
ROOT
ATOM      1  N   UNL d   1      27.843 -15.491   1.270  0.00  0.00    -0.309 N 
ATOM      2  C   UNL d   1      27.805 -14.572   2.313  0.00  0.00     0.325 C 
ATOM      3  O   UNL d   1      27.104 -13.555   2.299  0.00  0.00    -0.247 OA
ATOM      4  N   UNL d   1      28.623 -14.825   3.407  0.00  0.00    -0.309 N 
ATOM      5  H   UNL d   1      28.478 -16.275   1.322  0.00  0.00     0.170 HD
ATOM      6  H   UNL d   1      29.421 -15.434   3.312  0.00  0.00     0.170 HD
ENDROOT
BRANCH   1   7
ATOM      7  C   UNL d   1      27.092 -15.334   0.049  0.00  0.00     0.036 A 
ATOM      8  C   UNL d   1      27.123 -14.145  -0.692  0.00  0.00     0.032 A 
ATOM      9  C   UNL d   1      26.292 -13.984  -1.831  0.00  0.00     0.039 A 
ATOM     10  C   UNL d   1      25.465 -15.020  -2.282  0.00  0.00     0.068 A 
ATOM     11  C   UNL d   1      25.465 -16.206  -1.575  0.00  0.00     0.039 A 
ATOM     12  C   UNL d   1      26.268 -16.352  -0.446  0.00  0.00     0.032 A 
BRANCH  10  13
ATOM     13  O   UNL d   1      24.782 -14.827  -3.451  0.00  0.00    -0.356 OA
ATOM     14  C   UNL d   1      25.172 -13.694  -4.230  0.00  0.00     0.210 C 
ENDBRANCH  10  13
ENDBRANCH   1   7
BRANCH   4  15
ATOM     15  C   UNL d   1      28.561 -13.966   4.556  0.00  0.00     0.037 A 
ATOM     16  C   UNL d   1      28.656 -14.437   5.859  0.00  0.00     0.032 A 
ATOM     17  C   UNL d   1      28.531 -13.535   6.942  0.00  0.00     0.039 A 
ATOM     18  C   UNL d   1      28.337 -12.145   6.760  0.00  0.00     0.074 A 
ATOM     19  C   UNL d   1      28.214 -11.668   5.454  0.00  0.00    -0.026 A 
ATOM     20  C   UNL d   1      27.896 -10.276   4.985  0.00  0.00     0.051 C 
ATOM     21  C   UNL d   1      28.350 -12.591   4.388  0.00  0.00     0.039 A 
BRANCH  18  22
ATOM     22  O   UNL d   1      28.301 -11.448   7.942  0.00  0.00    -0.355 OA
ATOM     23  C   UNL d   1      28.520 -12.142   9.161  0.00  0.00     0.210 C 
ENDBRANCH  18  22
ENDBRANCH   4  15
TORSDOF 4
ENDMDL
MODEL 5
REMARK VINA RESULT:    -6.239      2.221      3.689
REMARK INTER + INTRA:          -7.973
REMARK INTER:                  -7.432
REMARK INTRA:                  -0.540
REMARK CONF_INDEPENDENT:        1.193
REMARK UNBOUND:                -0.540
REMARK  4 active torsions:
REMARK  status: ('A' for Active; 'I' for Inactive)
REMARK    1  A    between atoms: O_2  and  C_3 
REMARK    2  A    between atoms: C_6  and  N_7 
REMARK       I    between atoms: N_7  and  C_8 
REMARK       I    between atoms: C_8  and  N_10 
REMARK    3  A    between atoms: N_10  and  C_11 
REMARK    4  A    between atoms: C_14  and  O_15 
ROOT
ATOM      1  N   UNL d   1      25.868 -16.379  -1.383  0.00  0.00    -0.309 N 
ATOM      2  C   UNL d   1      26.042 -15.800  -2.636  0.00  0.00     0.325 C 
ATOM      3  O   UNL d   1      25.155 -15.757  -3.495  0.00  0.00    -0.247 OA
ATOM      4  N   UNL d   1      27.293 -15.266  -2.916  0.00  0.00    -0.309 N 
ATOM      5  H   UNL d   1      26.651 -16.427  -0.746  0.00  0.00     0.170 HD
ATOM      6  H   UNL d   1      28.101 -15.569  -2.394  0.00  0.00     0.170 HD
ENDROOT
BRANCH   1   7
ATOM      7  C   UNL d   1      24.644 -17.020  -0.971  0.00  0.00     0.036 A 
ATOM      8  C   UNL d   1      24.619 -18.345  -0.516  0.00  0.00     0.032 A 
ATOM      9  C   UNL d   1      23.386 -18.981  -0.217  0.00  0.00     0.039 A 
ATOM     10  C   UNL d   1      22.170 -18.292  -0.310  0.00  0.00     0.068 A 
ATOM     11  C   UNL d   1      22.199 -16.974  -0.719  0.00  0.00     0.039 A 
ATOM     12  C   UNL d   1      23.411 -16.361  -1.030  0.00  0.00     0.032 A 
BRANCH  10  13
ATOM     13  O   UNL d   1      21.038 -18.939   0.103  0.00  0.00    -0.356 OA
ATOM     14  C   UNL d   1      20.038 -19.161  -0.893  0.00  0.00     0.210 C 
ENDBRANCH  10  13
ENDBRANCH   1   7
BRANCH   4  15
ATOM     15  C   UNL d   1      27.510 -14.571  -4.154  0.00  0.00     0.037 A 
ATOM     16  C   UNL d   1      28.405 -15.009  -5.121  0.00  0.00     0.032 A 
ATOM     17  C   UNL d   1      28.604 -14.239  -6.291  0.00  0.00     0.039 A 
ATOM     18  C   UNL d   1      27.904 -13.036  -6.544  0.00  0.00     0.074 A 
ATOM     19  C   UNL d   1      27.023 -12.576  -5.564  0.00  0.00    -0.026 A 
ATOM     20  C   UNL d   1      26.246 -11.290  -5.524  0.00  0.00     0.051 C 
ATOM     21  C   UNL d   1      26.836 -13.369  -4.404  0.00  0.00     0.039 A 
BRANCH  18  22
ATOM     22  O   UNL d   1      28.206 -12.483  -7.763  0.00  0.00    -0.355 OA
ATOM     23  C   UNL d   1      29.554 -12.488  -8.209  0.00  0.00     0.210 C 
ENDBRANCH  18  22
ENDBRANCH   4  15
TORSDOF 4
ENDMDL
MODEL 6
REMARK VINA RESULT:    -6.232      2.084      3.835
REMARK INTER + INTRA:          -7.971
REMARK INTER:                  -7.425
REMARK INTRA:                  -0.546
REMARK CONF_INDEPENDENT:        1.193
REMARK UNBOUND:                -0.546
REMARK  4 active torsions:
REMARK  status: ('A' for Active; 'I' for Inactive)
REMARK    1  A    between atoms: O_2  and  C_3 
REMARK    2  A    between atoms: C_6  and  N_7 
REMARK       I    between atoms: N_7  and  C_8 
REMARK       I    between atoms: C_8  and  N_10 
REMARK    3  A    between atoms: N_10  and  C_11 
REMARK    4  A    between atoms: C_14  and  O_15 
ROOT
ATOM      1  N   UNL d   1      25.822 -16.287  -1.150  0.00  0.00    -0.309 N 
ATOM      2  C   UNL d   1      26.157 -15.936  -2.454  0.00  0.00     0.325 C 
ATOM      3  O   UNL d   1      25.431 -16.160  -3.428  0.00  0.00    -0.247 OA
ATOM      4  N   UNL d   1      27.388 -15.320  -2.644  0.00  0.00    -0.309 N 
ATOM      5  H   UNL d   1      26.485 -16.121  -0.406  0.00  0.00     0.170 HD
ATOM      6  H   UNL d   1      28.117 -15.422  -1.956  0.00  0.00     0.170 HD
ENDROOT
BRANCH   1   7
ATOM      7  C   UNL d   1      24.605 -16.979  -0.805  0.00  0.00     0.036 A 
ATOM      8  C   UNL d   1      24.591 -18.349  -0.511  0.00  0.00     0.032 A 
ATOM      9  C   UNL d   1      23.364 -19.023  -0.278  0.00  0.00     0.039 A 
ATOM     10  C   UNL d   1      22.144 -18.335  -0.278  0.00  0.00     0.068 A 
ATOM     11  C   UNL d   1      22.162 -16.978  -0.528  0.00  0.00     0.039 A 
ATOM     12  C   UNL d   1      23.368 -16.325  -0.775  0.00  0.00     0.032 A 
BRANCH  10  13
ATOM     13  O   UNL d   1      21.020 -19.033   0.067  0.00  0.00    -0.356 OA
ATOM     14  C   UNL d   1      20.112 -19.334  -0.996  0.00  0.00     0.210 C 
ENDBRANCH  10  13
ENDBRANCH   1   7
BRANCH   4  15
ATOM     15  C   UNL d   1      27.753 -14.848  -3.951  0.00  0.00     0.037 A 
ATOM     16  C   UNL d   1      27.158 -13.747  -4.552  0.00  0.00     0.032 A 
ATOM     17  C   UNL d   1      27.534 -13.377  -5.865  0.00  0.00     0.039 A 
ATOM     18  C   UNL d   1      28.525 -14.069  -6.600  0.00  0.00     0.074 A 
ATOM     19  C   UNL d   1      29.108 -15.193  -6.013  0.00  0.00    -0.026 A 
ATOM     20  C   UNL d   1      30.090 -16.164  -6.607  0.00  0.00     0.051 C 
ATOM     21  C   UNL d   1      28.720 -15.538  -4.695  0.00  0.00     0.039 A 
BRANCH  18  22
ATOM     22  O   UNL d   1      28.775 -13.507  -7.828  0.00  0.00    -0.355 OA
ATOM     23  C   UNL d   1      29.830 -12.566  -7.955  0.00  0.00     0.210 C 
ENDBRANCH  18  22
ENDBRANCH   4  15
TORSDOF 4
ENDMDL
MODEL 7
REMARK VINA RESULT:    -6.224      2.506      4.063
REMARK INTER + INTRA:          -7.968
REMARK INTER:                  -7.417
REMARK INTRA:                  -0.551
REMARK CONF_INDEPENDENT:        1.193
REMARK UNBOUND:                -0.551
REMARK  4 active torsions:
REMARK  status: ('A' for Active; 'I' for Inactive)
REMARK    1  A    between atoms: O_2  and  C_3 
REMARK    2  A    between atoms: C_6  and  N_7 
REMARK       I    between atoms: N_7  and  C_8 
REMARK       I    between atoms: C_8  and  N_10 
REMARK    3  A    between atoms: N_10  and  C_11 
REMARK    4  A    between atoms: C_14  and  O_15 
ROOT
ATOM      1  N   UNL d   1      25.342 -15.617  -1.123  0.00  0.00    -0.309 N 
ATOM      2  C   UNL d   1      25.497 -14.976  -2.348  0.00  0.00     0.325 C 
ATOM      3  O   UNL d   1      24.780 -15.200  -3.329  0.00  0.00    -0.247 OA
ATOM      4  N   UNL d   1      26.533 -14.057  -2.452  0.00  0.00    -0.309 N 
ATOM      5  H   UNL d   1      25.996 -15.426  -0.377  0.00  0.00     0.170 HD
ATOM      6  H   UNL d   1      27.310 -14.095  -1.811  0.00  0.00     0.170 HD
ENDROOT
BRANCH   1   7
ATOM      7  C   UNL d   1      24.348 -16.633  -0.882  0.00  0.00     0.036 A 
ATOM      8  C   UNL d   1      24.696 -17.970  -0.650  0.00  0.00     0.032 A 
ATOM      9  C   UNL d   1      23.692 -18.965  -0.520  0.00  0.00     0.039 A 
ATOM     10  C   UNL d   1      22.332 -18.635  -0.561  0.00  0.00     0.068 A 
ATOM     11  C   UNL d   1      21.988 -17.312  -0.749  0.00  0.00     0.039 A 
ATOM     12  C   UNL d   1      22.978 -16.343  -0.895  0.00  0.00     0.032 A 
BRANCH  10  13
ATOM     13  O   UNL d   1      21.428 -19.632  -0.315  0.00  0.00    -0.356 OA
ATOM     14  C   UNL d   1      20.089 -19.393  -0.756  0.00  0.00     0.210 C 
ENDBRANCH  10  13
ENDBRANCH   1   7
BRANCH   4  15
ATOM     15  C   UNL d   1      26.688 -13.293  -3.659  0.00  0.00     0.037 A 
ATOM     16  C   UNL d   1      26.015 -12.101  -3.892  0.00  0.00     0.032 A 
ATOM     17  C   UNL d   1      26.179 -11.434  -5.129  0.00  0.00     0.039 A 
ATOM     18  C   UNL d   1      27.032 -11.916  -6.150  0.00  0.00     0.074 A 
ATOM     19  C   UNL d   1      27.691 -13.128  -5.933  0.00  0.00    -0.026 A 
ATOM     20  C   UNL d   1      28.555 -13.913  -6.879  0.00  0.00     0.051 C 
ATOM     21  C   UNL d   1      27.516 -13.771  -4.683  0.00  0.00     0.039 A 
BRANCH  18  22
ATOM     22  O   UNL d   1      27.087 -11.085  -7.242  0.00  0.00    -0.355 OA
ATOM     23  C   UNL d   1      26.352  -9.871  -7.224  0.00  0.00     0.210 C 
ENDBRANCH  18  22
ENDBRANCH   4  15
TORSDOF 4
ENDMDL
MODEL 8
REMARK VINA RESULT:    -6.030      2.639      3.796
REMARK INTER + INTRA:          -7.744
REMARK INTER:                  -7.223
REMARK INTRA:                  -0.521
REMARK CONF_INDEPENDENT:        1.193
REMARK UNBOUND:                -0.521
REMARK  4 active torsions:
REMARK  status: ('A' for Active; 'I' for Inactive)
REMARK    1  A    between atoms: O_2  and  C_3 
REMARK    2  A    between atoms: C_6  and  N_7 
REMARK       I    between atoms: N_7  and  C_8 
REMARK       I    between atoms: C_8  and  N_10 
REMARK    3  A    between atoms: N_10  and  C_11 
REMARK    4  A    between atoms: C_14  and  O_15 
ROOT
ATOM      1  N   UNL d   1      25.970 -17.842   0.100  0.00  0.00    -0.309 N 
ATOM      2  C   UNL d   1      26.916 -17.268  -0.743  0.00  0.00     0.325 C 
ATOM      3  O   UNL d   1      26.627 -16.675  -1.788  0.00  0.00    -0.247 OA
ATOM      4  N   UNL d   1      28.249 -17.400  -0.376  0.00  0.00    -0.309 N 
ATOM      5  H   UNL d   1      26.277 -18.358   0.913  0.00  0.00     0.170 HD
ATOM      6  H   UNL d   1      28.530 -18.131   0.258  0.00  0.00     0.170 HD
ENDROOT
BRANCH   1   7
ATOM      7  C   UNL d   1      24.555 -17.833  -0.177  0.00  0.00     0.036 A 
ATOM      8  C   UNL d   1      23.787 -19.004  -0.145  0.00  0.00     0.032 A 
ATOM      9  C   UNL d   1      22.419 -18.980  -0.525  0.00  0.00     0.039 A 
ATOM     10  C   UNL d   1      21.784 -17.784  -0.883  0.00  0.00     0.068 A 
ATOM     11  C   UNL d   1      22.531 -16.623  -0.875  0.00  0.00     0.039 A 
ATOM     12  C   UNL d   1      23.878 -16.657  -0.520  0.00  0.00     0.032 A 
BRANCH  10  13
ATOM     13  O   UNL d   1      20.439 -17.825  -1.125  0.00  0.00    -0.356 OA
ATOM     14  C   UNL d   1      19.761 -19.018  -0.722  0.00  0.00     0.210 C 
ENDBRANCH  10  13
ENDBRANCH   1   7
BRANCH   4  15
ATOM     15  C   UNL d   1      29.269 -16.750  -1.153  0.00  0.00     0.037 A 
ATOM     16  C   UNL d   1      30.098 -15.763  -0.637  0.00  0.00     0.032 A 
ATOM     17  C   UNL d   1      31.042 -15.131  -1.481  0.00  0.00     0.039 A 
ATOM     18  C   UNL d   1      31.206 -15.480  -2.842  0.00  0.00     0.074 A 
ATOM     19  C   UNL d   1      30.358 -16.452  -3.373  0.00  0.00    -0.026 A 
ATOM     20  C   UNL d   1      30.241 -16.926  -4.795  0.00  0.00     0.051 C 
ATOM     21  C   UNL d   1      29.426 -17.075  -2.506  0.00  0.00     0.039 A 
BRANCH  18  22
ATOM     22  O   UNL d   1      32.217 -14.784  -3.458  0.00  0.00    -0.355 OA
ATOM     23  C   UNL d   1      31.888 -13.690  -4.301  0.00  0.00     0.210 C 
ENDBRANCH  18  22
ENDBRANCH   4  15
TORSDOF 4
ENDMDL
MODEL 9
REMARK VINA RESULT:    -5.977      6.395      8.675
REMARK INTER + INTRA:          -7.609
REMARK INTER:                  -7.170
REMARK INTRA:                  -0.439
REMARK CONF_INDEPENDENT:        1.193
REMARK UNBOUND:                -0.439
REMARK  4 active torsions:
REMARK  status: ('A' for Active; 'I' for Inactive)
REMARK    1  A    between atoms: O_2  and  C_3 
REMARK    2  A    between atoms: C_6  and  N_7 
REMARK       I    between atoms: N_7  and  C_8 
REMARK       I    between atoms: C_8  and  N_10 
REMARK    3  A    between atoms: N_10  and  C_11 
REMARK    4  A    between atoms: C_14  and  O_15 
ROOT
ATOM      1  N   UNL d   1      28.708 -14.843   3.397  0.00  0.00    -0.309 N 
ATOM      2  C   UNL d   1      27.867 -14.647   2.306  0.00  0.00     0.325 C 
ATOM      3  O   UNL d   1      26.951 -13.820   2.292  0.00  0.00    -0.247 OA
ATOM      4  N   UNL d   1      28.080 -15.453   1.194  0.00  0.00    -0.309 N 
ATOM      5  H   UNL d   1      29.405 -15.574   3.361  0.00  0.00     0.170 HD
ATOM      6  H   UNL d   1      28.574 -16.326   1.288  0.00  0.00     0.170 HD
ENDROOT
BRANCH   1   7
ATOM      7  C   UNL d   1      28.574 -14.121   4.638  0.00  0.00     0.036 A 
ATOM      8  C   UNL d   1      29.015 -14.655   5.856  0.00  0.00     0.032 A 
ATOM      9  C   UNL d   1      28.775 -13.966   7.073  0.00  0.00     0.039 A 
ATOM     10  C   UNL d   1      28.146 -12.715   7.090  0.00  0.00     0.068 A 
ATOM     11  C   UNL d   1      27.748 -12.170   5.886  0.00  0.00     0.039 A 
ATOM     12  C   UNL d   1      27.970 -12.860   4.696  0.00  0.00     0.032 A 
BRANCH  10  13
ATOM     13  O   UNL d   1      28.054 -12.065   8.290  0.00  0.00    -0.356 OA
ATOM     14  C   UNL d   1      29.058 -11.082   8.555  0.00  0.00     0.210 C 
ENDBRANCH  10  13
ENDBRANCH   1   7
BRANCH   4  15
ATOM     15  C   UNL d   1      27.309 -15.238   0.001  0.00  0.00     0.037 A 
ATOM     16  C   UNL d   1      26.632 -16.257  -0.656  0.00  0.00     0.032 A 
ATOM     17  C   UNL d   1      25.938 -15.976  -1.857  0.00  0.00     0.039 A 
ATOM     18  C   UNL d   1      25.875 -14.679  -2.418  0.00  0.00     0.074 A 
ATOM     19  C   UNL d   1      26.576 -13.655  -1.778  0.00  0.00    -0.026 A 
ATOM     20  C   UNL d   1      26.768 -12.230  -2.213  0.00  0.00     0.051 C 
ATOM     21  C   UNL d   1      27.256 -13.961  -0.573  0.00  0.00     0.039 A 
BRANCH  18  22
ATOM     22  O   UNL d   1      25.102 -14.620  -3.552  0.00  0.00    -0.355 OA
ATOM     23  C   UNL d   1      25.519 -15.328  -4.710  0.00  0.00     0.210 C 
ENDBRANCH  18  22
ENDBRANCH   4  15
TORSDOF 4
ENDMDL
