MODEL 1
REMARK VINA RESULT:    -8.035      0.000      0.000
REMARK INTER + INTRA:          -9.780
REMARK INTER:                  -9.228
REMARK INTRA:                  -0.552
REMARK CONF_INDEPENDENT:        1.193
REMARK UNBOUND:                -0.552
REMARK  4 active torsions:
REMARK  status: ('A' for Active; 'I' for Inactive)
REMARK       I    between atoms: C_2  and  N_3 
REMARK    1  A    between atoms: C_2  and  C_13 
REMARK    2  A    between atoms: N_3  and  N_4 
REMARK    3  A    between atoms: C_5  and  C_6 
REMARK    4  A    between atoms: C_9  and  O_10 
ROOT
ATOM      1  O   UNL d   1      22.747 -15.962  -0.713  0.00  0.00    -0.264 OA
ATOM      2  C   UNL d   1      23.663 -16.604  -1.253  0.00  0.00     0.288 C 
ATOM      3  N   UNL d   1      23.786 -17.988  -1.143  0.00  0.00    -0.242 N 
ATOM      4  H   UNL d   1      24.637 -18.450  -1.446  0.00  0.00     0.192 HD
ENDROOT
BRANCH   2   5
ATOM      5  C   UNL d   1      24.685 -15.901  -2.013  0.00  0.00     0.103 A 
ATOM      6  C   UNL d   1      25.985 -16.257  -2.342  0.00  0.00     0.049 A 
ATOM      7  C   UNL d   1      26.479 -15.330  -3.313  0.00  0.00    -0.007 A 
ATOM      8  C   UNL d   1      27.663 -15.243  -4.075  0.00  0.00     0.014 A 
ATOM      9  C   UNL d   1      25.488 -14.371  -3.510  0.00  0.00     0.043 A 
ATOM     10  C   UNL d   1      27.819 -14.204  -5.003  0.00  0.00     0.001 A 
ATOM     11  C   UNL d   1      26.818 -13.249  -5.168  0.00  0.00     0.002 A 
ATOM     12  C   UNL d   1      25.636 -13.310  -4.419  0.00  0.00     0.030 A 
ATOM     13  N   UNL d   1      24.428 -14.726  -2.701  0.00  0.00    -0.351 N 
ATOM     14  H   UNL d   1      23.541 -14.241  -2.671  0.00  0.00     0.166 HD
ENDBRANCH   2   5
BRANCH   3  15
ATOM     15  N   UNL d   1      22.810 -18.706  -0.475  0.00  0.00    -0.183 NA
ATOM     16  C   UNL d   1      21.568 -18.487  -0.771  0.00  0.00     0.150 C 
BRANCH  16  17
ATOM     17  C   UNL d   1      20.474 -19.267  -0.128  0.00  0.00    -0.017 A 
ATOM     18  C   UNL d   1      20.554 -19.663   1.214  0.00  0.00     0.015 A 
ATOM     19  C   UNL d   1      19.539 -20.450   1.781  0.00  0.00     0.037 A 
ATOM     20  C   UNL d   1      18.460 -20.850   0.996  0.00  0.00     0.065 A 
ATOM     21  C   UNL d   1      18.369 -20.454  -0.334  0.00  0.00     0.037 A 
ATOM     22  C   UNL d   1      19.367 -19.647  -0.895  0.00  0.00     0.015 A 
BRANCH  20  23
ATOM     23  O   UNL d   1      17.465 -21.643   1.488  0.00  0.00    -0.361 OA
ATOM     24  H   UNL d   1      16.906 -21.949   0.756  0.00  0.00     0.217 HD
ENDBRANCH  20  23
ENDBRANCH  16  17
ENDBRANCH   3  15
TORSDOF 4
ENDMDL
MODEL 2
REMARK VINA RESULT:    -7.576      1.700      2.226
REMARK INTER + INTRA:          -9.343
REMARK INTER:                  -8.769
REMARK INTRA:                  -0.574
REMARK CONF_INDEPENDENT:        1.193
REMARK UNBOUND:                -0.574
REMARK  4 active torsions:
REMARK  status: ('A' for Active; 'I' for Inactive)
REMARK       I    between atoms: C_2  and  N_3 
REMARK    1  A    between atoms: C_2  and  C_13 
REMARK    2  A    between atoms: N_3  and  N_4 
REMARK    3  A    between atoms: C_5  and  C_6 
REMARK    4  A    between atoms: C_9  and  O_10 
ROOT
ATOM      1  O   UNL d   1      24.431 -18.208   0.372  0.00  0.00    -0.264 OA
ATOM      2  C   UNL d   1      24.436 -17.832  -0.812  0.00  0.00     0.288 C 
ATOM      3  N   UNL d   1      23.459 -18.209  -1.732  0.00  0.00    -0.242 N 
ATOM      4  H   UNL d   1      23.594 -18.030  -2.721  0.00  0.00     0.192 HD
ENDROOT
BRANCH   2   5
ATOM      5  C   UNL d   1      25.518 -16.988  -1.295  0.00  0.00     0.103 A 
ATOM      6  C   UNL d   1      25.531 -15.973  -2.241  0.00  0.00     0.049 A 
ATOM      7  C   UNL d   1      26.787 -15.293  -2.162  0.00  0.00    -0.007 A 
ATOM      8  C   UNL d   1      27.324 -14.147  -2.784  0.00  0.00     0.014 A 
ATOM      9  C   UNL d   1      27.555 -15.955  -1.208  0.00  0.00     0.043 A 
ATOM     10  C   UNL d   1      28.608 -13.704  -2.437  0.00  0.00     0.001 A 
ATOM     11  C   UNL d   1      29.361 -14.395  -1.492  0.00  0.00     0.002 A 
ATOM     12  C   UNL d   1      28.853 -15.539  -0.863  0.00  0.00     0.030 A 
ATOM     13  N   UNL d   1      26.777 -16.983  -0.716  0.00  0.00    -0.351 N 
ATOM     14  H   UNL d   1      27.053 -17.607   0.030  0.00  0.00     0.166 HD
ENDBRANCH   2   5
BRANCH   3  15
ATOM     15  N   UNL d   1      22.383 -18.969  -1.307  0.00  0.00    -0.183 NA
ATOM     16  C   UNL d   1      21.722 -18.577  -0.263  0.00  0.00     0.150 C 
BRANCH  16  17
ATOM     17  C   UNL d   1      20.521 -19.320   0.209  0.00  0.00    -0.017 A 
ATOM     18  C   UNL d   1      20.382 -19.702   1.550  0.00  0.00     0.015 A 
ATOM     19  C   UNL d   1      19.270 -20.455   1.960  0.00  0.00     0.037 A 
ATOM     20  C   UNL d   1      18.313 -20.834   1.021  0.00  0.00     0.065 A 
ATOM     21  C   UNL d   1      18.439 -20.451  -0.310  0.00  0.00     0.037 A 
ATOM     22  C   UNL d   1      19.534 -19.678  -0.717  0.00  0.00     0.015 A 
BRANCH  20  23
ATOM     23  O   UNL d   1      17.232 -21.593   1.360  0.00  0.00    -0.361 OA
ATOM     24  H   UNL d   1      17.210 -22.389   0.804  0.00  0.00     0.217 HD
ENDBRANCH  20  23
ENDBRANCH  16  17
ENDBRANCH   3  15
TORSDOF 4
ENDMDL
MODEL 3
REMARK VINA RESULT:    -7.568      1.546      1.861
REMARK INTER + INTRA:          -9.176
REMARK INTER:                  -8.761
REMARK INTRA:                  -0.415
REMARK CONF_INDEPENDENT:        1.193
REMARK UNBOUND:                -0.415
REMARK  4 active torsions:
REMARK  status: ('A' for Active; 'I' for Inactive)
REMARK       I    between atoms: C_2  and  N_3 
REMARK    1  A    between atoms: C_2  and  C_13 
REMARK    2  A    between atoms: N_3  and  N_4 
REMARK    3  A    between atoms: C_5  and  C_6 
REMARK    4  A    between atoms: C_9  and  O_10 
ROOT
ATOM      1  O   UNL d   1      24.488 -18.631   0.341  0.00  0.00    -0.264 OA
ATOM      2  C   UNL d   1      24.397 -17.923  -0.676  0.00  0.00     0.288 C 
ATOM      3  N   UNL d   1      23.283 -17.937  -1.513  0.00  0.00    -0.242 N 
ATOM      4  H   UNL d   1      23.321 -17.484  -2.420  0.00  0.00     0.192 HD
ENDROOT
BRANCH   2   5
ATOM      5  C   UNL d   1      25.504 -17.056  -1.051  0.00  0.00     0.103 A 
ATOM      6  C   UNL d   1      26.739 -16.844  -0.455  0.00  0.00     0.049 A 
ATOM      7  C   UNL d   1      27.554 -16.087  -1.356  0.00  0.00    -0.007 A 
ATOM      8  C   UNL d   1      28.901 -15.668  -1.346  0.00  0.00     0.014 A 
ATOM      9  C   UNL d   1      26.770 -15.786  -2.468  0.00  0.00     0.043 A 
ATOM     10  C   UNL d   1      29.418 -14.962  -2.440  0.00  0.00     0.001 A 
ATOM     11  C   UNL d   1      28.607 -14.660  -3.532  0.00  0.00     0.002 A 
ATOM     12  C   UNL d   1      27.265 -15.060  -3.564  0.00  0.00     0.030 A 
ATOM     13  N   UNL d   1      25.536 -16.363  -2.250  0.00  0.00    -0.351 N 
ATOM     14  H   UNL d   1      24.773 -16.355  -2.914  0.00  0.00     0.166 HD
ENDBRANCH   2   5
BRANCH   3  15
ATOM     15  N   UNL d   1      22.185 -18.707  -1.170  0.00  0.00    -0.183 NA
ATOM     16  C   UNL d   1      21.769 -18.680   0.057  0.00  0.00     0.150 C 
BRANCH  16  17
ATOM     17  C   UNL d   1      20.559 -19.441   0.476  0.00  0.00    -0.017 A 
ATOM     18  C   UNL d   1      20.278 -19.675   1.828  0.00  0.00     0.015 A 
ATOM     19  C   UNL d   1      19.165 -20.447   2.196  0.00  0.00     0.037 A 
ATOM     20  C   UNL d   1      18.351 -20.995   1.208  0.00  0.00     0.065 A 
ATOM     21  C   UNL d   1      18.618 -20.760  -0.137  0.00  0.00     0.037 A 
ATOM     22  C   UNL d   1      19.713 -19.969  -0.507  0.00  0.00     0.015 A 
BRANCH  20  23
ATOM     23  O   UNL d   1      17.277 -21.780   1.510  0.00  0.00    -0.361 OA
ATOM     24  H   UNL d   1      17.276 -22.560   0.931  0.00  0.00     0.217 HD
ENDBRANCH  20  23
ENDBRANCH  16  17
ENDBRANCH   3  15
TORSDOF 4
ENDMDL
MODEL 4
REMARK VINA RESULT:    -7.506      2.114      9.177
REMARK INTER + INTRA:          -9.185
REMARK INTER:                  -8.699
REMARK INTRA:                  -0.486
REMARK CONF_INDEPENDENT:        1.193
REMARK UNBOUND:                -0.486
REMARK  4 active torsions:
REMARK  status: ('A' for Active; 'I' for Inactive)
REMARK       I    between atoms: C_2  and  N_3 
REMARK    1  A    between atoms: C_2  and  C_13 
REMARK    2  A    between atoms: N_3  and  N_4 
REMARK    3  A    between atoms: C_5  and  C_6 
REMARK    4  A    between atoms: C_9  and  O_10 
ROOT
ATOM      1  O   UNL d   1      23.319 -18.749  -2.375  0.00  0.00    -0.264 OA
ATOM      2  C   UNL d   1      22.971 -18.281  -1.279  0.00  0.00     0.288 C 
ATOM      3  N   UNL d   1      23.725 -17.340  -0.582  0.00  0.00    -0.242 N 
ATOM      4  H   UNL d   1      23.500 -17.118   0.382  0.00  0.00     0.192 HD
ENDROOT
BRANCH   2   5
ATOM      5  C   UNL d   1      21.741 -18.745  -0.657  0.00  0.00     0.103 A 
ATOM      6  C   UNL d   1      20.553 -19.202  -1.210  0.00  0.00     0.049 A 
ATOM      7  C   UNL d   1      19.755 -19.772  -0.169  0.00  0.00    -0.007 A 
ATOM      8  C   UNL d   1      18.528 -20.467  -0.141  0.00  0.00     0.014 A 
ATOM      9  C   UNL d   1      20.445 -19.588   1.027  0.00  0.00     0.043 A 
ATOM     10  C   UNL d   1      18.030 -20.950   1.077  0.00  0.00     0.001 A 
ATOM     11  C   UNL d   1      18.732 -20.738   2.261  0.00  0.00     0.002 A 
ATOM     12  C   UNL d   1      19.950 -20.046   2.260  0.00  0.00     0.030 A 
ATOM     13  N   UNL d   1      21.625 -18.950   0.709  0.00  0.00    -0.351 N 
ATOM     14  H   UNL d   1      22.357 -18.730   1.372  0.00  0.00     0.166 HD
ENDBRANCH   2   5
BRANCH   3  15
ATOM     15  N   UNL d   1      24.876 -16.830  -1.157  0.00  0.00    -0.183 NA
ATOM     16  C   UNL d   1      24.780 -16.215  -2.294  0.00  0.00     0.150 C 
BRANCH  16  17
ATOM     17  C   UNL d   1      25.973 -15.595  -2.936  0.00  0.00    -0.017 A 
ATOM     18  C   UNL d   1      25.879 -14.949  -4.175  0.00  0.00     0.015 A 
ATOM     19  C   UNL d   1      27.028 -14.426  -4.790  0.00  0.00     0.037 A 
ATOM     20  C   UNL d   1      28.266 -14.570  -4.168  0.00  0.00     0.065 A 
ATOM     21  C   UNL d   1      28.366 -15.202  -2.933  0.00  0.00     0.037 A 
ATOM     22  C   UNL d   1      27.218 -15.701  -2.305  0.00  0.00     0.015 A 
BRANCH  20  23
ATOM     23  O   UNL d   1      29.417 -14.110  -4.737  0.00  0.00    -0.361 OA
ATOM     24  H   UNL d   1      30.163 -14.654  -4.436  0.00  0.00     0.217 HD
ENDBRANCH  20  23
ENDBRANCH  16  17
ENDBRANCH   3  15
TORSDOF 4
ENDMDL
MODEL 5
REMARK VINA RESULT:    -7.406      3.446      9.100
REMARK INTER + INTRA:          -9.095
REMARK INTER:                  -8.599
REMARK INTRA:                  -0.496
REMARK CONF_INDEPENDENT:        1.193
REMARK UNBOUND:                -0.496
REMARK  4 active torsions:
REMARK  status: ('A' for Active; 'I' for Inactive)
REMARK       I    between atoms: C_2  and  N_3 
REMARK    1  A    between atoms: C_2  and  C_13 
REMARK    2  A    between atoms: N_3  and  N_4 
REMARK    3  A    between atoms: C_5  and  C_6 
REMARK    4  A    between atoms: C_9  and  O_10 
ROOT
ATOM      1  O   UNL d   1      23.101 -16.971  -1.221  0.00  0.00    -0.264 OA
ATOM      2  C   UNL d   1      23.040 -18.040  -0.592  0.00  0.00     0.288 C 
ATOM      3  N   UNL d   1      24.169 -18.762  -0.209  0.00  0.00    -0.242 N 
ATOM      4  H   UNL d   1      24.074 -19.709   0.142  0.00  0.00     0.192 HD
ENDROOT
BRANCH   2   5
ATOM      5  C   UNL d   1      21.741 -18.604  -0.255  0.00  0.00     0.103 A 
ATOM      6  C   UNL d   1      20.689 -19.017  -1.060  0.00  0.00     0.049 A 
ATOM      7  C   UNL d   1      19.748 -19.727  -0.249  0.00  0.00    -0.007 A 
ATOM      8  C   UNL d   1      18.566 -20.448  -0.519  0.00  0.00     0.014 A 
ATOM      9  C   UNL d   1      20.211 -19.673   1.063  0.00  0.00     0.043 A 
ATOM     10  C   UNL d   1      17.886 -21.086   0.527  0.00  0.00     0.001 A 
ATOM     11  C   UNL d   1      18.362 -21.002   1.833  0.00  0.00     0.002 A 
ATOM     12  C   UNL d   1      19.530 -20.287   2.128  0.00  0.00     0.030 A 
ATOM     13  N   UNL d   1      21.400 -18.974   1.035  0.00  0.00    -0.351 N 
ATOM     14  H   UNL d   1      21.994 -18.820   1.839  0.00  0.00     0.166 HD
ENDBRANCH   2   5
BRANCH   3  15
ATOM     15  N   UNL d   1      25.426 -18.240  -0.461  0.00  0.00    -0.183 NA
ATOM     16  C   UNL d   1      25.800 -17.184   0.188  0.00  0.00     0.150 C 
BRANCH  16  17
ATOM     17  C   UNL d   1      27.161 -16.608   0.003  0.00  0.00    -0.017 A 
ATOM     18  C   UNL d   1      28.208 -17.372  -0.529  0.00  0.00     0.015 A 
ATOM     19  C   UNL d   1      29.498 -16.826  -0.637  0.00  0.00     0.037 A 
ATOM     20  C   UNL d   1      29.734 -15.527  -0.194  0.00  0.00     0.065 A 
ATOM     21  C   UNL d   1      28.697 -14.759   0.327  0.00  0.00     0.037 A 
ATOM     22  C   UNL d   1      27.405 -15.291   0.412  0.00  0.00     0.015 A 
BRANCH  20  23
ATOM     23  O   UNL d   1      30.974 -14.962  -0.245  0.00  0.00    -0.361 OA
ATOM     24  H   UNL d   1      31.389 -15.018   0.631  0.00  0.00     0.217 HD
ENDBRANCH  20  23
ENDBRANCH  16  17
ENDBRANCH   3  15
TORSDOF 4
ENDMDL
MODEL 6
REMARK VINA RESULT:    -6.593      5.475      6.749
REMARK INTER + INTRA:          -8.273
REMARK INTER:                  -7.786
REMARK INTRA:                  -0.486
REMARK CONF_INDEPENDENT:        1.193
REMARK UNBOUND:                -0.486
REMARK  4 active torsions:
REMARK  status: ('A' for Active; 'I' for Inactive)
REMARK       I    between atoms: C_2  and  N_3 
REMARK    1  A    between atoms: C_2  and  C_13 
REMARK    2  A    between atoms: N_3  and  N_4 
REMARK    3  A    between atoms: C_5  and  C_6 
REMARK    4  A    between atoms: C_9  and  O_10 
ROOT
ATOM      1  O   UNL d   1      28.276 -15.210  -0.562  0.00  0.00    -0.264 OA
ATOM      2  C   UNL d   1      28.867 -16.243  -0.208  0.00  0.00     0.288 C 
ATOM      3  N   UNL d   1      28.254 -17.495  -0.176  0.00  0.00    -0.242 N 
ATOM      4  H   UNL d   1      28.712 -18.275   0.284  0.00  0.00     0.192 HD
ENDROOT
BRANCH   2   5
ATOM      5  C   UNL d   1      30.252 -16.166   0.230  0.00  0.00     0.103 A 
ATOM      6  C   UNL d   1      31.014 -15.090   0.661  0.00  0.00     0.049 A 
ATOM      7  C   UNL d   1      32.235 -15.590   1.215  0.00  0.00    -0.007 A 
ATOM      8  C   UNL d   1      33.326 -14.996   1.884  0.00  0.00     0.014 A 
ATOM      9  C   UNL d   1      32.229 -16.972   1.047  0.00  0.00     0.043 A 
ATOM     10  C   UNL d   1      34.372 -15.799   2.358  0.00  0.00     0.001 A 
ATOM     11  C   UNL d   1      34.348 -17.178   2.162  0.00  0.00     0.002 A 
ATOM     12  C   UNL d   1      33.279 -17.791   1.495  0.00  0.00     0.030 A 
ATOM     13  N   UNL d   1      31.035 -17.291   0.434  0.00  0.00    -0.351 N 
ATOM     14  H   UNL d   1      30.727 -18.233   0.230  0.00  0.00     0.166 HD
ENDBRANCH   2   5
BRANCH   3  15
ATOM     15  N   UNL d   1      26.955 -17.627  -0.633  0.00  0.00    -0.183 NA
ATOM     16  C   UNL d   1      25.986 -17.544   0.224  0.00  0.00     0.150 C 
BRANCH  16  17
ATOM     17  C   UNL d   1      24.564 -17.622  -0.213  0.00  0.00    -0.017 A 
ATOM     18  C   UNL d   1      23.841 -16.469  -0.546  0.00  0.00     0.015 A 
ATOM     19  C   UNL d   1      22.484 -16.561  -0.895  0.00  0.00     0.037 A 
ATOM     20  C   UNL d   1      21.857 -17.804  -0.893  0.00  0.00     0.065 A 
ATOM     21  C   UNL d   1      22.570 -18.954  -0.573  0.00  0.00     0.037 A 
ATOM     22  C   UNL d   1      23.929 -18.869  -0.248  0.00  0.00     0.015 A 
BRANCH  20  23
ATOM     23  O   UNL d   1      20.533 -17.945  -1.192  0.00  0.00    -0.361 OA
ATOM     24  H   UNL d   1      20.160 -17.077  -1.415  0.00  0.00     0.217 HD
ENDBRANCH  20  23
ENDBRANCH  16  17
ENDBRANCH   3  15
TORSDOF 4
ENDMDL
MODEL 7
REMARK VINA RESULT:    -6.474      7.361      9.701
REMARK INTER + INTRA:          -8.329
REMARK INTER:                  -7.667
REMARK INTRA:                  -0.662
REMARK CONF_INDEPENDENT:        1.193
REMARK UNBOUND:                -0.662
REMARK  4 active torsions:
REMARK  status: ('A' for Active; 'I' for Inactive)
REMARK       I    between atoms: C_2  and  N_3 
REMARK    1  A    between atoms: C_2  and  C_13 
REMARK    2  A    between atoms: N_3  and  N_4 
REMARK    3  A    between atoms: C_5  and  C_6 
REMARK    4  A    between atoms: C_9  and  O_10 
ROOT
ATOM      1  O   UNL d   1      26.873 -12.935   2.897  0.00  0.00    -0.264 OA
ATOM      2  C   UNL d   1      27.774 -13.738   3.189  0.00  0.00     0.288 C 
ATOM      3  N   UNL d   1      28.356 -14.596   2.257  0.00  0.00    -0.242 N 
ATOM      4  H   UNL d   1      28.956 -15.354   2.567  0.00  0.00     0.192 HD
ENDROOT
BRANCH   2   5
ATOM      5  C   UNL d   1      28.237 -13.832   4.565  0.00  0.00     0.103 A 
ATOM      6  C   UNL d   1      29.255 -14.583   5.136  0.00  0.00     0.049 A 
ATOM      7  C   UNL d   1      29.464 -14.122   6.474  0.00  0.00    -0.007 A 
ATOM      8  C   UNL d   1      30.404 -14.424   7.481  0.00  0.00     0.014 A 
ATOM      9  C   UNL d   1      28.512 -13.137   6.724  0.00  0.00     0.043 A 
ATOM     10  C   UNL d   1      30.361 -13.737   8.702  0.00  0.00     0.001 A 
ATOM     11  C   UNL d   1      29.388 -12.767   8.932  0.00  0.00     0.002 A 
ATOM     12  C   UNL d   1      28.440 -12.453   7.950  0.00  0.00     0.030 A 
ATOM     13  N   UNL d   1      27.774 -12.996   5.567  0.00  0.00    -0.351 N 
ATOM     14  H   UNL d   1      27.040 -12.313   5.434  0.00  0.00     0.166 HD
ENDBRANCH   2   5
BRANCH   3  15
ATOM     15  N   UNL d   1      27.985 -14.507   0.927  0.00  0.00    -0.183 NA
ATOM     16  C   UNL d   1      26.786 -14.867   0.593  0.00  0.00     0.150 C 
BRANCH  16  17
ATOM     17  C   UNL d   1      26.308 -14.741  -0.812  0.00  0.00    -0.017 A 
ATOM     18  C   UNL d   1      26.428 -13.537  -1.517  0.00  0.00     0.015 A 
ATOM     19  C   UNL d   1      25.914 -13.425  -2.819  0.00  0.00     0.037 A 
ATOM     20  C   UNL d   1      25.270 -14.514  -3.399  0.00  0.00     0.065 A 
ATOM     21  C   UNL d   1      25.155 -15.717  -2.710  0.00  0.00     0.037 A 
ATOM     22  C   UNL d   1      25.689 -15.839  -1.421  0.00  0.00     0.015 A 
BRANCH  20  23
ATOM     23  O   UNL d   1      24.724 -14.449  -4.648  0.00  0.00    -0.361 OA
ATOM     24  H   UNL d   1      23.880 -13.970  -4.606  0.00  0.00     0.217 HD
ENDBRANCH  20  23
ENDBRANCH  16  17
ENDBRANCH   3  15
TORSDOF 4
ENDMDL
MODEL 8
REMARK VINA RESULT:    -6.440      3.005      5.140
REMARK INTER + INTRA:          -8.140
REMARK INTER:                  -7.633
REMARK INTRA:                  -0.508
REMARK CONF_INDEPENDENT:        1.193
REMARK UNBOUND:                -0.508
REMARK  4 active torsions:
REMARK  status: ('A' for Active; 'I' for Inactive)
REMARK       I    between atoms: C_2  and  N_3 
REMARK    1  A    between atoms: C_2  and  C_13 
REMARK    2  A    between atoms: N_3  and  N_4 
REMARK    3  A    between atoms: C_5  and  C_6 
REMARK    4  A    between atoms: C_9  and  O_10 
ROOT
ATOM      1  O   UNL d   1      25.896 -15.950  -5.739  0.00  0.00    -0.264 OA
ATOM      2  C   UNL d   1      26.507 -15.059  -5.128  0.00  0.00     0.288 C 
ATOM      3  N   UNL d   1      26.186 -14.671  -3.829  0.00  0.00    -0.242 N 
ATOM      4  H   UNL d   1      26.587 -13.827  -3.434  0.00  0.00     0.192 HD
ENDROOT
BRANCH   2   5
ATOM      5  C   UNL d   1      27.591 -14.347  -5.789  0.00  0.00     0.103 A 
ATOM      6  C   UNL d   1      27.874 -12.991  -5.875  0.00  0.00     0.049 A 
ATOM      7  C   UNL d   1      29.187 -12.834  -6.420  0.00  0.00    -0.007 A 
ATOM      8  C   UNL d   1      30.033 -11.727  -6.640  0.00  0.00     0.014 A 
ATOM      9  C   UNL d   1      29.662 -14.107  -6.726  0.00  0.00     0.043 A 
ATOM     10  C   UNL d   1      31.319 -11.927  -7.160  0.00  0.00     0.001 A 
ATOM     11  C   UNL d   1      31.763 -13.210  -7.473  0.00  0.00     0.002 A 
ATOM     12  C   UNL d   1      30.940 -14.325  -7.269  0.00  0.00     0.030 A 
ATOM     13  N   UNL d   1      28.675 -14.997  -6.356  0.00  0.00    -0.351 N 
ATOM     14  H   UNL d   1      28.758 -16.004  -6.413  0.00  0.00     0.166 HD
ENDBRANCH   2   5
BRANCH   3  15
ATOM     15  N   UNL d   1      25.197 -15.354  -3.142  0.00  0.00    -0.183 NA
ATOM     16  C   UNL d   1      25.550 -16.185  -2.212  0.00  0.00     0.150 C 
BRANCH  16  17
ATOM     17  C   UNL d   1      24.532 -16.907  -1.399  0.00  0.00    -0.017 A 
ATOM     18  C   UNL d   1      24.797 -18.171  -0.857  0.00  0.00     0.015 A 
ATOM     19  C   UNL d   1      23.800 -18.859  -0.146  0.00  0.00     0.037 A 
ATOM     20  C   UNL d   1      22.541 -18.283   0.003  0.00  0.00     0.065 A 
ATOM     21  C   UNL d   1      22.273 -17.023  -0.523  0.00  0.00     0.037 A 
ATOM     22  C   UNL d   1      23.273 -16.324  -1.211  0.00  0.00     0.015 A 
BRANCH  20  23
ATOM     23  O   UNL d   1      21.528 -18.922   0.656  0.00  0.00    -0.361 OA
ATOM     24  H   UNL d   1      21.783 -19.844   0.821  0.00  0.00     0.217 HD
ENDBRANCH  20  23
ENDBRANCH  16  17
ENDBRANCH   3  15
TORSDOF 4
ENDMDL
MODEL 9
REMARK VINA RESULT:    -6.415      2.753      4.574
REMARK INTER + INTRA:          -8.264
REMARK INTER:                  -7.608
REMARK INTRA:                  -0.655
REMARK CONF_INDEPENDENT:        1.193
REMARK UNBOUND:                -0.655
REMARK  4 active torsions:
REMARK  status: ('A' for Active; 'I' for Inactive)
REMARK       I    between atoms: C_2  and  N_3 
REMARK    1  A    between atoms: C_2  and  C_13 
REMARK    2  A    between atoms: N_3  and  N_4 
REMARK    3  A    between atoms: C_5  and  C_6 
REMARK    4  A    between atoms: C_9  and  O_10 
ROOT
ATOM      1  O   UNL d   1      24.299 -13.794  -4.316  0.00  0.00    -0.264 OA
ATOM      2  C   UNL d   1      25.530 -13.964  -4.311  0.00  0.00     0.288 C 
ATOM      3  N   UNL d   1      26.144 -15.052  -3.694  0.00  0.00    -0.242 N 
ATOM      4  H   UNL d   1      27.149 -15.062  -3.559  0.00  0.00     0.192 HD
ENDROOT
BRANCH   2   5
ATOM      5  C   UNL d   1      26.394 -12.979  -4.943  0.00  0.00     0.103 A 
ATOM      6  C   UNL d   1      27.728 -13.044  -5.322  0.00  0.00     0.049 A 
ATOM      7  C   UNL d   1      28.028 -11.900  -6.126  0.00  0.00    -0.007 A 
ATOM      8  C   UNL d   1      29.159 -11.485  -6.860  0.00  0.00     0.014 A 
ATOM      9  C   UNL d   1      26.881 -11.111  -6.167  0.00  0.00     0.043 A 
ATOM     10  C   UNL d   1      29.109 -10.299  -7.605  0.00  0.00     0.001 A 
ATOM     11  C   UNL d   1      27.954  -9.520  -7.615  0.00  0.00     0.002 A 
ATOM     12  C   UNL d   1      26.819  -9.907  -6.889  0.00  0.00     0.030 A 
ATOM     13  N   UNL d   1      25.920 -11.772  -5.430  0.00  0.00    -0.351 N 
ATOM     14  H   UNL d   1      24.963 -11.461  -5.324  0.00  0.00     0.166 HD
ENDBRANCH   2   5
BRANCH   3  15
ATOM     15  N   UNL d   1      25.360 -16.042  -3.126  0.00  0.00    -0.183 NA
ATOM     16  C   UNL d   1      24.946 -15.881  -1.909  0.00  0.00     0.150 C 
BRANCH  16  17
ATOM     17  C   UNL d   1      24.054 -16.883  -1.262  0.00  0.00    -0.017 A 
ATOM     18  C   UNL d   1      24.524 -18.153  -0.904  0.00  0.00     0.015 A 
ATOM     19  C   UNL d   1      23.649 -19.101  -0.351  0.00  0.00     0.037 A 
ATOM     20  C   UNL d   1      22.306 -18.778  -0.176  0.00  0.00     0.065 A 
ATOM     21  C   UNL d   1      21.833 -17.515  -0.520  0.00  0.00     0.037 A 
ATOM     22  C   UNL d   1      22.709 -16.559  -1.048  0.00  0.00     0.015 A 
BRANCH  20  23
ATOM     23  O   UNL d   1      21.407 -19.673   0.325  0.00  0.00    -0.361 OA
ATOM     24  H   UNL d   1      21.637 -19.878   1.246  0.00  0.00     0.217 HD
ENDBRANCH  20  23
ENDBRANCH  16  17
ENDBRANCH   3  15
TORSDOF 4
ENDMDL
