MODEL 1
REMARK VINA RESULT:    -8.976      0.000      0.000
REMARK INTER + INTRA:         -16.123
REMARK INTER:                 -11.959
REMARK INTRA:                  -4.165
REMARK CONF_INDEPENDENT:        2.983
REMARK UNBOUND:                -4.165
REMARK  10 active torsions:
REMARK  status: ('A' for Active; 'I' for Inactive)
REMARK    1  A    between atoms: C_7  and  N_8 
REMARK       I    between atoms: N_8  and  C_9 
REMARK    2  A    between atoms: C_20  and  N_8 
REMARK    3  A    between atoms: C_9  and  C_11 
REMARK    4  A    between atoms: C_14  and  C_15 
REMARK       I    between atoms: C_15  and  N_16 
REMARK    5  A    between atoms: C_18  and  N_19 
REMARK    6  A    between atoms: C_20  and  C_29 
REMARK    7  A    between atoms: C_20  and  C_21 
REMARK       I    between atoms: C_21  and  N_23 
REMARK    8  A    between atoms: N_23  and  C_24 
REMARK    9  A    between atoms: C_24  and  C_25 
REMARK   10  A    between atoms: C_25  and  C_26 
ROOT
ATOM      1  N   UNL d   1      27.263 -16.032  -0.925  0.00  0.00    -0.295 N 
ATOM      2  C   UNL d   1      26.814 -14.934   0.150  0.00  0.00     0.269 C 
ATOM      3  O   UNL d   1      25.610 -14.845   0.398  0.00  0.00    -0.266 OA
ENDROOT
BRANCH   1   4
ATOM      4  C   UNL d   1      28.684 -16.304  -1.398  0.00  0.00     0.045 C 
ATOM      5  C   UNL d   1      29.583 -15.401  -1.937  0.00  0.00    -0.035 C 
ATOM      6  C   UNL d   1      30.791 -15.684  -2.608  0.00  0.00     0.009 C 
ATOM      7  C   UNL d   1      29.316 -13.993  -1.801  0.00  0.00     0.050 C 
ATOM      8  C   UNL d   1      31.354 -16.918  -2.503  0.00  0.00     0.007 C 
ATOM      9  C   UNL d   1      30.681 -17.814  -1.721  0.00  0.00    -0.060 C 
ATOM     10  C   UNL d   1      31.342 -19.091  -1.323  0.00  0.00     0.048 C 
ATOM     11  C   UNL d   1      29.422 -17.437  -1.176  0.00  0.00     0.037 C 
ENDBRANCH   1   4
BRANCH   1  12
ATOM     12  C   UNL d   1      26.043 -16.651  -1.781  0.00  0.00     0.218 C 
BRANCH  12  13
ATOM     13  C   UNL d   1      24.660 -17.097  -1.071  0.00  0.00    -0.026 C 
ATOM     14  C   UNL d   1      24.519 -18.395  -0.511  0.00  0.00     0.013 C 
ATOM     15  C   UNL d   1      23.287 -18.951  -0.159  0.00  0.00     0.043 C 
ATOM     16  C   UNL d   1      22.143 -18.269  -0.483  0.00  0.00     0.116 C 
ATOM     17  F   UNL d   1      20.951 -18.873  -0.402  0.00  0.00    -0.206 F 
ATOM     18  C   UNL d   1      22.235 -16.950  -0.897  0.00  0.00     0.043 C 
ATOM     19  C   UNL d   1      23.495 -16.304  -1.021  0.00  0.00     0.013 C 
ENDBRANCH  12  13
BRANCH  12  20
ATOM     20  C   UNL d   1      25.541 -15.633  -2.875  0.00  0.00     0.245 C 
ATOM     21  O   UNL d   1      25.392 -15.943  -4.059  0.00  0.00    -0.271 OA
ATOM     22  N   UNL d   1      25.614 -14.292  -2.478  0.00  0.00    -0.359 N 
ATOM     23  H   UNL d   1      25.863 -14.060  -1.524  0.00  0.00     0.162 HD
BRANCH  22  24
ATOM     24  C   UNL d   1      25.842 -13.310  -3.513  0.00  0.00     0.123 C 
BRANCH  24  25
ATOM     25  C   UNL d   1      27.278 -13.292  -4.016  0.00  0.00     0.023 C 
BRANCH  25  26
ATOM     26  C   UNL d   1      27.429 -14.113  -5.308  0.00  0.00    -0.021 C 
ATOM     27  C   UNL d   1      28.103 -13.292  -6.408  0.00  0.00     0.009 C 
ATOM     28  C   UNL d   1      28.248 -15.371  -5.032  0.00  0.00     0.009 C 
ENDBRANCH  25  26
ENDBRANCH  24  25
ENDBRANCH  22  24
ENDBRANCH  12  20
ENDBRANCH   1  12
BRANCH   2  29
ATOM     29  C   UNL d   1      27.719 -13.929   0.903  0.00  0.00     0.115 C 
ATOM     30  S   UNL d   1      27.030 -12.484   1.642  0.00  0.00     0.019 SA
ATOM     31  N   UNL d   1      28.173 -12.316   2.883  0.00  0.00    -0.203 NA
ATOM     32  C   UNL d   1      29.162 -13.211   2.691  0.00  0.00     0.155 C 
ATOM     33  C   UNL d   1      28.991 -14.062   1.485  0.00  0.00     0.065 C 
BRANCH  32  34
ATOM     34  C   UNL d   1      30.150 -13.530   3.767  0.00  0.00     0.270 C 
ATOM     35  N   UNL d   1      30.568 -14.800   3.988  0.00  0.00    -0.365 N 
ATOM     36  H   UNL d   1      30.272 -15.577   3.408  0.00  0.00     0.159 HD
ATOM     37  H   UNL d   1      31.126 -14.975   4.817  0.00  0.00     0.159 HD
ATOM     38  O   UNL d   1      30.669 -12.623   4.478  0.00  0.00    -0.266 OA
ENDBRANCH  32  34
BRANCH  33  39
ATOM     39  N   UNL d   1      29.743 -15.196   1.329  0.00  0.00    -0.299 NA
ATOM     40  H   UNL d   1      30.440 -15.336   2.079  0.00  0.00     0.124 HD
ATOM     41  H   UNL d   1      29.236 -16.074   1.252  0.00  0.00     0.124 HD
ENDBRANCH  33  39
ENDBRANCH   2  29
TORSDOF 10
ENDMDL
MODEL 2
REMARK VINA RESULT:    -8.668      1.178      1.986
REMARK INTER + INTRA:         -16.395
REMARK INTER:                 -11.651
REMARK INTRA:                  -4.743
REMARK CONF_INDEPENDENT:        2.983
REMARK UNBOUND:                -4.743
REMARK  10 active torsions:
REMARK  status: ('A' for Active; 'I' for Inactive)
REMARK    1  A    between atoms: C_7  and  N_8 
REMARK       I    between atoms: N_8  and  C_9 
REMARK    2  A    between atoms: C_20  and  N_8 
REMARK    3  A    between atoms: C_9  and  C_11 
REMARK    4  A    between atoms: C_14  and  C_15 
REMARK       I    between atoms: C_15  and  N_16 
REMARK    5  A    between atoms: C_18  and  N_19 
REMARK    6  A    between atoms: C_20  and  C_29 
REMARK    7  A    between atoms: C_20  and  C_21 
REMARK       I    between atoms: C_21  and  N_23 
REMARK    8  A    between atoms: N_23  and  C_24 
REMARK    9  A    between atoms: C_24  and  C_25 
REMARK   10  A    between atoms: C_25  and  C_26 
ROOT
ATOM      1  N   UNL d   1      27.520 -15.836  -1.856  0.00  0.00    -0.295 N 
ATOM      2  C   UNL d   1      27.454 -14.905  -0.556  0.00  0.00     0.269 C 
ATOM      3  O   UNL d   1      26.382 -14.854   0.049  0.00  0.00    -0.266 OA
ENDROOT
BRANCH   1   4
ATOM      4  C   UNL d   1      28.726 -16.037  -2.763  0.00  0.00     0.045 C 
ATOM      5  C   UNL d   1      29.901 -16.705  -2.470  0.00  0.00    -0.035 C 
ATOM      6  C   UNL d   1      31.111 -16.680  -3.196  0.00  0.00     0.009 C 
ATOM      7  C   UNL d   1      29.940 -17.564  -1.315  0.00  0.00     0.050 C 
ATOM      8  C   UNL d   1      31.126 -16.218  -4.475  0.00  0.00     0.007 C 
ATOM      9  C   UNL d   1      29.922 -15.808  -4.974  0.00  0.00    -0.060 C 
ATOM     10  C   UNL d   1      29.778 -15.544  -6.435  0.00  0.00     0.048 C 
ATOM     11  C   UNL d   1      28.792 -15.793  -4.109  0.00  0.00     0.037 C 
ENDBRANCH   1   4
BRANCH   1  12
ATOM     12  C   UNL d   1      26.077 -16.325  -2.388  0.00  0.00     0.218 C 
BRANCH  12  13
ATOM     13  C   UNL d   1      24.913 -16.780  -1.362  0.00  0.00    -0.026 C 
ATOM     14  C   UNL d   1      25.089 -17.913  -0.523  0.00  0.00     0.013 C 
ATOM     15  C   UNL d   1      24.041 -18.538   0.157  0.00  0.00     0.043 C 
ATOM     16  C   UNL d   1      22.758 -18.123  -0.093  0.00  0.00     0.116 C 
ATOM     17  F   UNL d   1      21.718 -18.853   0.329  0.00  0.00    -0.206 F 
ATOM     18  C   UNL d   1      22.551 -16.942  -0.786  0.00  0.00     0.043 C 
ATOM     19  C   UNL d   1      23.643 -16.172  -1.271  0.00  0.00     0.013 C 
ENDBRANCH  12  13
BRANCH  12  20
ATOM     20  C   UNL d   1      25.361 -15.191  -3.217  0.00  0.00     0.245 C 
ATOM     21  O   UNL d   1      25.155 -15.278  -4.430  0.00  0.00    -0.271 OA
ATOM     22  N   UNL d   1      25.297 -13.958  -2.555  0.00  0.00    -0.359 N 
ATOM     23  H   UNL d   1      25.593 -13.887  -1.589  0.00  0.00     0.162 HD
BRANCH  22  24
ATOM     24  C   UNL d   1      25.314 -12.769  -3.375  0.00  0.00     0.123 C 
BRANCH  24  25
ATOM     25  C   UNL d   1      26.471 -11.834  -3.053  0.00  0.00     0.023 C 
BRANCH  25  26
ATOM     26  C   UNL d   1      27.643 -12.038  -4.027  0.00  0.00    -0.021 C 
ATOM     27  C   UNL d   1      28.876 -12.578  -3.302  0.00  0.00     0.009 C 
ATOM     28  C   UNL d   1      27.236 -13.005  -5.136  0.00  0.00     0.009 C 
ENDBRANCH  25  26
ENDBRANCH  24  25
ENDBRANCH  22  24
ENDBRANCH  12  20
ENDBRANCH   1  12
BRANCH   2  29
ATOM     29  C   UNL d   1      28.583 -14.020   0.026  0.00  0.00     0.115 C 
ATOM     30  S   UNL d   1      28.317 -12.299   0.304  0.00  0.00     0.019 SA
ATOM     31  N   UNL d   1      29.410 -12.121   1.588  0.00  0.00    -0.203 NA
ATOM     32  C   UNL d   1      30.101 -13.268   1.737  0.00  0.00     0.155 C 
ATOM     33  C   UNL d   1      29.736 -14.332   0.765  0.00  0.00     0.065 C 
BRANCH  32  34
ATOM     34  C   UNL d   1      30.910 -13.542   2.964  0.00  0.00     0.270 C 
ATOM     35  N   UNL d   1      30.903 -14.761   3.556  0.00  0.00    -0.365 N 
ATOM     36  H   UNL d   1      30.393 -15.549   3.171  0.00  0.00     0.159 HD
ATOM     37  H   UNL d   1      31.355 -14.849   4.460  0.00  0.00     0.159 HD
ATOM     38  O   UNL d   1      31.668 -12.664   3.466  0.00  0.00    -0.266 OA
ENDBRANCH  32  34
BRANCH  33  39
ATOM     39  N   UNL d   1      30.130 -15.626   0.980  0.00  0.00    -0.299 NA
ATOM     40  H   UNL d   1      30.694 -15.749   1.837  0.00  0.00     0.124 HD
ATOM     41  H   UNL d   1      29.394 -16.326   1.027  0.00  0.00     0.124 HD
ENDBRANCH  33  39
ENDBRANCH   2  29
TORSDOF 10
ENDMDL
MODEL 3
REMARK VINA RESULT:    -8.646      1.866      2.540
REMARK INTER + INTRA:         -15.848
REMARK INTER:                 -11.629
REMARK INTRA:                  -4.219
REMARK CONF_INDEPENDENT:        2.983
REMARK UNBOUND:                -4.219
REMARK  10 active torsions:
REMARK  status: ('A' for Active; 'I' for Inactive)
REMARK    1  A    between atoms: C_7  and  N_8 
REMARK       I    between atoms: N_8  and  C_9 
REMARK    2  A    between atoms: C_20  and  N_8 
REMARK    3  A    between atoms: C_9  and  C_11 
REMARK    4  A    between atoms: C_14  and  C_15 
REMARK       I    between atoms: C_15  and  N_16 
REMARK    5  A    between atoms: C_18  and  N_19 
REMARK    6  A    between atoms: C_20  and  C_29 
REMARK    7  A    between atoms: C_20  and  C_21 
REMARK       I    between atoms: C_21  and  N_23 
REMARK    8  A    between atoms: N_23  and  C_24 
REMARK    9  A    between atoms: C_24  and  C_25 
REMARK   10  A    between atoms: C_25  and  C_26 
ROOT
ATOM      1  N   UNL d   1      27.477 -15.689  -2.577  0.00  0.00    -0.295 N 
ATOM      2  C   UNL d   1      27.834 -15.024  -1.166  0.00  0.00     0.269 C 
ATOM      3  O   UNL d   1      26.942 -14.988  -0.316  0.00  0.00    -0.266 OA
ENDROOT
BRANCH   1   4
ATOM      4  C   UNL d   1      28.409 -15.826  -3.773  0.00  0.00     0.045 C 
ATOM      5  C   UNL d   1      28.455 -15.031  -4.904  0.00  0.00    -0.035 C 
ATOM      6  C   UNL d   1      29.127 -15.295  -6.116  0.00  0.00     0.009 C 
ATOM      7  C   UNL d   1      27.777 -13.761  -4.886  0.00  0.00     0.050 C 
ATOM      8  C   UNL d   1      30.087 -16.256  -6.166  0.00  0.00     0.007 C 
ATOM      9  C   UNL d   1      30.338 -16.908  -4.991  0.00  0.00    -0.060 C 
ATOM     10  C   UNL d   1      31.543 -17.778  -4.870  0.00  0.00     0.048 C 
ATOM     11  C   UNL d   1      29.525 -16.617  -3.860  0.00  0.00     0.037 C 
ENDBRANCH   1   4
BRANCH   1  12
ATOM     12  C   UNL d   1      25.898 -15.927  -2.811  0.00  0.00     0.218 C 
BRANCH  12  13
ATOM     13  C   UNL d   1      24.948 -16.486  -1.628  0.00  0.00    -0.026 C 
ATOM     14  C   UNL d   1      25.315 -17.642  -0.888  0.00  0.00     0.013 C 
ATOM     15  C   UNL d   1      24.428 -18.349  -0.075  0.00  0.00     0.043 C 
ATOM     16  C   UNL d   1      23.104 -17.993  -0.084  0.00  0.00     0.116 C 
ATOM     17  F   UNL d   1      22.185 -18.794   0.469  0.00  0.00    -0.206 F 
ATOM     18  C   UNL d   1      22.728 -16.796  -0.672  0.00  0.00     0.043 C 
ATOM     19  C   UNL d   1      23.686 -15.950  -1.295  0.00  0.00     0.013 C 
ENDBRANCH  12  13
BRANCH  12  20
ATOM     20  C   UNL d   1      25.173 -14.585  -3.212  0.00  0.00     0.245 C 
ATOM     21  O   UNL d   1      24.553 -14.450  -4.269  0.00  0.00    -0.271 OA
ATOM     22  N   UNL d   1      25.576 -13.476  -2.457  0.00  0.00    -0.359 N 
ATOM     23  H   UNL d   1      26.191 -13.601  -1.662  0.00  0.00     0.162 HD
BRANCH  22  24
ATOM     24  C   UNL d   1      25.539 -12.188  -3.109  0.00  0.00     0.123 C 
BRANCH  24  25
ATOM     25  C   UNL d   1      26.733 -11.308  -2.768  0.00  0.00     0.023 C 
BRANCH  25  26
ATOM     26  C   UNL d   1      27.067 -10.347  -3.921  0.00  0.00    -0.021 C 
ATOM     27  C   UNL d   1      28.522 -10.503  -4.365  0.00  0.00     0.009 C 
ATOM     28  C   UNL d   1      26.138 -10.609  -5.103  0.00  0.00     0.009 C 
ENDBRANCH  25  26
ENDBRANCH  24  25
ENDBRANCH  22  24
ENDBRANCH  12  20
ENDBRANCH   1  12
BRANCH   2  29
ATOM     29  C   UNL d   1      29.176 -14.379  -0.742  0.00  0.00     0.115 C 
ATOM     30  S   UNL d   1      29.450 -12.652  -0.971  0.00  0.00     0.019 SA
ATOM     31  N   UNL d   1      30.535 -12.438   0.316  0.00  0.00    -0.203 NA
ATOM     32  C   UNL d   1      30.838 -13.644   0.836  0.00  0.00     0.155 C 
ATOM     33  C   UNL d   1      30.172 -14.788   0.161  0.00  0.00     0.065 C 
BRANCH  32  34
ATOM     34  C   UNL d   1      31.514 -13.776   2.164  0.00  0.00     0.270 C 
ATOM     35  N   UNL d   1      31.137 -14.724   3.056  0.00  0.00    -0.365 N 
ATOM     36  H   UNL d   1      30.422 -15.411   2.848  0.00  0.00     0.159 HD
ATOM     37  H   UNL d   1      31.532 -14.676   3.989  0.00  0.00     0.159 HD
ATOM     38  O   UNL d   1      32.492 -13.043   2.483  0.00  0.00    -0.266 OA
ENDBRANCH  32  34
BRANCH  33  39
ATOM     39  N   UNL d   1      30.147 -16.020   0.757  0.00  0.00    -0.299 NA
ATOM     40  H   UNL d   1      30.780 -16.099   1.569  0.00  0.00     0.124 HD
ATOM     41  H   UNL d   1      29.241 -16.356   1.076  0.00  0.00     0.124 HD
ENDBRANCH  33  39
ENDBRANCH   2  29
TORSDOF 10
ENDMDL
MODEL 4
REMARK VINA RESULT:    -8.364      2.553      5.531
REMARK INTER + INTRA:         -15.874
REMARK INTER:                 -11.347
REMARK INTRA:                  -4.527
REMARK CONF_INDEPENDENT:        2.983
REMARK UNBOUND:                -4.527
REMARK  10 active torsions:
REMARK  status: ('A' for Active; 'I' for Inactive)
REMARK    1  A    between atoms: C_7  and  N_8 
REMARK       I    between atoms: N_8  and  C_9 
REMARK    2  A    between atoms: C_20  and  N_8 
REMARK    3  A    between atoms: C_9  and  C_11 
REMARK    4  A    between atoms: C_14  and  C_15 
REMARK       I    between atoms: C_15  and  N_16 
REMARK    5  A    between atoms: C_18  and  N_19 
REMARK    6  A    between atoms: C_20  and  C_29 
REMARK    7  A    between atoms: C_20  and  C_21 
REMARK       I    between atoms: C_21  and  N_23 
REMARK    8  A    between atoms: N_23  and  C_24 
REMARK    9  A    between atoms: C_24  and  C_25 
REMARK   10  A    between atoms: C_25  and  C_26 
ROOT
ATOM      1  N   UNL d   1      25.980 -14.899  -0.348  0.00  0.00    -0.295 N 
ATOM      2  C   UNL d   1      25.592 -14.480  -1.843  0.00  0.00     0.269 C 
ATOM      3  O   UNL d   1      25.010 -15.319  -2.533  0.00  0.00    -0.266 OA
ENDROOT
BRANCH   1   4
ATOM      4  C   UNL d   1      26.713 -14.038   0.670  0.00  0.00     0.045 C 
ATOM      5  C   UNL d   1      27.970 -14.249   1.208  0.00  0.00    -0.035 C 
ATOM      6  C   UNL d   1      28.548 -13.612   2.325  0.00  0.00     0.009 C 
ATOM      7  C   UNL d   1      28.844 -15.201   0.572  0.00  0.00     0.050 C 
ATOM      8  C   UNL d   1      28.009 -12.459   2.805  0.00  0.00     0.007 C 
ATOM      9  C   UNL d   1      26.914 -11.991   2.134  0.00  0.00    -0.060 C 
ATOM     10  C   UNL d   1      26.416 -10.610   2.403  0.00  0.00     0.048 C 
ATOM     11  C   UNL d   1      26.369 -12.777   1.080  0.00  0.00     0.037 C 
ENDBRANCH   1   4
BRANCH   1  12
ATOM     12  C   UNL d   1      25.848 -16.481  -0.054  0.00  0.00     0.218 C 
BRANCH  12  13
ATOM     13  C   UNL d   1      24.530 -17.310  -0.491  0.00  0.00    -0.026 C 
ATOM     14  C   UNL d   1      23.320 -16.635  -0.805  0.00  0.00     0.013 C 
ATOM     15  C   UNL d   1      22.083 -17.276  -0.894  0.00  0.00     0.043 C 
ATOM     16  C   UNL d   1      22.001 -18.598  -0.539  0.00  0.00     0.116 C 
ATOM     17  F   UNL d   1      20.808 -19.176  -0.360  0.00  0.00    -0.206 F 
ATOM     18  C   UNL d   1      23.167 -19.325  -0.366  0.00  0.00     0.043 C 
ATOM     19  C   UNL d   1      24.443 -18.717  -0.518  0.00  0.00     0.013 C 
ENDBRANCH  12  13
BRANCH  12  20
ATOM     20  C   UNL d   1      26.999 -17.290  -0.765  0.00  0.00     0.245 C 
ATOM     21  O   UNL d   1      27.612 -18.207  -0.213  0.00  0.00    -0.271 OA
ATOM     22  N   UNL d   1      27.500 -16.670  -1.918  0.00  0.00    -0.359 N 
ATOM     23  H   UNL d   1      27.049 -15.840  -2.282  0.00  0.00     0.162 HD
BRANCH  22  24
ATOM     24  C   UNL d   1      28.889 -16.904  -2.240  0.00  0.00     0.123 C 
BRANCH  24  25
ATOM     25  C   UNL d   1      29.283 -16.379  -3.613  0.00  0.00     0.023 C 
BRANCH  25  26
ATOM     26  C   UNL d   1      28.579 -15.048  -3.926  0.00  0.00    -0.021 C 
ATOM     27  C   UNL d   1      29.593 -13.920  -4.121  0.00  0.00     0.009 C 
ATOM     28  C   UNL d   1      27.726 -15.194  -5.183  0.00  0.00     0.009 C 
ENDBRANCH  25  26
ENDBRANCH  24  25
ENDBRANCH  22  24
ENDBRANCH  12  20
ENDBRANCH   1  12
BRANCH   2  29
ATOM     29  C   UNL d   1      25.894 -13.138  -2.553  0.00  0.00     0.115 C 
ATOM     30  S   UNL d   1      27.259 -12.144  -2.043  0.00  0.00     0.019 SA
ATOM     31  N   UNL d   1      27.557 -11.410  -3.544  0.00  0.00    -0.203 NA
ATOM     32  C   UNL d   1      26.577 -11.755  -4.401  0.00  0.00     0.155 C 
ATOM     33  C   UNL d   1      25.537 -12.641  -3.818  0.00  0.00     0.065 C 
BRANCH  32  34
ATOM     34  C   UNL d   1      26.710 -11.532  -5.874  0.00  0.00     0.270 C 
ATOM     35  N   UNL d   1      25.667 -11.090  -6.618  0.00  0.00    -0.365 N 
ATOM     36  H   UNL d   1      24.773 -10.846  -6.208  0.00  0.00     0.159 HD
ATOM     37  H   UNL d   1      25.774 -11.093  -7.627  0.00  0.00     0.159 HD
ATOM     38  O   UNL d   1      27.812 -11.699  -6.470  0.00  0.00    -0.266 OA
ENDBRANCH  32  34
BRANCH  33  39
ATOM     39  N   UNL d   1      24.660 -13.305  -4.634  0.00  0.00    -0.299 NA
ATOM     40  H   UNL d   1      24.172 -14.087  -4.167  0.00  0.00     0.124 HD
ATOM     41  H   UNL d   1      23.934 -12.747  -5.076  0.00  0.00     0.124 HD
ENDBRANCH  33  39
ENDBRANCH   2  29
TORSDOF 10
ENDMDL
MODEL 5
REMARK VINA RESULT:    -8.346      2.188      3.638
REMARK INTER + INTRA:         -15.702
REMARK INTER:                 -11.329
REMARK INTRA:                  -4.373
REMARK CONF_INDEPENDENT:        2.983
REMARK UNBOUND:                -4.373
REMARK  10 active torsions:
REMARK  status: ('A' for Active; 'I' for Inactive)
REMARK    1  A    between atoms: C_7  and  N_8 
REMARK       I    between atoms: N_8  and  C_9 
REMARK    2  A    between atoms: C_20  and  N_8 
REMARK    3  A    between atoms: C_9  and  C_11 
REMARK    4  A    between atoms: C_14  and  C_15 
REMARK       I    between atoms: C_15  and  N_16 
REMARK    5  A    between atoms: C_18  and  N_19 
REMARK    6  A    between atoms: C_20  and  C_29 
REMARK    7  A    between atoms: C_20  and  C_21 
REMARK       I    between atoms: C_21  and  N_23 
REMARK    8  A    between atoms: N_23  and  C_24 
REMARK    9  A    between atoms: C_24  and  C_25 
REMARK   10  A    between atoms: C_25  and  C_26 
ROOT
ATOM      1  N   UNL d   1      28.233 -15.507  -1.163  0.00  0.00    -0.295 N 
ATOM      2  C   UNL d   1      29.708 -15.856  -1.676  0.00  0.00     0.269 C 
ATOM      3  O   UNL d   1      29.804 -16.556  -2.686  0.00  0.00    -0.266 OA
ENDROOT
BRANCH   1   4
ATOM      4  C   UNL d   1      27.876 -14.679   0.064  0.00  0.00     0.045 C 
ATOM      5  C   UNL d   1      27.098 -13.536   0.115  0.00  0.00    -0.035 C 
ATOM      6  C   UNL d   1      26.972 -12.627   1.186  0.00  0.00     0.009 C 
ATOM      7  C   UNL d   1      26.280 -13.203  -1.022  0.00  0.00     0.050 C 
ATOM      8  C   UNL d   1      27.386 -12.983   2.432  0.00  0.00     0.007 C 
ATOM      9  C   UNL d   1      27.903 -14.242   2.550  0.00  0.00    -0.060 C 
ATOM     10  C   UNL d   1      28.130 -14.825   3.905  0.00  0.00     0.048 C 
ATOM     11  C   UNL d   1      28.065 -15.028   1.375  0.00  0.00     0.037 C 
ENDBRANCH   1   4
BRANCH   1  12
ATOM     12  C   UNL d   1      27.071 -16.392  -1.849  0.00  0.00     0.218 C 
BRANCH  12  13
ATOM     13  C   UNL d   1      25.703 -16.740  -1.061  0.00  0.00    -0.026 C 
ATOM     14  C   UNL d   1      25.577 -17.949  -0.326  0.00  0.00     0.013 C 
ATOM     15  C   UNL d   1      24.355 -18.454   0.121  0.00  0.00     0.043 C 
ATOM     16  C   UNL d   1      23.202 -17.826  -0.273  0.00  0.00     0.116 C 
ATOM     17  F   UNL d   1      22.014 -18.416  -0.088  0.00  0.00    -0.206 F 
ATOM     18  C   UNL d   1      23.280 -16.576  -0.864  0.00  0.00     0.043 C 
ATOM     19  C   UNL d   1      24.535 -15.950  -1.098  0.00  0.00     0.013 C 
ENDBRANCH  12  13
BRANCH  12  20
ATOM     20  C   UNL d   1      26.531 -15.704  -3.161  0.00  0.00     0.245 C 
ATOM     21  O   UNL d   1      25.420 -15.950  -3.637  0.00  0.00    -0.271 OA
ATOM     22  N   UNL d   1      27.525 -15.074  -3.921  0.00  0.00    -0.359 N 
ATOM     23  H   UNL d   1      28.467 -14.996  -3.558  0.00  0.00     0.162 HD
BRANCH  22  24
ATOM     24  C   UNL d   1      27.328 -15.025  -5.352  0.00  0.00     0.123 C 
BRANCH  24  25
ATOM     25  C   UNL d   1      27.607 -13.654  -5.950  0.00  0.00     0.023 C 
BRANCH  25  26
ATOM     26  C   UNL d   1      26.881 -12.545  -5.170  0.00  0.00    -0.021 C 
ATOM     27  C   UNL d   1      25.530 -13.033  -4.645  0.00  0.00     0.009 C 
ATOM     28  C   UNL d   1      27.746 -12.078  -4.003  0.00  0.00     0.009 C 
ENDBRANCH  25  26
ENDBRANCH  24  25
ENDBRANCH  22  24
ENDBRANCH  12  20
ENDBRANCH   1  12
BRANCH   2  29
ATOM     29  C   UNL d   1      31.052 -15.444  -1.029  0.00  0.00     0.115 C 
ATOM     30  S   UNL d   1      31.857 -13.951  -1.512  0.00  0.00     0.019 SA
ATOM     31  N   UNL d   1      32.649 -13.653  -0.041  0.00  0.00    -0.203 NA
ATOM     32  C   UNL d   1      32.469 -14.711   0.774  0.00  0.00     0.155 C 
ATOM     33  C   UNL d   1      31.665 -15.811   0.182  0.00  0.00     0.065 C 
BRANCH  32  34
ATOM     34  C   UNL d   1      32.770 -14.632   2.237  0.00  0.00     0.270 C 
ATOM     35  N   UNL d   1      31.958 -15.209   3.156  0.00  0.00    -0.365 N 
ATOM     36  H   UNL d   1      31.145 -15.755   2.896  0.00  0.00     0.159 HD
ATOM     37  H   UNL d   1      32.134 -15.004   4.134  0.00  0.00     0.159 HD
ATOM     38  O   UNL d   1      33.817 -14.070   2.667  0.00  0.00    -0.266 OA
ENDBRANCH  32  34
BRANCH  33  39
ATOM     39  N   UNL d   1      31.154 -16.799   0.980  0.00  0.00    -0.299 NA
ATOM     40  H   UNL d   1      30.420 -16.469   1.628  0.00  0.00     0.124 HD
ATOM     41  H   UNL d   1      30.765 -17.613   0.510  0.00  0.00     0.124 HD
ENDBRANCH  33  39
ENDBRANCH   2  29
TORSDOF 10
ENDMDL
MODEL 6
REMARK VINA RESULT:    -8.032      2.296      3.874
REMARK INTER + INTRA:         -15.430
REMARK INTER:                 -11.015
REMARK INTRA:                  -4.416
REMARK CONF_INDEPENDENT:        2.983
REMARK UNBOUND:                -4.416
REMARK  10 active torsions:
REMARK  status: ('A' for Active; 'I' for Inactive)
REMARK    1  A    between atoms: C_7  and  N_8 
REMARK       I    between atoms: N_8  and  C_9 
REMARK    2  A    between atoms: C_20  and  N_8 
REMARK    3  A    between atoms: C_9  and  C_11 
REMARK    4  A    between atoms: C_14  and  C_15 
REMARK       I    between atoms: C_15  and  N_16 
REMARK    5  A    between atoms: C_18  and  N_19 
REMARK    6  A    between atoms: C_20  and  C_29 
REMARK    7  A    between atoms: C_20  and  C_21 
REMARK       I    between atoms: C_21  and  N_23 
REMARK    8  A    between atoms: N_23  and  C_24 
REMARK    9  A    between atoms: C_24  and  C_25 
REMARK   10  A    between atoms: C_25  and  C_26 
ROOT
ATOM      1  N   UNL d   1      27.688 -15.298  -1.672  0.00  0.00    -0.295 N 
ATOM      2  C   UNL d   1      29.095 -15.982  -2.010  0.00  0.00     0.269 C 
ATOM      3  O   UNL d   1      29.104 -16.858  -2.876  0.00  0.00    -0.266 OA
ENDROOT
BRANCH   1   4
ATOM      4  C   UNL d   1      27.436 -14.214  -0.633  0.00  0.00     0.045 C 
ATOM      5  C   UNL d   1      27.275 -14.374   0.732  0.00  0.00    -0.035 C 
ATOM      6  C   UNL d   1      26.793 -13.426   1.659  0.00  0.00     0.009 C 
ATOM      7  C   UNL d   1      27.654 -15.625   1.334  0.00  0.00     0.050 C 
ATOM      8  C   UNL d   1      26.735 -12.110   1.319  0.00  0.00     0.007 C 
ATOM      9  C   UNL d   1      27.174 -11.801   0.062  0.00  0.00    -0.060 C 
ATOM     10  C   UNL d   1      27.408 -10.376  -0.311  0.00  0.00     0.048 C 
ATOM     11  C   UNL d   1      27.545 -12.861  -0.813  0.00  0.00     0.037 C 
ENDBRANCH   1   4
BRANCH   1  12
ATOM     12  C   UNL d   1      26.414 -16.080  -2.280  0.00  0.00     0.218 C 
BRANCH  12  13
ATOM     13  C   UNL d   1      25.250 -16.664  -1.321  0.00  0.00    -0.026 C 
ATOM     14  C   UNL d   1      25.477 -17.818  -0.525  0.00  0.00     0.013 C 
ATOM     15  C   UNL d   1      24.453 -18.546   0.085  0.00  0.00     0.043 C 
ATOM     16  C   UNL d   1      23.153 -18.213  -0.197  0.00  0.00     0.116 C 
ATOM     17  F   UNL d   1      22.155 -19.034   0.151  0.00  0.00    -0.206 F 
ATOM     18  C   UNL d   1      22.886 -17.019  -0.848  0.00  0.00     0.043 C 
ATOM     19  C   UNL d   1      23.937 -16.152  -1.255  0.00  0.00     0.013 C 
ENDBRANCH  12  13
BRANCH  12  20
ATOM     20  C   UNL d   1      25.599 -15.160  -3.268  0.00  0.00     0.245 C 
ATOM     21  O   UNL d   1      25.529 -15.378  -4.480  0.00  0.00    -0.271 OA
ATOM     22  N   UNL d   1      25.263 -13.910  -2.732  0.00  0.00    -0.359 N 
ATOM     23  H   UNL d   1      25.448 -13.712  -1.756  0.00  0.00     0.162 HD
BRANCH  22  24
ATOM     24  C   UNL d   1      25.156 -12.805  -3.656  0.00  0.00     0.123 C 
BRANCH  24  25
ATOM     25  C   UNL d   1      26.333 -11.843  -3.580  0.00  0.00     0.023 C 
BRANCH  25  26
ATOM     26  C   UNL d   1      27.109 -11.803  -4.907  0.00  0.00    -0.021 C 
ATOM     27  C   UNL d   1      27.790 -13.142  -5.190  0.00  0.00     0.009 C 
ATOM     28  C   UNL d   1      26.163 -11.455  -6.053  0.00  0.00     0.009 C 
ENDBRANCH  25  26
ENDBRANCH  24  25
ENDBRANCH  22  24
ENDBRANCH  12  20
ENDBRANCH   1  12
BRANCH   2  29
ATOM     29  C   UNL d   1      30.464 -15.696  -1.346  0.00  0.00     0.115 C 
ATOM     30  S   UNL d   1      31.144 -14.069  -1.364  0.00  0.00     0.019 SA
ATOM     31  N   UNL d   1      32.038 -14.199   0.073  0.00  0.00    -0.203 NA
ATOM     32  C   UNL d   1      31.983 -15.473   0.508  0.00  0.00     0.155 C 
ATOM     33  C   UNL d   1      31.193 -16.384  -0.361  0.00  0.00     0.065 C 
BRANCH  32  34
ATOM     34  C   UNL d   1      32.400 -15.846   1.895  0.00  0.00     0.270 C 
ATOM     35  N   UNL d   1      32.525 -14.912   2.869  0.00  0.00    -0.365 N 
ATOM     36  H   UNL d   1      32.297 -13.936   2.718  0.00  0.00     0.159 HD
ATOM     37  H   UNL d   1      32.945 -15.199   3.746  0.00  0.00     0.159 HD
ATOM     38  O   UNL d   1      32.602 -17.049   2.223  0.00  0.00    -0.266 OA
ENDBRANCH  32  34
BRANCH  33  39
ATOM     39  N   UNL d   1      30.805 -17.613   0.101  0.00  0.00    -0.299 NA
ATOM     40  H   UNL d   1      31.149 -17.824   1.051  0.00  0.00     0.124 HD
ATOM     41  H   UNL d   1      29.805 -17.800   0.118  0.00  0.00     0.124 HD
ENDBRANCH  33  39
ENDBRANCH   2  29
TORSDOF 10
ENDMDL
MODEL 7
REMARK VINA RESULT:    -7.747      3.077      6.671
REMARK INTER + INTRA:         -15.502
REMARK INTER:                 -10.730
REMARK INTRA:                  -4.772
REMARK CONF_INDEPENDENT:        2.983
REMARK UNBOUND:                -4.772
REMARK  10 active torsions:
REMARK  status: ('A' for Active; 'I' for Inactive)
REMARK    1  A    between atoms: C_7  and  N_8 
REMARK       I    between atoms: N_8  and  C_9 
REMARK    2  A    between atoms: C_20  and  N_8 
REMARK    3  A    between atoms: C_9  and  C_11 
REMARK    4  A    between atoms: C_14  and  C_15 
REMARK       I    between atoms: C_15  and  N_16 
REMARK    5  A    between atoms: C_18  and  N_19 
REMARK    6  A    between atoms: C_20  and  C_29 
REMARK    7  A    between atoms: C_20  and  C_21 
REMARK       I    between atoms: C_21  and  N_23 
REMARK    8  A    between atoms: N_23  and  C_24 
REMARK    9  A    between atoms: C_24  and  C_25 
REMARK   10  A    between atoms: C_25  and  C_26 
ROOT
ATOM      1  N   UNL d   1      26.995 -14.507  -0.494  0.00  0.00    -0.295 N 
ATOM      2  C   UNL d   1      26.592 -15.885   0.214  0.00  0.00     0.269 C 
ATOM      3  O   UNL d   1      27.037 -16.091   1.344  0.00  0.00    -0.266 OA
ENDROOT
BRANCH   1   4
ATOM      4  C   UNL d   1      26.579 -14.051  -1.885  0.00  0.00     0.045 C 
ATOM      5  C   UNL d   1      26.465 -12.753  -2.350  0.00  0.00    -0.035 C 
ATOM      6  C   UNL d   1      25.843 -12.314  -3.538  0.00  0.00     0.009 C 
ATOM      7  C   UNL d   1      27.058 -11.688  -1.584  0.00  0.00     0.050 C 
ATOM      8  C   UNL d   1      25.560 -13.205  -4.526  0.00  0.00     0.007 C 
ATOM      9  C   UNL d   1      25.923 -14.500  -4.281  0.00  0.00    -0.060 C 
ATOM     10  C   UNL d   1      25.908 -15.495  -5.393  0.00  0.00     0.048 C 
ATOM     11  C   UNL d   1      26.456 -14.831  -3.004  0.00  0.00     0.037 C 
ENDBRANCH   1   4
BRANCH   1  12
ATOM     12  C   UNL d   1      28.199 -13.720   0.238  0.00  0.00     0.218 C 
BRANCH  12  13
ATOM     13  C   UNL d   1      28.233 -13.543   1.845  0.00  0.00    -0.026 C 
ATOM     14  C   UNL d   1      29.443 -13.719   2.568  0.00  0.00     0.013 C 
ATOM     15  C   UNL d   1      29.495 -13.880   3.954  0.00  0.00     0.043 C 
ATOM     16  C   UNL d   1      28.317 -14.001   4.645  0.00  0.00     0.116 C 
ATOM     17  F   UNL d   1      28.321 -14.412   5.919  0.00  0.00    -0.206 F 
ATOM     18  C   UNL d   1      27.125 -13.697   4.009  0.00  0.00     0.043 C 
ATOM     19  C   UNL d   1      27.100 -13.292   2.647  0.00  0.00     0.013 C 
ENDBRANCH  12  13
BRANCH  12  20
ATOM     20  C   UNL d   1      29.587 -14.409  -0.050  0.00  0.00     0.245 C 
ATOM     21  O   UNL d   1      30.334 -14.054  -0.964  0.00  0.00    -0.271 OA
ATOM     22  N   UNL d   1      29.743 -15.653   0.575  0.00  0.00    -0.359 N 
ATOM     23  H   UNL d   1      29.046 -15.979   1.233  0.00  0.00     0.162 HD
BRANCH  22  24
ATOM     24  C   UNL d   1      30.573 -16.627  -0.095  0.00  0.00     0.123 C 
BRANCH  24  25
ATOM     25  C   UNL d   1      29.808 -17.483  -1.093  0.00  0.00     0.023 C 
BRANCH  25  26
ATOM     26  C   UNL d   1      30.294 -17.237  -2.531  0.00  0.00    -0.021 C 
ATOM     27  C   UNL d   1      29.315 -16.351  -3.301  0.00  0.00     0.009 C 
ATOM     28  C   UNL d   1      31.672 -16.581  -2.509  0.00  0.00     0.009 C 
ENDBRANCH  25  26
ENDBRANCH  24  25
ENDBRANCH  22  24
ENDBRANCH  12  20
ENDBRANCH   1  12
BRANCH   2  29
ATOM     29  C   UNL d   1      25.723 -17.025  -0.372  0.00  0.00     0.115 C 
ATOM     30  S   UNL d   1      26.075 -18.708   0.019  0.00  0.00     0.019 SA
ATOM     31  N   UNL d   1      24.493 -19.297  -0.141  0.00  0.00    -0.203 NA
ATOM     32  C   UNL d   1      23.709 -18.317  -0.631  0.00  0.00     0.155 C 
ATOM     33  C   UNL d   1      24.420 -17.039  -0.897  0.00  0.00     0.065 C 
BRANCH  32  34
ATOM     34  C   UNL d   1      22.217 -18.414  -0.594  0.00  0.00     0.270 C 
ATOM     35  N   UNL d   1      21.594 -19.529  -0.142  0.00  0.00    -0.365 N 
ATOM     36  H   UNL d   1      22.103 -20.321   0.234  0.00  0.00     0.159 HD
ATOM     37  H   UNL d   1      20.590 -19.593  -0.271  0.00  0.00     0.159 HD
ATOM     38  O   UNL d   1      21.483 -17.444  -0.934  0.00  0.00    -0.266 OA
ENDBRANCH  32  34
BRANCH  33  39
ATOM     39  N   UNL d   1      23.712 -15.887  -1.106  0.00  0.00    -0.299 NA
ATOM     40  H   UNL d   1      23.591 -15.652  -2.105  0.00  0.00     0.124 HD
ATOM     41  H   UNL d   1      22.783 -15.838  -0.694  0.00  0.00     0.124 HD
ENDBRANCH  33  39
ENDBRANCH   2  29
TORSDOF 10
ENDMDL
MODEL 8
REMARK VINA RESULT:    -7.321      2.660      5.703
REMARK INTER + INTRA:         -15.523
REMARK INTER:                 -10.304
REMARK INTRA:                  -5.219
REMARK CONF_INDEPENDENT:        2.983
REMARK UNBOUND:                -5.219
REMARK  10 active torsions:
REMARK  status: ('A' for Active; 'I' for Inactive)
REMARK    1  A    between atoms: C_7  and  N_8 
REMARK       I    between atoms: N_8  and  C_9 
REMARK    2  A    between atoms: C_20  and  N_8 
REMARK    3  A    between atoms: C_9  and  C_11 
REMARK    4  A    between atoms: C_14  and  C_15 
REMARK       I    between atoms: C_15  and  N_16 
REMARK    5  A    between atoms: C_18  and  N_19 
REMARK    6  A    between atoms: C_20  and  C_29 
REMARK    7  A    between atoms: C_20  and  C_21 
REMARK       I    between atoms: C_21  and  N_23 
REMARK    8  A    between atoms: N_23  and  C_24 
REMARK    9  A    between atoms: C_24  and  C_25 
REMARK   10  A    between atoms: C_25  and  C_26 
ROOT
ATOM      1  N   UNL d   1      26.253 -14.396  -1.382  0.00  0.00    -0.295 N 
ATOM      2  C   UNL d   1      25.814 -14.666  -2.897  0.00  0.00     0.269 C 
ATOM      3  O   UNL d   1      25.210 -15.714  -3.133  0.00  0.00    -0.266 OA
ENDROOT
BRANCH   1   4
ATOM      4  C   UNL d   1      27.018 -13.186  -0.865  0.00  0.00     0.045 C 
ATOM      5  C   UNL d   1      26.928 -12.600   0.386  0.00  0.00    -0.035 C 
ATOM      6  C   UNL d   1      27.431 -11.345   0.787  0.00  0.00     0.009 C 
ATOM      7  C   UNL d   1      26.281 -13.328   1.446  0.00  0.00     0.050 C 
ATOM      8  C   UNL d   1      28.359 -10.709   0.024  0.00  0.00     0.007 C 
ATOM      9  C   UNL d   1      28.751 -11.366  -1.108  0.00  0.00    -0.060 C 
ATOM     10  C   UNL d   1      29.947 -10.893  -1.863  0.00  0.00     0.048 C 
ATOM     11  C   UNL d   1      28.098 -12.583  -1.453  0.00  0.00     0.037 C 
ENDBRANCH   1   4
BRANCH   1  12
ATOM     12  C   UNL d   1      26.134 -15.689  -0.423  0.00  0.00     0.218 C 
BRANCH  12  13
ATOM     13  C   UNL d   1      24.930 -16.754  -0.594  0.00  0.00    -0.026 C 
ATOM     14  C   UNL d   1      23.587 -16.314  -0.739  0.00  0.00     0.013 C 
ATOM     15  C   UNL d   1      22.482 -17.154  -0.590  0.00  0.00     0.043 C 
ATOM     16  C   UNL d   1      22.687 -18.439  -0.159  0.00  0.00     0.116 C 
ATOM     17  F   UNL d   1      21.655 -19.190   0.242  0.00  0.00    -0.206 F 
ATOM     18  C   UNL d   1      23.975 -18.950  -0.143  0.00  0.00     0.043 C 
ATOM     19  C   UNL d   1      25.087 -18.155  -0.534  0.00  0.00     0.013 C 
ENDBRANCH  12  13
BRANCH  12  20
ATOM     20  C   UNL d   1      27.410 -16.608  -0.546  0.00  0.00     0.245 C 
ATOM     21  O   UNL d   1      28.169 -16.828   0.399  0.00  0.00    -0.271 OA
ATOM     22  N   UNL d   1      27.799 -16.863  -1.868  0.00  0.00    -0.359 N 
ATOM     23  H   UNL d   1      27.214 -16.559  -2.635  0.00  0.00     0.162 HD
BRANCH  22  24
ATOM     24  C   UNL d   1      29.208 -17.070  -2.110  0.00  0.00     0.123 C 
BRANCH  24  25
ATOM     25  C   UNL d   1      29.956 -15.785  -2.436  0.00  0.00     0.023 C 
BRANCH  25  26
ATOM     26  C   UNL d   1      29.531 -15.222  -3.802  0.00  0.00    -0.021 C 
ATOM     27  C   UNL d   1      30.277 -13.925  -4.120  0.00  0.00     0.009 C 
ATOM     28  C   UNL d   1      29.802 -16.251  -4.896  0.00  0.00     0.009 C 
ENDBRANCH  25  26
ENDBRANCH  24  25
ENDBRANCH  22  24
ENDBRANCH  12  20
ENDBRANCH   1  12
BRANCH   2  29
ATOM     29  C   UNL d   1      26.089 -13.771  -4.130  0.00  0.00     0.115 C 
ATOM     30  S   UNL d   1      26.201 -12.020  -3.958  0.00  0.00     0.019 SA
ATOM     31  N   UNL d   1      27.254 -11.747  -5.260  0.00  0.00    -0.203 NA
ATOM     32  C   UNL d   1      27.419 -12.900  -5.938  0.00  0.00     0.155 C 
ATOM     33  C   UNL d   1      26.655 -14.050  -5.386  0.00  0.00     0.065 C 
BRANCH  32  34
ATOM     34  C   UNL d   1      28.516 -13.070  -6.938  0.00  0.00     0.270 C 
ATOM     35  N   UNL d   1      28.815 -14.285  -7.459  0.00  0.00    -0.365 N 
ATOM     36  H   UNL d   1      28.282 -15.118  -7.235  0.00  0.00     0.159 HD
ATOM     37  H   UNL d   1      29.655 -14.364  -8.022  0.00  0.00     0.159 HD
ATOM     38  O   UNL d   1      29.174 -12.082  -7.373  0.00  0.00    -0.266 OA
ENDBRANCH  32  34
BRANCH  33  39
ATOM     39  N   UNL d   1      26.952 -15.327  -5.778  0.00  0.00    -0.299 NA
ATOM     40  H   UNL d   1      26.392 -16.049  -5.295  0.00  0.00     0.124 HD
ATOM     41  H   UNL d   1      26.873 -15.531  -6.771  0.00  0.00     0.124 HD
ENDBRANCH  33  39
ENDBRANCH   2  29
TORSDOF 10
ENDMDL
MODEL 9
REMARK VINA RESULT:    -7.215      3.474      7.068
REMARK INTER + INTRA:         -15.435
REMARK INTER:                 -10.198
REMARK INTRA:                  -5.237
REMARK CONF_INDEPENDENT:        2.983
REMARK UNBOUND:                -5.237
REMARK  10 active torsions:
REMARK  status: ('A' for Active; 'I' for Inactive)
REMARK    1  A    between atoms: C_7  and  N_8 
REMARK       I    between atoms: N_8  and  C_9 
REMARK    2  A    between atoms: C_20  and  N_8 
REMARK    3  A    between atoms: C_9  and  C_11 
REMARK    4  A    between atoms: C_14  and  C_15 
REMARK       I    between atoms: C_15  and  N_16 
REMARK    5  A    between atoms: C_18  and  N_19 
REMARK    6  A    between atoms: C_20  and  C_29 
REMARK    7  A    between atoms: C_20  and  C_21 
REMARK       I    between atoms: C_21  and  N_23 
REMARK    8  A    between atoms: N_23  and  C_24 
REMARK    9  A    between atoms: C_24  and  C_25 
REMARK   10  A    between atoms: C_25  and  C_26 
ROOT
ATOM      1  N   UNL d   1      27.319 -15.517  -0.391  0.00  0.00    -0.295 N 
ATOM      2  C   UNL d   1      28.248 -15.138  -1.638  0.00  0.00     0.269 C 
ATOM      3  O   UNL d   1      29.217 -14.408  -1.420  0.00  0.00    -0.266 OA
ENDROOT
BRANCH   1   4
ATOM      4  C   UNL d   1      26.068 -16.384  -0.427  0.00  0.00     0.045 C 
ATOM      5  C   UNL d   1      25.956 -17.721  -0.090  0.00  0.00    -0.035 C 
ATOM      6  C   UNL d   1      24.878 -18.590  -0.359  0.00  0.00     0.009 C 
ATOM      7  C   UNL d   1      27.026 -18.342   0.647  0.00  0.00     0.050 C 
ATOM      8  C   UNL d   1      23.668 -18.082  -0.718  0.00  0.00     0.007 C 
ATOM      9  C   UNL d   1      23.591 -16.719  -0.782  0.00  0.00    -0.060 C 
ATOM     10  C   UNL d   1      22.258 -16.058  -0.896  0.00  0.00     0.048 C 
ATOM     11  C   UNL d   1      24.775 -15.956  -0.582  0.00  0.00     0.037 C 
ENDBRANCH   1   4
BRANCH   1  12
ATOM     12  C   UNL d   1      27.589 -14.624   0.926  0.00  0.00     0.218 C 
BRANCH  12  13
ATOM     13  C   UNL d   1      29.055 -14.550   1.605  0.00  0.00    -0.026 C 
ATOM     14  C   UNL d   1      29.260 -13.826   2.809  0.00  0.00     0.013 C 
ATOM     15  C   UNL d   1      30.523 -13.467   3.286  0.00  0.00     0.043 C 
ATOM     16  C   UNL d   1      31.616 -13.712   2.496  0.00  0.00     0.116 C 
ATOM     17  F   UNL d   1      32.799 -13.159   2.791  0.00  0.00    -0.206 F 
ATOM     18  C   UNL d   1      31.482 -14.535   1.390  0.00  0.00     0.043 C 
ATOM     19  C   UNL d   1      30.225 -15.102   1.043  0.00  0.00     0.013 C 
ENDBRANCH  12  13
BRANCH  12  20
ATOM     20  C   UNL d   1      27.271 -13.103   0.657  0.00  0.00     0.245 C 
ATOM     21  O   UNL d   1      26.170 -12.599   0.891  0.00  0.00    -0.271 OA
ATOM     22  N   UNL d   1      28.201 -12.468  -0.176  0.00  0.00    -0.359 N 
ATOM     23  H   UNL d   1      29.043 -12.954  -0.457  0.00  0.00     0.162 HD
BRANCH  22  24
ATOM     24  C   UNL d   1      27.712 -11.390  -1.005  0.00  0.00     0.123 C 
BRANCH  24  25
ATOM     25  C   UNL d   1      27.832 -11.677  -2.495  0.00  0.00     0.023 C 
BRANCH  25  26
ATOM     26  C   UNL d   1      26.476 -11.530  -3.204  0.00  0.00    -0.021 C 
ATOM     27  C   UNL d   1      26.641 -11.567  -4.724  0.00  0.00     0.009 C 
ATOM     28  C   UNL d   1      25.534 -12.647  -2.763  0.00  0.00     0.009 C 
ENDBRANCH  25  26
ENDBRANCH  24  25
ENDBRANCH  22  24
ENDBRANCH  12  20
ENDBRANCH   1  12
BRANCH   2  29
ATOM     29  C   UNL d   1      28.056 -15.556  -3.116  0.00  0.00     0.115 C 
ATOM     30  S   UNL d   1      26.469 -15.447  -3.878  0.00  0.00     0.019 SA
ATOM     31  N   UNL d   1      27.014 -15.200  -5.465  0.00  0.00    -0.203 NA
ATOM     32  C   UNL d   1      28.353 -15.348  -5.496  0.00  0.00     0.155 C 
ATOM     33  C   UNL d   1      28.962 -15.684  -4.182  0.00  0.00     0.065 C 
BRANCH  32  34
ATOM     34  C   UNL d   1      29.165 -14.893  -6.666  0.00  0.00     0.270 C 
ATOM     35  N   UNL d   1      28.666 -14.020  -7.574  0.00  0.00    -0.365 N 
ATOM     36  H   UNL d   1      27.748 -13.602  -7.478  0.00  0.00     0.159 HD
ATOM     37  H   UNL d   1      29.205 -13.859  -8.418  0.00  0.00     0.159 HD
ATOM     38  O   UNL d   1      30.362 -15.266  -6.825  0.00  0.00    -0.266 OA
ENDBRANCH  32  34
BRANCH  33  39
ATOM     39  N   UNL d   1      30.314 -15.569  -4.000  0.00  0.00    -0.299 NA
ATOM     40  H   UNL d   1      30.812 -15.194  -4.824  0.00  0.00     0.124 HD
ATOM     41  H   UNL d   1      30.624 -15.011  -3.209  0.00  0.00     0.124 HD
ENDBRANCH  33  39
ENDBRANCH   2  29
TORSDOF 10
ENDMDL
