MODEL 1
REMARK VINA RESULT:   -30.096      0.000      0.000
REMARK INTER + INTRA:         -32.880
REMARK INTER:                 -32.185
REMARK INTRA:                  -0.695
REMARK CONF_INDEPENDENT:        2.088
REMARK UNBOUND:                -0.695
REMARK  7 active torsions:
REMARK  status: ('A' for Active; 'I' for Inactive)
REMARK       I    between atoms: C_2  and  N_3 
REMARK       I    between atoms: C_2  and  N_17 
REMARK    1  A    between atoms: N_3  and  C_4 
REMARK    2  A    between atoms: C_4  and  C_5 
REMARK    3  A    between atoms: C_5  and  C_6 
REMARK    4  A    between atoms: C_6  and  N_7 
REMARK       I    between atoms: N_7  and  C_8 
REMARK    5  A    between atoms: C_8  and  C_10 
REMARK    6  A    between atoms: C_14  and  O_15 
REMARK    7  A    between atoms: N_17  and  C_18 
ROOT
ATOM      1  C   UNL d   1      25.406 -17.760   0.538  0.00  0.00     0.039 C 
ENDROOT
BRANCH   1   2
ATOM      2  C   UNL d   1      24.801 -18.951  -0.220  0.00  0.00     0.126 C 
BRANCH   2   3
ATOM      3  N   UNL d   1      23.359 -18.837  -0.376  0.00  0.00    -0.343 N 
ATOM      4  C   UNL d   1      22.743 -17.700  -0.828  0.00  0.00     0.322 C 
ATOM      5  O   UNL d   1      23.363 -16.700  -1.186  0.00  0.00    -0.247 OA
ATOM      6  N   UNL d   1      21.386 -17.751  -0.993  0.00  0.00    -0.287 N 
ATOM      7  H   UNL d   1      20.968 -17.000  -1.524  0.00  0.00     0.172 HD
ATOM      8  H   UNL d   1      22.754 -19.557   0.008  0.00  0.00     0.164 HD
BRANCH   6   9
ATOM      9  C   UNL d   1      20.588 -18.752  -0.526  0.00  0.00     0.174 C 
ATOM     10  N   UNL d   1      19.596 -19.325  -1.164  0.00  0.00    -0.236 NA
ATOM     11  C   UNL d   1      19.035 -20.288  -0.351  0.00  0.00     0.126 C 
ATOM     12  C   UNL d   1      19.506 -20.318   0.946  0.00  0.00     0.072 C 
ATOM     13  S   UNL d   1      20.856 -19.258   1.081  0.00  0.00    -0.062 SA
ENDBRANCH   6   9
ENDBRANCH   2   3
ENDBRANCH   1   2
BRANCH   1  14
ATOM     14  C   UNL d   1      26.794 -17.380   0.009  0.00  0.00     0.124 C 
BRANCH  14  15
ATOM     15  N   UNL d   1      26.747 -16.600  -1.226  0.00  0.00    -0.357 N 
ATOM     16  C   UNL d   1      26.105 -15.373  -1.269  0.00  0.00     0.251 C 
ATOM     17  O   UNL d   1      25.526 -14.882  -0.299  0.00  0.00    -0.268 OA
ATOM     18  H   UNL d   1      27.304 -16.892  -2.018  0.00  0.00     0.162 HD
BRANCH  16  19
ATOM     19  C   UNL d   1      26.152 -14.618  -2.553  0.00  0.00     0.034 A 
ATOM     20  C   UNL d   1      25.748 -13.279  -2.629  0.00  0.00     0.017 A 
ATOM     21  C   UNL d   1      25.846 -12.585  -3.843  0.00  0.00     0.004 A 
ATOM     22  C   UNL d   1      26.349 -13.217  -4.983  0.00  0.00     0.036 A 
ATOM     23  C   UNL d   1      26.766 -14.542  -4.897  0.00  0.00     0.066 A 
ATOM     24  C   UNL d   1      26.677 -15.242  -3.693  0.00  0.00     0.053 A 
BRANCH  23  25
ATOM     25  O   UNL d   1      27.276 -15.203  -5.977  0.00  0.00    -0.361 OA
ATOM     26  H   UNL d   1      28.162 -14.862  -6.181  0.00  0.00     0.217 HD
ENDBRANCH  23  25
ENDBRANCH  16  19
ENDBRANCH  14  15
ENDBRANCH   1  14
TORSDOF 7
ENDMDL
MODEL 2
REMARK VINA RESULT:   -30.064      1.344      1.598
REMARK INTER + INTRA:         -33.574
REMARK INTER:                 -32.152
REMARK INTRA:                  -1.422
REMARK CONF_INDEPENDENT:        2.088
REMARK UNBOUND:                -1.422
REMARK  7 active torsions:
REMARK  status: ('A' for Active; 'I' for Inactive)
REMARK       I    between atoms: C_2  and  N_3 
REMARK       I    between atoms: C_2  and  N_17 
REMARK    1  A    between atoms: N_3  and  C_4 
REMARK    2  A    between atoms: C_4  and  C_5 
REMARK    3  A    between atoms: C_5  and  C_6 
REMARK    4  A    between atoms: C_6  and  N_7 
REMARK       I    between atoms: N_7  and  C_8 
REMARK    5  A    between atoms: C_8  and  C_10 
REMARK    6  A    between atoms: C_14  and  O_15 
REMARK    7  A    between atoms: N_17  and  C_18 
ROOT
ATOM      1  C   UNL d   1      25.428 -18.215   0.811  0.00  0.00     0.039 C 
ENDROOT
BRANCH   1   2
ATOM      2  C   UNL d   1      24.875 -18.749  -0.518  0.00  0.00     0.126 C 
BRANCH   2   3
ATOM      3  N   UNL d   1      23.423 -18.694  -0.581  0.00  0.00    -0.343 N 
ATOM      4  C   UNL d   1      22.730 -17.553  -0.895  0.00  0.00     0.322 C 
ATOM      5  O   UNL d   1      23.283 -16.498  -1.199  0.00  0.00    -0.247 OA
ATOM      6  N   UNL d   1      21.369 -17.658  -0.986  0.00  0.00    -0.287 N 
ATOM      7  H   UNL d   1      20.888 -16.886  -1.423  0.00  0.00     0.172 HD
ATOM      8  H   UNL d   1      22.875 -19.472  -0.227  0.00  0.00     0.164 HD
BRANCH   6   9
ATOM      9  C   UNL d   1      20.646 -18.733  -0.563  0.00  0.00     0.174 C 
ATOM     10  N   UNL d   1      19.672 -19.324  -1.211  0.00  0.00    -0.236 NA
ATOM     11  C   UNL d   1      19.194 -20.369  -0.448  0.00  0.00     0.126 C 
ATOM     12  C   UNL d   1      19.704 -20.451   0.832  0.00  0.00     0.072 C 
ATOM     13  S   UNL d   1      20.992 -19.320   1.000  0.00  0.00    -0.062 SA
ENDBRANCH   6   9
ENDBRANCH   2   3
ENDBRANCH   1   2
BRANCH   1  14
ATOM     14  C   UNL d   1      26.508 -17.147   0.604  0.00  0.00     0.124 C 
BRANCH  14  15
ATOM     15  N   UNL d   1      26.294 -16.335  -0.592  0.00  0.00    -0.357 N 
ATOM     16  C   UNL d   1      27.283 -16.209  -1.553  0.00  0.00     0.251 C 
ATOM     17  O   UNL d   1      28.390 -16.740  -1.453  0.00  0.00    -0.268 OA
ATOM     18  H   UNL d   1      25.368 -15.975  -0.788  0.00  0.00     0.162 HD
BRANCH  16  19
ATOM     19  C   UNL d   1      26.962 -15.408  -2.769  0.00  0.00     0.034 A 
ATOM     20  C   UNL d   1      27.921 -15.167  -3.760  0.00  0.00     0.017 A 
ATOM     21  C   UNL d   1      27.574 -14.447  -4.912  0.00  0.00     0.004 A 
ATOM     22  C   UNL d   1      26.272 -13.969  -5.084  0.00  0.00     0.036 A 
ATOM     23  C   UNL d   1      25.319 -14.227  -4.103  0.00  0.00     0.066 A 
ATOM     24  C   UNL d   1      25.651 -14.946  -2.955  0.00  0.00     0.053 A 
BRANCH  23  25
ATOM     25  O   UNL d   1      24.031 -13.793  -4.228  0.00  0.00    -0.361 OA
ATOM     26  H   UNL d   1      23.944 -13.248  -5.027  0.00  0.00     0.217 HD
ENDBRANCH  23  25
ENDBRANCH  16  19
ENDBRANCH  14  15
ENDBRANCH   1  14
TORSDOF 7
ENDMDL
MODEL 3
REMARK VINA RESULT:   -29.834      1.739      2.225
REMARK INTER + INTRA:         -32.703
REMARK INTER:                 -31.922
REMARK INTRA:                  -0.781
REMARK CONF_INDEPENDENT:        2.088
REMARK UNBOUND:                -0.781
REMARK  7 active torsions:
REMARK  status: ('A' for Active; 'I' for Inactive)
REMARK       I    between atoms: C_2  and  N_3 
REMARK       I    between atoms: C_2  and  N_17 
REMARK    1  A    between atoms: N_3  and  C_4 
REMARK    2  A    between atoms: C_4  and  C_5 
REMARK    3  A    between atoms: C_5  and  C_6 
REMARK    4  A    between atoms: C_6  and  N_7 
REMARK       I    between atoms: N_7  and  C_8 
REMARK    5  A    between atoms: C_8  and  C_10 
REMARK    6  A    between atoms: C_14  and  O_15 
REMARK    7  A    between atoms: N_17  and  C_18 
ROOT
ATOM      1  C   UNL d   1      23.956 -16.276  -1.768  0.00  0.00     0.039 C 
ENDROOT
BRANCH   1   2
ATOM      2  C   UNL d   1      22.680 -16.127  -0.928  0.00  0.00     0.126 C 
BRANCH   2   3
ATOM      3  N   UNL d   1      22.078 -17.409  -0.597  0.00  0.00    -0.343 N 
ATOM      4  C   UNL d   1      22.799 -18.570  -0.491  0.00  0.00     0.322 C 
ATOM      5  O   UNL d   1      24.022 -18.611  -0.617  0.00  0.00    -0.247 OA
ATOM      6  N   UNL d   1      22.119 -19.692  -0.106  0.00  0.00    -0.287 N 
ATOM      7  H   UNL d   1      22.679 -20.482   0.179  0.00  0.00     0.172 HD
ATOM      8  H   UNL d   1      21.067 -17.504  -0.597  0.00  0.00     0.164 HD
BRANCH   6   9
ATOM      9  C   UNL d   1      20.760 -19.792  -0.052  0.00  0.00     0.174 C 
ATOM     10  N   UNL d   1      19.905 -19.315  -0.923  0.00  0.00    -0.236 NA
ATOM     11  C   UNL d   1      18.625 -19.620  -0.510  0.00  0.00     0.126 C 
ATOM     12  C   UNL d   1      18.525 -20.181   0.747  0.00  0.00     0.072 C 
ATOM     13  S   UNL d   1      20.104 -20.548   1.329  0.00  0.00    -0.062 SA
ENDBRANCH   6   9
ENDBRANCH   2   3
ENDBRANCH   1   2
BRANCH   1  14
ATOM     14  C   UNL d   1      25.074 -15.337  -1.298  0.00  0.00     0.124 C 
BRANCH  14  15
ATOM     15  N   UNL d   1      25.937 -14.879  -2.385  0.00  0.00    -0.357 N 
ATOM     16  C   UNL d   1      25.402 -14.276  -3.512  0.00  0.00     0.251 C 
ATOM     17  O   UNL d   1      24.192 -14.114  -3.679  0.00  0.00    -0.268 OA
ATOM     18  H   UNL d   1      26.939 -14.874  -2.253  0.00  0.00     0.162 HD
BRANCH  16  19
ATOM     19  C   UNL d   1      26.357 -13.788  -4.548  0.00  0.00     0.034 A 
ATOM     20  C   UNL d   1      26.564 -12.420  -4.763  0.00  0.00     0.017 A 
ATOM     21  C   UNL d   1      27.502 -11.994  -5.714  0.00  0.00     0.004 A 
ATOM     22  C   UNL d   1      28.238 -12.926  -6.451  0.00  0.00     0.036 A 
ATOM     23  C   UNL d   1      28.039 -14.284  -6.220  0.00  0.00     0.066 A 
ATOM     24  C   UNL d   1      27.112 -14.720  -5.273  0.00  0.00     0.053 A 
BRANCH  23  25
ATOM     25  O   UNL d   1      28.740 -15.235  -6.904  0.00  0.00    -0.361 OA
ATOM     26  H   UNL d   1      28.751 -15.017  -7.850  0.00  0.00     0.217 HD
ENDBRANCH  23  25
ENDBRANCH  16  19
ENDBRANCH  14  15
ENDBRANCH   1  14
TORSDOF 7
ENDMDL
MODEL 4
REMARK VINA RESULT:   -29.737      3.395      4.872
REMARK INTER + INTRA:         -32.315
REMARK INTER:                 -31.825
REMARK INTRA:                  -0.490
REMARK CONF_INDEPENDENT:        2.088
REMARK UNBOUND:                -0.490
REMARK  7 active torsions:
REMARK  status: ('A' for Active; 'I' for Inactive)
REMARK       I    between atoms: C_2  and  N_3 
REMARK       I    between atoms: C_2  and  N_17 
REMARK    1  A    between atoms: N_3  and  C_4 
REMARK    2  A    between atoms: C_4  and  C_5 
REMARK    3  A    between atoms: C_5  and  C_6 
REMARK    4  A    between atoms: C_6  and  N_7 
REMARK       I    between atoms: N_7  and  C_8 
REMARK    5  A    between atoms: C_8  and  C_10 
REMARK    6  A    between atoms: C_14  and  O_15 
REMARK    7  A    between atoms: N_17  and  C_18 
ROOT
ATOM      1  C   UNL d   1      25.440 -17.243   0.246  0.00  0.00     0.039 C 
ENDROOT
BRANCH   1   2
ATOM      2  C   UNL d   1      24.909 -18.454  -0.534  0.00  0.00     0.126 C 
BRANCH   2   3
ATOM      3  N   UNL d   1      23.457 -18.476  -0.607  0.00  0.00    -0.343 N 
ATOM      4  C   UNL d   1      22.707 -17.378  -0.942  0.00  0.00     0.322 C 
ATOM      5  O   UNL d   1      23.206 -16.299  -1.256  0.00  0.00    -0.247 OA
ATOM      6  N   UNL d   1      21.354 -17.555  -1.041  0.00  0.00    -0.287 N 
ATOM      7  H   UNL d   1      20.836 -16.816  -1.492  0.00  0.00     0.172 HD
ATOM      8  H   UNL d   1      22.948 -19.278  -0.247  0.00  0.00     0.164 HD
BRANCH   6   9
ATOM      9  C   UNL d   1      20.686 -18.662  -0.608  0.00  0.00     0.174 C 
ATOM     10  N   UNL d   1      19.764 -19.325  -1.263  0.00  0.00    -0.236 NA
ATOM     11  C   UNL d   1      19.330 -20.378  -0.486  0.00  0.00     0.126 C 
ATOM     12  C   UNL d   1      19.812 -20.399   0.807  0.00  0.00     0.072 C 
ATOM     13  S   UNL d   1      21.027 -19.191   0.977  0.00  0.00    -0.062 SA
ENDBRANCH   6   9
ENDBRANCH   2   3
ENDBRANCH   1   2
BRANCH   1  14
ATOM     14  C   UNL d   1      26.867 -16.864  -0.171  0.00  0.00     0.124 C 
BRANCH  14  15
ATOM     15  N   UNL d   1      27.657 -16.303   0.924  0.00  0.00    -0.357 N 
ATOM     16  C   UNL d   1      27.439 -15.010   1.369  0.00  0.00     0.251 C 
ATOM     17  O   UNL d   1      26.603 -14.257   0.868  0.00  0.00    -0.268 OA
ATOM     18  H   UNL d   1      28.271 -16.909   1.452  0.00  0.00     0.162 HD
BRANCH  16  19
ATOM     19  C   UNL d   1      28.251 -14.536   2.527  0.00  0.00     0.034 A 
ATOM     20  C   UNL d   1      27.701 -14.431   3.810  0.00  0.00     0.017 A 
ATOM     21  C   UNL d   1      28.504 -14.025   4.886  0.00  0.00     0.004 A 
ATOM     22  C   UNL d   1      29.855 -13.726   4.689  0.00  0.00     0.036 A 
ATOM     23  C   UNL d   1      30.399 -13.850   3.414  0.00  0.00     0.066 A 
ATOM     24  C   UNL d   1      29.612 -14.258   2.337  0.00  0.00     0.053 A 
BRANCH  23  25
ATOM     25  O   UNL d   1      31.715 -13.582   3.170  0.00  0.00    -0.361 OA
ATOM     26  H   UNL d   1      32.224 -13.664   3.993  0.00  0.00     0.217 HD
ENDBRANCH  23  25
ENDBRANCH  16  19
ENDBRANCH  14  15
ENDBRANCH   1  14
TORSDOF 7
ENDMDL
MODEL 5
REMARK VINA RESULT:   -29.395      1.930      2.623
REMARK INTER + INTRA:         -32.464
REMARK INTER:                 -31.483
REMARK INTRA:                  -0.981
REMARK CONF_INDEPENDENT:        2.088
REMARK UNBOUND:                -0.981
REMARK  7 active torsions:
REMARK  status: ('A' for Active; 'I' for Inactive)
REMARK       I    between atoms: C_2  and  N_3 
REMARK       I    between atoms: C_2  and  N_17 
REMARK    1  A    between atoms: N_3  and  C_4 
REMARK    2  A    between atoms: C_4  and  C_5 
REMARK    3  A    between atoms: C_5  and  C_6 
REMARK    4  A    between atoms: C_6  and  N_7 
REMARK       I    between atoms: N_7  and  C_8 
REMARK    5  A    between atoms: C_8  and  C_10 
REMARK    6  A    between atoms: C_14  and  O_15 
REMARK    7  A    between atoms: N_17  and  C_18 
ROOT
ATOM      1  C   UNL d   1      24.379 -16.736  -1.680  0.00  0.00     0.039 C 
ENDROOT
BRANCH   1   2
ATOM      2  C   UNL d   1      23.829 -18.138  -1.979  0.00  0.00     0.126 C 
BRANCH   2   3
ATOM      3  N   UNL d   1      22.674 -18.470  -1.161  0.00  0.00    -0.343 N 
ATOM      4  C   UNL d   1      22.681 -18.397   0.208  0.00  0.00     0.322 C 
ATOM      5  O   UNL d   1      23.649 -17.995   0.851  0.00  0.00    -0.247 OA
ATOM      6  N   UNL d   1      21.505 -18.672   0.852  0.00  0.00    -0.287 N 
ATOM      7  H   UNL d   1      21.453 -18.409   1.825  0.00  0.00     0.172 HD
ATOM      8  H   UNL d   1      21.873 -18.929  -1.584  0.00  0.00     0.164 HD
BRANCH   6   9
ATOM      9  C   UNL d   1      20.413 -19.233   0.260  0.00  0.00     0.174 C 
ATOM     10  N   UNL d   1      19.891 -18.900  -0.895  0.00  0.00    -0.236 NA
ATOM     11  C   UNL d   1      18.793 -19.699  -1.140  0.00  0.00     0.126 C 
ATOM     12  C   UNL d   1      18.406 -20.511  -0.093  0.00  0.00     0.072 C 
ATOM     13  S   UNL d   1      19.596 -20.438   1.149  0.00  0.00    -0.062 SA
ENDBRANCH   6   9
ENDBRANCH   2   3
ENDBRANCH   1   2
BRANCH   1  14
ATOM     14  C   UNL d   1      25.858 -16.599  -2.060  0.00  0.00     0.124 C 
BRANCH  14  15
ATOM     15  N   UNL d   1      26.186 -15.296  -2.637  0.00  0.00    -0.357 N 
ATOM     16  C   UNL d   1      26.052 -15.067  -3.996  0.00  0.00     0.251 C 
ATOM     17  O   UNL d   1      25.680 -15.930  -4.792  0.00  0.00    -0.268 OA
ATOM     18  H   UNL d   1      26.379 -14.517  -2.022  0.00  0.00     0.162 HD
BRANCH  16  19
ATOM     19  C   UNL d   1      26.355 -13.694  -4.494  0.00  0.00     0.034 A 
ATOM     20  C   UNL d   1      27.216 -13.483  -5.578  0.00  0.00     0.017 A 
ATOM     21  C   UNL d   1      27.445 -12.183  -6.049  0.00  0.00     0.004 A 
ATOM     22  C   UNL d   1      26.816 -11.089  -5.446  0.00  0.00     0.036 A 
ATOM     23  C   UNL d   1      25.948 -11.308  -4.381  0.00  0.00     0.066 A 
ATOM     24  C   UNL d   1      25.709 -12.598  -3.907  0.00  0.00     0.053 A 
BRANCH  23  25
ATOM     25  O   UNL d   1      25.299 -10.276  -3.765  0.00  0.00    -0.361 OA
ATOM     26  H   UNL d   1      24.425 -10.152  -4.168  0.00  0.00     0.217 HD
ENDBRANCH  23  25
ENDBRANCH  16  19
ENDBRANCH  14  15
ENDBRANCH   1  14
TORSDOF 7
ENDMDL
MODEL 6
REMARK VINA RESULT:   -28.342      2.686      3.777
REMARK INTER + INTRA:         -31.189
REMARK INTER:                 -30.430
REMARK INTRA:                  -0.759
REMARK CONF_INDEPENDENT:        2.088
REMARK UNBOUND:                -0.759
REMARK  7 active torsions:
REMARK  status: ('A' for Active; 'I' for Inactive)
REMARK       I    between atoms: C_2  and  N_3 
REMARK       I    between atoms: C_2  and  N_17 
REMARK    1  A    between atoms: N_3  and  C_4 
REMARK    2  A    between atoms: C_4  and  C_5 
REMARK    3  A    between atoms: C_5  and  C_6 
REMARK    4  A    between atoms: C_6  and  N_7 
REMARK       I    between atoms: N_7  and  C_8 
REMARK    5  A    between atoms: C_8  and  C_10 
REMARK    6  A    between atoms: C_14  and  O_15 
REMARK    7  A    between atoms: N_17  and  C_18 
ROOT
ATOM      1  C   UNL d   1      24.003 -16.245  -1.695  0.00  0.00     0.039 C 
ENDROOT
BRANCH   1   2
ATOM      2  C   UNL d   1      22.609 -16.106  -1.065  0.00  0.00     0.126 C 
BRANCH   2   3
ATOM      3  N   UNL d   1      22.030 -17.391  -0.706  0.00  0.00    -0.343 N 
ATOM      4  C   UNL d   1      22.774 -18.532  -0.553  0.00  0.00     0.322 C 
ATOM      5  O   UNL d   1      23.999 -18.549  -0.656  0.00  0.00    -0.247 OA
ATOM      6  N   UNL d   1      22.111 -19.657  -0.146  0.00  0.00    -0.287 N 
ATOM      7  H   UNL d   1      22.684 -20.426   0.172  0.00  0.00     0.172 HD
ATOM      8  H   UNL d   1      21.021 -17.509  -0.721  0.00  0.00     0.164 HD
BRANCH   6   9
ATOM      9  C   UNL d   1      20.755 -19.786  -0.112  0.00  0.00     0.174 C 
ATOM     10  N   UNL d   1      19.903 -19.325  -0.996  0.00  0.00    -0.236 NA
ATOM     11  C   UNL d   1      18.623 -19.658  -0.603  0.00  0.00     0.126 C 
ATOM     12  C   UNL d   1      18.516 -20.222   0.652  0.00  0.00     0.072 C 
ATOM     13  S   UNL d   1      20.093 -20.557   1.257  0.00  0.00    -0.062 SA
ENDBRANCH   6   9
ENDBRANCH   2   3
ENDBRANCH   1   2
BRANCH   1  14
ATOM     14  C   UNL d   1      25.062 -15.426  -0.949  0.00  0.00     0.124 C 
BRANCH  14  15
ATOM     15  N   UNL d   1      26.428 -15.733  -1.368  0.00  0.00    -0.357 N 
ATOM     16  C   UNL d   1      27.141 -16.761  -0.773  0.00  0.00     0.251 C 
ATOM     17  O   UNL d   1      26.690 -17.451   0.142  0.00  0.00    -0.268 OA
ATOM     18  H   UNL d   1      26.807 -15.283  -2.191  0.00  0.00     0.162 HD
BRANCH  16  19
ATOM     19  C   UNL d   1      28.508 -17.043  -1.298  0.00  0.00     0.034 A 
ATOM     20  C   UNL d   1      28.952 -16.496  -2.508  0.00  0.00     0.017 A 
ATOM     21  C   UNL d   1      30.259 -16.745  -2.952  0.00  0.00     0.004 A 
ATOM     22  C   UNL d   1      31.127 -17.535  -2.193  0.00  0.00     0.036 A 
ATOM     23  C   UNL d   1      30.684 -18.061  -0.983  0.00  0.00     0.066 A 
ATOM     24  C   UNL d   1      29.388 -17.816  -0.529  0.00  0.00     0.053 A 
BRANCH  23  25
ATOM     25  O   UNL d   1      31.496 -18.828  -0.198  0.00  0.00    -0.361 OA
ATOM     26  H   UNL d   1      30.967 -19.503   0.257  0.00  0.00     0.217 HD
ENDBRANCH  23  25
ENDBRANCH  16  19
ENDBRANCH  14  15
ENDBRANCH   1  14
TORSDOF 7
ENDMDL
