MODEL 1
REMARK VINA RESULT:    -7.241      0.000      0.000
REMARK INTER + INTRA:          -9.931
REMARK INTER:                  -8.434
REMARK INTRA:                  -1.497
REMARK CONF_INDEPENDENT:        1.193
REMARK UNBOUND:                -1.497
REMARK  4 active torsions:
REMARK  status: ('A' for Active; 'I' for Inactive)
REMARK    1  A    between atoms: C_5  and  C_6 
REMARK       I    between atoms: C_6  and  N_8 
REMARK    2  A    between atoms: N_8  and  N_9 
REMARK       I    between atoms: N_9  and  C_10 
REMARK    3  A    between atoms: C_10  and  C_12 
REMARK    4  A    between atoms: C_16  and  O_17 
ROOT
ATOM      1  C   UNL d   1      22.058 -18.051  -0.136  0.00  0.00     0.272 C 
ATOM      2  O   UNL d   1      21.802 -17.110  -0.891  0.00  0.00    -0.266 OA
ATOM      3  N   UNL d   1      23.340 -18.278   0.368  0.00  0.00    -0.263 N 
ATOM      4  H   UNL d   1      23.591 -19.043   0.987  0.00  0.00     0.190 HD
ENDROOT
BRANCH   1   5
ATOM      5  C   UNL d   1      20.939 -18.989   0.265  0.00  0.00     0.066 A 
ATOM      6  C   UNL d   1      20.658 -19.274   1.611  0.00  0.00     0.020 A 
ATOM      7  C   UNL d   1      19.601 -20.131   1.973  0.00  0.00     0.008 A 
ATOM      8  C   UNL d   1      18.788 -20.717   1.001  0.00  0.00    -0.059 A 
ATOM      9  C   UNL d   1      17.639 -21.616   1.356  0.00  0.00     0.048 C 
ATOM     10  C   UNL d   1      19.063 -20.450  -0.343  0.00  0.00     0.044 A 
ATOM     11  C   UNL d   1      20.123 -19.607  -0.707  0.00  0.00     0.082 A 
BRANCH  11  12
ATOM     12  O   UNL d   1      20.286 -19.451  -2.060  0.00  0.00    -0.360 OA
ATOM     13  H   UNL d   1      20.896 -18.699  -2.213  0.00  0.00     0.217 HD
ENDBRANCH  11  12
ENDBRANCH   1   5
BRANCH   3  14
ATOM     14  N   UNL d   1      24.413 -17.402   0.045  0.00  0.00    -0.267 N 
ATOM     15  C   UNL d   1      25.731 -17.836   0.161  0.00  0.00     0.240 C 
ATOM     16  O   UNL d   1      26.054 -18.950   0.574  0.00  0.00    -0.271 OA
ATOM     17  H   UNL d   1      24.164 -16.485  -0.318  0.00  0.00     0.190 HD
BRANCH  15  18
ATOM     18  C   UNL d   1      26.753 -16.838  -0.296  0.00  0.00     0.083 A 
ATOM     19  C   UNL d   1      26.592 -15.334  -0.474  0.00  0.00     0.019 A 
ATOM     20  C   UNL d   1      26.586 -16.221  -1.681  0.00  0.00    -0.005 A 
ATOM     21  C   UNL d   1      25.325 -16.397  -2.463  0.00  0.00     0.011 C 
ENDBRANCH  15  18
ENDBRANCH   3  14
TORSDOF 4
ENDMDL
MODEL 2
REMARK VINA RESULT:    -7.131      1.359      7.464
REMARK INTER + INTRA:         -10.036
REMARK INTER:                  -8.324
REMARK INTRA:                  -1.712
REMARK CONF_INDEPENDENT:        1.193
REMARK UNBOUND:                -1.712
REMARK  4 active torsions:
REMARK  status: ('A' for Active; 'I' for Inactive)
REMARK    1  A    between atoms: C_5  and  C_6 
REMARK       I    between atoms: C_6  and  N_8 
REMARK    2  A    between atoms: N_8  and  N_9 
REMARK       I    between atoms: N_9  and  C_10 
REMARK    3  A    between atoms: C_10  and  C_12 
REMARK    4  A    between atoms: C_16  and  O_17 
ROOT
ATOM      1  C   UNL d   1      24.360 -17.988  -0.502  0.00  0.00     0.272 C 
ATOM      2  O   UNL d   1      24.906 -18.921   0.091  0.00  0.00    -0.266 OA
ATOM      3  N   UNL d   1      22.986 -17.960  -0.747  0.00  0.00    -0.263 N 
ATOM      4  H   UNL d   1      22.500 -17.214  -1.236  0.00  0.00     0.190 HD
ENDROOT
BRANCH   1   5
ATOM      5  C   UNL d   1      25.210 -16.828  -0.975  0.00  0.00     0.066 A 
ATOM      6  C   UNL d   1      24.783 -15.965  -1.997  0.00  0.00     0.020 A 
ATOM      7  C   UNL d   1      25.572 -14.876  -2.414  0.00  0.00     0.008 A 
ATOM      8  C   UNL d   1      26.805 -14.613  -1.815  0.00  0.00    -0.059 A 
ATOM      9  C   UNL d   1      27.660 -13.446  -2.221  0.00  0.00     0.048 C 
ATOM     10  C   UNL d   1      27.248 -15.470  -0.804  0.00  0.00     0.044 A 
ATOM     11  C   UNL d   1      26.469 -16.563  -0.395  0.00  0.00     0.082 A 
BRANCH  11  12
ATOM     12  O   UNL d   1      27.037 -17.327   0.592  0.00  0.00    -0.360 OA
ATOM     13  H   UNL d   1      26.935 -18.272   0.350  0.00  0.00     0.217 HD
ENDBRANCH  11  12
ENDBRANCH   1   5
BRANCH   3  14
ATOM     14  N   UNL d   1      22.146 -19.012  -0.291  0.00  0.00    -0.267 N 
ATOM     15  C   UNL d   1      20.792 -19.021  -0.619  0.00  0.00     0.240 C 
ATOM     16  O   UNL d   1      20.237 -18.135  -1.268  0.00  0.00    -0.271 OA
ATOM     17  H   UNL d   1      22.592 -19.764   0.230  0.00  0.00     0.190 HD
BRANCH  15  18
ATOM     18  C   UNL d   1      20.049 -20.234  -0.143  0.00  0.00     0.083 A 
ATOM     19  C   UNL d   1      18.681 -20.303   0.523  0.00  0.00     0.019 A 
ATOM     20  C   UNL d   1      19.915 -20.451   1.360  0.00  0.00    -0.005 A 
ATOM     21  C   UNL d   1      20.279 -19.379   2.335  0.00  0.00     0.011 C 
ENDBRANCH  15  18
ENDBRANCH   3  14
TORSDOF 4
ENDMDL
MODEL 3
REMARK VINA RESULT:    -6.265      1.721      7.394
REMARK INTER + INTRA:          -8.603
REMARK INTER:                  -7.459
REMARK INTRA:                  -1.144
REMARK CONF_INDEPENDENT:        1.193
REMARK UNBOUND:                -1.144
REMARK  4 active torsions:
REMARK  status: ('A' for Active; 'I' for Inactive)
REMARK    1  A    between atoms: C_5  and  C_6 
REMARK       I    between atoms: C_6  and  N_8 
REMARK    2  A    between atoms: N_8  and  N_9 
REMARK       I    between atoms: N_9  and  C_10 
REMARK    3  A    between atoms: C_10  and  C_12 
REMARK    4  A    between atoms: C_16  and  O_17 
ROOT
ATOM      1  C   UNL d   1      24.803 -17.259  -0.466  0.00  0.00     0.272 C 
ATOM      2  O   UNL d   1      25.150 -18.163   0.298  0.00  0.00    -0.266 OA
ATOM      3  N   UNL d   1      23.468 -16.876  -0.614  0.00  0.00    -0.263 N 
ATOM      4  H   UNL d   1      23.141 -16.141  -1.235  0.00  0.00     0.190 HD
ENDROOT
BRANCH   1   5
ATOM      5  C   UNL d   1      25.863 -16.533  -1.267  0.00  0.00     0.066 A 
ATOM      6  C   UNL d   1      27.231 -16.806  -1.104  0.00  0.00     0.020 A 
ATOM      7  C   UNL d   1      28.207 -16.141  -1.870  0.00  0.00     0.008 A 
ATOM      8  C   UNL d   1      27.843 -15.192  -2.828  0.00  0.00    -0.059 A 
ATOM      9  C   UNL d   1      28.859 -14.482  -3.676  0.00  0.00     0.048 C 
ATOM     10  C   UNL d   1      26.486 -14.903  -2.993  0.00  0.00     0.044 A 
ATOM     11  C   UNL d   1      25.512 -15.555  -2.222  0.00  0.00     0.082 A 
BRANCH  11  12
ATOM     12  O   UNL d   1      24.225 -15.157  -2.479  0.00  0.00    -0.360 OA
ATOM     13  H   UNL d   1      24.198 -14.177  -2.477  0.00  0.00     0.217 HD
ENDBRANCH  11  12
ENDBRANCH   1   5
BRANCH   3  14
ATOM     14  N   UNL d   1      22.444 -17.508   0.144  0.00  0.00    -0.267 N 
ATOM     15  C   UNL d   1      21.931 -18.738  -0.258  0.00  0.00     0.240 C 
ATOM     16  O   UNL d   1      22.283 -19.327  -1.281  0.00  0.00    -0.271 OA
ATOM     17  H   UNL d   1      22.156 -17.045   1.004  0.00  0.00     0.190 HD
BRANCH  15  18
ATOM     18  C   UNL d   1      20.921 -19.325   0.682  0.00  0.00     0.083 A 
ATOM     19  C   UNL d   1      20.276 -20.704   0.637  0.00  0.00     0.019 A 
ATOM     20  C   UNL d   1      19.493 -19.511   0.178  0.00  0.00    -0.005 A 
ATOM     21  C   UNL d   1      19.155 -19.362  -1.270  0.00  0.00     0.011 C 
ENDBRANCH  15  18
ENDBRANCH   3  14
TORSDOF 4
ENDMDL
MODEL 4
REMARK VINA RESULT:    -5.904      3.503      8.327
REMARK INTER + INTRA:          -8.769
REMARK INTER:                  -7.097
REMARK INTRA:                  -1.672
REMARK CONF_INDEPENDENT:        1.193
REMARK UNBOUND:                -1.672
REMARK  4 active torsions:
REMARK  status: ('A' for Active; 'I' for Inactive)
REMARK    1  A    between atoms: C_5  and  C_6 
REMARK       I    between atoms: C_6  and  N_8 
REMARK    2  A    between atoms: N_8  and  N_9 
REMARK       I    between atoms: N_9  and  C_10 
REMARK    3  A    between atoms: C_10  and  C_12 
REMARK    4  A    between atoms: C_16  and  O_17 
ROOT
ATOM      1  C   UNL d   1      26.139 -15.423  -2.661  0.00  0.00     0.272 C 
ATOM      2  O   UNL d   1      27.102 -16.143  -2.383  0.00  0.00    -0.266 OA
ATOM      3  N   UNL d   1      24.846 -15.696  -2.211  0.00  0.00    -0.263 N 
ATOM      4  H   UNL d   1      24.028 -15.132  -2.423  0.00  0.00     0.190 HD
ENDROOT
BRANCH   1   5
ATOM      5  C   UNL d   1      26.371 -14.195  -3.516  0.00  0.00     0.066 A 
ATOM      6  C   UNL d   1      27.633 -13.587  -3.614  0.00  0.00     0.020 A 
ATOM      7  C   UNL d   1      27.841 -12.459  -4.428  0.00  0.00     0.008 A 
ATOM      8  C   UNL d   1      26.798 -11.912  -5.177  0.00  0.00    -0.059 A 
ATOM      9  C   UNL d   1      26.994 -10.723  -6.073  0.00  0.00     0.048 C 
ATOM     10  C   UNL d   1      25.534 -12.499  -5.081  0.00  0.00     0.044 A 
ATOM     11  C   UNL d   1      25.320 -13.617  -4.260  0.00  0.00     0.082 A 
BRANCH  11  12
ATOM     12  O   UNL d   1      24.027 -14.075  -4.250  0.00  0.00    -0.360 OA
ATOM     13  H   UNL d   1      23.500 -13.526  -4.868  0.00  0.00     0.217 HD
ENDBRANCH  11  12
ENDBRANCH   1   5
BRANCH   3  14
ATOM     14  N   UNL d   1      24.590 -16.820  -1.378  0.00  0.00    -0.267 N 
ATOM     15  C   UNL d   1      23.342 -16.979  -0.780  0.00  0.00     0.240 C 
ATOM     16  O   UNL d   1      22.420 -16.170  -0.889  0.00  0.00    -0.271 OA
ATOM     17  H   UNL d   1      25.334 -17.509  -1.294  0.00  0.00     0.190 HD
BRANCH  15  18
ATOM     18  C   UNL d   1      23.188 -18.252  -0.001  0.00  0.00     0.083 A 
ATOM     19  C   UNL d   1      23.212 -19.684  -0.517  0.00  0.00     0.019 A 
ATOM     20  C   UNL d   1      21.899 -19.049  -0.175  0.00  0.00    -0.005 A 
ATOM     21  C   UNL d   1      20.928 -18.727  -1.264  0.00  0.00     0.011 C 
ENDBRANCH  15  18
ENDBRANCH   3  14
TORSDOF 4
ENDMDL
MODEL 5
REMARK VINA RESULT:    -5.802      3.612      5.441
REMARK INTER + INTRA:          -8.673
REMARK INTER:                  -6.995
REMARK INTRA:                  -1.678
REMARK CONF_INDEPENDENT:        1.193
REMARK UNBOUND:                -1.678
REMARK  4 active torsions:
REMARK  status: ('A' for Active; 'I' for Inactive)
REMARK    1  A    between atoms: C_5  and  C_6 
REMARK       I    between atoms: C_6  and  N_8 
REMARK    2  A    between atoms: N_8  and  N_9 
REMARK       I    between atoms: N_9  and  C_10 
REMARK    3  A    between atoms: C_10  and  C_12 
REMARK    4  A    between atoms: C_16  and  O_17 
ROOT
ATOM      1  C   UNL d   1      26.015 -16.137  -1.646  0.00  0.00     0.272 C 
ATOM      2  O   UNL d   1      26.965 -15.874  -0.905  0.00  0.00    -0.266 OA
ATOM      3  N   UNL d   1      26.017 -15.819  -3.005  0.00  0.00    -0.263 N 
ATOM      4  H   UNL d   1      25.253 -16.013  -3.647  0.00  0.00     0.190 HD
ENDROOT
BRANCH   1   5
ATOM      5  C   UNL d   1      24.805 -16.835  -1.061  0.00  0.00     0.066 A 
ATOM      6  C   UNL d   1      23.501 -16.358  -1.270  0.00  0.00     0.020 A 
ATOM      7  C   UNL d   1      22.383 -17.028  -0.740  0.00  0.00     0.008 A 
ATOM      8  C   UNL d   1      22.534 -18.199   0.005  0.00  0.00    -0.059 A 
ATOM      9  C   UNL d   1      21.360 -18.950   0.564  0.00  0.00     0.048 C 
ATOM     10  C   UNL d   1      23.827 -18.680   0.230  0.00  0.00     0.044 A 
ATOM     11  C   UNL d   1      24.944 -18.007  -0.287  0.00  0.00     0.082 A 
BRANCH  11  12
ATOM     12  O   UNL d   1      26.149 -18.582   0.029  0.00  0.00    -0.360 OA
ATOM     13  H   UNL d   1      26.856 -17.919  -0.119  0.00  0.00     0.217 HD
ENDBRANCH  11  12
ENDBRANCH   1   5
BRANCH   3  14
ATOM     14  N   UNL d   1      27.145 -15.193  -3.603  0.00  0.00    -0.267 N 
ATOM     15  C   UNL d   1      27.244 -15.101  -4.989  0.00  0.00     0.240 C 
ATOM     16  O   UNL d   1      26.415 -15.570  -5.769  0.00  0.00    -0.271 OA
ATOM     17  H   UNL d   1      27.830 -14.781  -2.972  0.00  0.00     0.190 HD
BRANCH  15  18
ATOM     18  C   UNL d   1      28.443 -14.341  -5.474  0.00  0.00     0.083 A 
ATOM     19  C   UNL d   1      29.177 -14.481  -6.801  0.00  0.00     0.019 A 
ATOM     20  C   UNL d   1      29.774 -15.079  -5.564  0.00  0.00    -0.005 A 
ATOM     21  C   UNL d   1      29.849 -16.565  -5.424  0.00  0.00     0.011 C 
ENDBRANCH  15  18
ENDBRANCH   3  14
TORSDOF 4
ENDMDL
MODEL 6
REMARK VINA RESULT:    -5.719      5.138      8.852
REMARK INTER + INTRA:          -8.432
REMARK INTER:                  -6.912
REMARK INTRA:                  -1.520
REMARK CONF_INDEPENDENT:        1.193
REMARK UNBOUND:                -1.520
REMARK  4 active torsions:
REMARK  status: ('A' for Active; 'I' for Inactive)
REMARK    1  A    between atoms: C_5  and  C_6 
REMARK       I    between atoms: C_6  and  N_8 
REMARK    2  A    between atoms: N_8  and  N_9 
REMARK       I    between atoms: N_9  and  C_10 
REMARK    3  A    between atoms: C_10  and  C_12 
REMARK    4  A    between atoms: C_16  and  O_17 
ROOT
ATOM      1  C   UNL d   1      27.320 -13.601   2.535  0.00  0.00     0.272 C 
ATOM      2  O   UNL d   1      26.685 -12.756   1.899  0.00  0.00    -0.266 OA
ATOM      3  N   UNL d   1      27.638 -14.854   2.005  0.00  0.00    -0.263 N 
ATOM      4  H   UNL d   1      28.153 -15.577   2.498  0.00  0.00     0.190 HD
ENDROOT
BRANCH   1   5
ATOM      5  C   UNL d   1      27.778 -13.265   3.939  0.00  0.00     0.066 A 
ATOM      6  C   UNL d   1      27.850 -11.940   4.398  0.00  0.00     0.020 A 
ATOM      7  C   UNL d   1      28.256 -11.641   5.712  0.00  0.00     0.008 A 
ATOM      8  C   UNL d   1      28.590 -12.658   6.608  0.00  0.00    -0.059 A 
ATOM      9  C   UNL d   1      29.005 -12.372   8.023  0.00  0.00     0.048 C 
ATOM     10  C   UNL d   1      28.534 -13.980   6.162  0.00  0.00     0.044 A 
ATOM     11  C   UNL d   1      28.142 -14.281   4.849  0.00  0.00     0.082 A 
BRANCH  11  12
ATOM     12  O   UNL d   1      28.151 -15.619   4.546  0.00  0.00    -0.360 OA
ATOM     13  H   UNL d   1      28.942 -15.806   3.999  0.00  0.00     0.217 HD
ENDBRANCH  11  12
ENDBRANCH   1   5
BRANCH   3  14
ATOM     14  N   UNL d   1      27.257 -15.198   0.679  0.00  0.00    -0.267 N 
ATOM     15  C   UNL d   1      26.954 -16.519   0.357  0.00  0.00     0.240 C 
ATOM     16  O   UNL d   1      27.030 -17.454   1.154  0.00  0.00    -0.271 OA
ATOM     17  H   UNL d   1      27.169 -14.433   0.013  0.00  0.00     0.190 HD
BRANCH  15  18
ATOM     18  C   UNL d   1      26.486 -16.719  -1.054  0.00  0.00     0.083 A 
ATOM     19  C   UNL d   1      25.413 -15.949  -1.812  0.00  0.00     0.019 A 
ATOM     20  C   UNL d   1      25.098 -17.311  -1.273  0.00  0.00    -0.005 A 
ATOM     21  C   UNL d   1      24.127 -17.453  -0.145  0.00  0.00     0.011 C 
ENDBRANCH  15  18
ENDBRANCH   3  14
TORSDOF 4
ENDMDL
MODEL 7
REMARK VINA RESULT:    -5.661      4.333      8.891
REMARK INTER + INTRA:          -8.588
REMARK INTER:                  -6.854
REMARK INTRA:                  -1.734
REMARK CONF_INDEPENDENT:        1.193
REMARK UNBOUND:                -1.734
REMARK  4 active torsions:
REMARK  status: ('A' for Active; 'I' for Inactive)
REMARK    1  A    between atoms: C_5  and  C_6 
REMARK       I    between atoms: C_6  and  N_8 
REMARK    2  A    between atoms: N_8  and  N_9 
REMARK       I    between atoms: N_9  and  C_10 
REMARK    3  A    between atoms: C_10  and  C_12 
REMARK    4  A    between atoms: C_16  and  O_17 
ROOT
ATOM      1  C   UNL d   1      25.364 -14.510  -3.938  0.00  0.00     0.272 C 
ATOM      2  O   UNL d   1      24.240 -14.027  -4.093  0.00  0.00    -0.266 OA
ATOM      3  N   UNL d   1      25.649 -15.431  -2.928  0.00  0.00    -0.263 N 
ATOM      4  H   UNL d   1      26.561 -15.847  -2.764  0.00  0.00     0.190 HD
ENDROOT
BRANCH   1   5
ATOM      5  C   UNL d   1      26.473 -14.095  -4.881  0.00  0.00     0.066 A 
ATOM      6  C   UNL d   1      27.465 -14.995  -5.301  0.00  0.00     0.020 A 
ATOM      7  C   UNL d   1      28.479 -14.604  -6.195  0.00  0.00     0.008 A 
ATOM      8  C   UNL d   1      28.523 -13.305  -6.705  0.00  0.00    -0.059 A 
ATOM      9  C   UNL d   1      29.578 -12.863  -7.679  0.00  0.00     0.048 C 
ATOM     10  C   UNL d   1      27.548 -12.395  -6.289  0.00  0.00     0.044 A 
ATOM     11  C   UNL d   1      26.544 -12.779  -5.387  0.00  0.00     0.082 A 
BRANCH  11  12
ATOM     12  O   UNL d   1      25.667 -11.778  -5.053  0.00  0.00    -0.360 OA
ATOM     13  H   UNL d   1      24.780 -12.175  -4.923  0.00  0.00     0.217 HD
ENDBRANCH  11  12
ENDBRANCH   1   5
BRANCH   3  14
ATOM     14  N   UNL d   1      24.630 -15.874  -2.041  0.00  0.00    -0.267 N 
ATOM     15  C   UNL d   1      24.911 -16.835  -1.073  0.00  0.00     0.240 C 
ATOM     16  O   UNL d   1      26.008 -17.380  -0.945  0.00  0.00    -0.271 OA
ATOM     17  H   UNL d   1      23.722 -15.419  -2.119  0.00  0.00     0.190 HD
BRANCH  15  18
ATOM     18  C   UNL d   1      23.766 -17.142  -0.155  0.00  0.00     0.083 A 
ATOM     19  C   UNL d   1      23.482 -18.431   0.605  0.00  0.00     0.019 A 
ATOM     20  C   UNL d   1      22.701 -18.122  -0.636  0.00  0.00    -0.005 A 
ATOM     21  C   UNL d   1      22.905 -18.950  -1.863  0.00  0.00     0.011 C 
ENDBRANCH  15  18
ENDBRANCH   3  14
TORSDOF 4
ENDMDL
MODEL 8
REMARK VINA RESULT:    -5.652      1.645      7.524
REMARK INTER + INTRA:          -8.291
REMARK INTER:                  -6.845
REMARK INTRA:                  -1.447
REMARK CONF_INDEPENDENT:        1.193
REMARK UNBOUND:                -1.447
REMARK  4 active torsions:
REMARK  status: ('A' for Active; 'I' for Inactive)
REMARK    1  A    between atoms: C_5  and  C_6 
REMARK       I    between atoms: C_6  and  N_8 
REMARK    2  A    between atoms: N_8  and  N_9 
REMARK       I    between atoms: N_9  and  C_10 
REMARK    3  A    between atoms: C_10  and  C_12 
REMARK    4  A    between atoms: C_16  and  O_17 
ROOT
ATOM      1  C   UNL d   1      24.932 -17.269  -1.547  0.00  0.00     0.272 C 
ATOM      2  O   UNL d   1      24.771 -17.277  -2.770  0.00  0.00    -0.266 OA
ATOM      3  N   UNL d   1      24.032 -17.878  -0.670  0.00  0.00    -0.263 N 
ATOM      4  H   UNL d   1      24.126 -17.889   0.341  0.00  0.00     0.190 HD
ENDROOT
BRANCH   1   5
ATOM      5  C   UNL d   1      26.153 -16.579  -0.976  0.00  0.00     0.066 A 
ATOM      6  C   UNL d   1      26.778 -15.511  -1.639  0.00  0.00     0.020 A 
ATOM      7  C   UNL d   1      27.900 -14.863  -1.089  0.00  0.00     0.008 A 
ATOM      8  C   UNL d   1      28.423 -15.257   0.144  0.00  0.00    -0.059 A 
ATOM      9  C   UNL d   1      29.604 -14.571   0.769  0.00  0.00     0.048 C 
ATOM     10  C   UNL d   1      27.818 -16.326   0.810  0.00  0.00     0.044 A 
ATOM     11  C   UNL d   1      26.707 -16.982   0.258  0.00  0.00     0.082 A 
BRANCH  11  12
ATOM     12  O   UNL d   1      26.230 -18.023   1.013  0.00  0.00    -0.360 OA
ATOM     13  H   UNL d   1      26.984 -18.600   1.254  0.00  0.00     0.217 HD
ENDBRANCH  11  12
ENDBRANCH   1   5
BRANCH   3  14
ATOM     14  N   UNL d   1      22.890 -18.566  -1.165  0.00  0.00    -0.267 N 
ATOM     15  C   UNL d   1      21.821 -18.850  -0.318  0.00  0.00     0.240 C 
ATOM     16  O   UNL d   1      21.804 -18.575   0.882  0.00  0.00    -0.271 OA
ATOM     17  H   UNL d   1      22.879 -18.782  -2.159  0.00  0.00     0.190 HD
BRANCH  15  18
ATOM     18  C   UNL d   1      20.652 -19.501  -0.995  0.00  0.00     0.083 A 
ATOM     19  C   UNL d   1      19.175 -19.147  -0.879  0.00  0.00     0.019 A 
ATOM     20  C   UNL d   1      19.705 -20.341  -0.145  0.00  0.00    -0.005 A 
ATOM     21  C   UNL d   1      19.775 -20.319   1.348  0.00  0.00     0.011 C 
ENDBRANCH  15  18
ENDBRANCH   3  14
TORSDOF 4
ENDMDL
MODEL 9
REMARK VINA RESULT:    -5.272      4.543      8.932
REMARK INTER + INTRA:          -8.188
REMARK INTER:                  -6.466
REMARK INTRA:                  -1.722
REMARK CONF_INDEPENDENT:        1.193
REMARK UNBOUND:                -1.722
REMARK  4 active torsions:
REMARK  status: ('A' for Active; 'I' for Inactive)
REMARK    1  A    between atoms: C_5  and  C_6 
REMARK       I    between atoms: C_6  and  N_8 
REMARK    2  A    between atoms: N_8  and  N_9 
REMARK       I    between atoms: N_9  and  C_10 
REMARK    3  A    between atoms: C_10  and  C_12 
REMARK    4  A    between atoms: C_16  and  O_17 
ROOT
ATOM      1  C   UNL d   1      25.843 -15.081  -4.208  0.00  0.00     0.272 C 
ATOM      2  O   UNL d   1      25.530 -15.971  -5.002  0.00  0.00    -0.266 OA
ATOM      3  N   UNL d   1      25.683 -15.221  -2.828  0.00  0.00    -0.263 N 
ATOM      4  H   UNL d   1      25.923 -14.511  -2.142  0.00  0.00     0.190 HD
ENDROOT
BRANCH   1   5
ATOM      5  C   UNL d   1      26.429 -13.794  -4.748  0.00  0.00     0.066 A 
ATOM      6  C   UNL d   1      26.040 -12.538  -4.255  0.00  0.00     0.020 A 
ATOM      7  C   UNL d   1      26.608 -11.349  -4.750  0.00  0.00     0.008 A 
ATOM      8  C   UNL d   1      27.588 -11.381  -5.743  0.00  0.00    -0.059 A 
ATOM      9  C   UNL d   1      28.229 -10.132  -6.275  0.00  0.00     0.048 C 
ATOM     10  C   UNL d   1      27.977 -12.623  -6.251  0.00  0.00     0.044 A 
ATOM     11  C   UNL d   1      27.404 -13.809  -5.768  0.00  0.00     0.082 A 
BRANCH  11  12
ATOM     12  O   UNL d   1      27.869 -14.951  -6.371  0.00  0.00    -0.360 OA
ATOM     13  H   UNL d   1      27.516 -15.724  -5.882  0.00  0.00     0.217 HD
ENDBRANCH  11  12
ENDBRANCH   1   5
BRANCH   3  14
ATOM     14  N   UNL d   1      25.168 -16.426  -2.275  0.00  0.00    -0.267 N 
ATOM     15  C   UNL d   1      25.150 -16.613  -0.895  0.00  0.00     0.240 C 
ATOM     16  O   UNL d   1      25.598 -15.800  -0.086  0.00  0.00    -0.271 OA
ATOM     17  H   UNL d   1      24.774 -17.100  -2.928  0.00  0.00     0.190 HD
BRANCH  15  18
ATOM     18  C   UNL d   1      24.501 -17.891  -0.453  0.00  0.00     0.083 A 
ATOM     19  C   UNL d   1      23.530 -18.774  -1.224  0.00  0.00     0.019 A 
ATOM     20  C   UNL d   1      23.007 -17.870  -0.150  0.00  0.00    -0.005 A 
ATOM     21  C   UNL d   1      22.155 -16.699  -0.520  0.00  0.00     0.011 C 
ENDBRANCH  15  18
ENDBRANCH   3  14
TORSDOF 4
ENDMDL
