MODEL 1
REMARK VINA RESULT:   -31.884      0.000      0.000
REMARK INTER + INTRA:         -33.488
REMARK INTER:                 -32.779
REMARK INTRA:                  -0.709
REMARK CONF_INDEPENDENT:        0.895
REMARK UNBOUND:                -0.709
REMARK  3 active torsions:
REMARK  status: ('A' for Active; 'I' for Inactive)
REMARK    1  A    between atoms: C_5  and  N_6 
REMARK    2  A    between atoms: N_6  and  C_7 
REMARK       I    between atoms: N_10  and  C_11 
REMARK    3  A    between atoms: C_11  and  C_13 
ROOT
ATOM      1  C   UNL d   1      22.817 -17.785  -1.267  0.00  0.00     0.086 C 
ATOM      2  C   UNL d   1      23.700 -18.934  -0.757  0.00  0.00     0.045 C 
ATOM      3  C   UNL d   1      24.690 -18.575   0.372  0.00  0.00     0.128 C 
ATOM      4  N   UNL d   1      25.423 -17.362   0.076  0.00  0.00    -0.348 N 
ATOM      5  C   UNL d   1      26.824 -17.392   0.110  0.00  0.00     0.256 C 
ATOM      6  O   UNL d   1      27.467 -18.416   0.381  0.00  0.00    -0.267 OA
ATOM      7  C   UNL d   1      24.562 -16.196  -0.146  0.00  0.00     0.128 C 
ATOM      8  C   UNL d   1      23.581 -16.446  -1.289  0.00  0.00     0.045 C 
ENDROOT
BRANCH   1   9
ATOM      9  N   UNL d   1      21.366 -17.842  -0.893  0.00  0.00    -0.369 N 
ATOM     10  H   UNL d   1      20.802 -17.208  -1.465  0.00  0.00     0.161 HD
BRANCH   9  11
ATOM     11  C   UNL d   1      20.592 -18.936  -0.523  0.00  0.00     0.143 C 
ATOM     12  C   UNL d   1      20.813 -19.555   0.677  0.00  0.00     0.054 C 
ATOM     13  C   UNL d   1      19.904 -20.419   1.224  0.00  0.00     0.030 C 
ATOM     14  C   UNL d   1      18.783 -20.722   0.490  0.00  0.00     0.024 C 
ATOM     15  C   UNL d   1      17.704 -21.553   1.101  0.00  0.00     0.070 C 
ATOM     16  N   UNL d   1      18.674 -20.238  -0.763  0.00  0.00    -0.281 N 
ATOM     17  N   UNL d   1      19.530 -19.325  -1.267  0.00  0.00    -0.157 NA
ATOM     18  H   UNL d   1      17.897 -20.553  -1.351  0.00  0.00     0.189 HD
ENDBRANCH   9  11
ENDBRANCH   1   9
BRANCH   5  19
ATOM     19  C   UNL d   1      27.580 -16.163  -0.205  0.00  0.00     0.070 C 
ATOM     20  C   UNL d   1      28.232 -15.458   0.814  0.00  0.00     0.022 C 
ATOM     21  C   UNL d   1      28.662 -14.151   0.574  0.00  0.00     0.025 C 
ATOM     22  C   UNL d   1      28.589 -13.620  -0.714  0.00  0.00     0.037 C 
ATOM     23 CL   UNL d   1      29.030 -11.979  -0.981  0.00  0.00    -0.084 Cl
ATOM     24  C   UNL d   1      28.122 -14.396  -1.771  0.00  0.00     0.067 C 
ATOM     25  C   UNL d   1      27.576 -15.650  -1.503  0.00  0.00     0.133 C 
ATOM     26  F   UNL d   1      26.989 -16.316  -2.507  0.00  0.00    -0.205 F 
ENDBRANCH   5  19
TORSDOF 3
ENDMDL
MODEL 2
REMARK VINA RESULT:   -31.455      1.820      2.193
REMARK INTER + INTRA:         -32.656
REMARK INTER:                 -32.350
REMARK INTRA:                  -0.306
REMARK CONF_INDEPENDENT:        0.895
REMARK UNBOUND:                -0.306
REMARK  3 active torsions:
REMARK  status: ('A' for Active; 'I' for Inactive)
REMARK    1  A    between atoms: C_5  and  N_6 
REMARK    2  A    between atoms: N_6  and  C_7 
REMARK       I    between atoms: N_10  and  C_11 
REMARK    3  A    between atoms: C_11  and  C_13 
ROOT
ATOM      1  C   UNL d   1      23.481 -18.135  -1.071  0.00  0.00     0.086 C 
ATOM      2  C   UNL d   1      24.546 -18.722  -0.134  0.00  0.00     0.045 C 
ATOM      3  C   UNL d   1      25.618 -17.733   0.374  0.00  0.00     0.128 C 
ATOM      4  N   UNL d   1      26.164 -16.935  -0.704  0.00  0.00    -0.348 N 
ATOM      5  C   UNL d   1      27.552 -16.912  -0.894  0.00  0.00     0.256 C 
ATOM      6  O   UNL d   1      28.337 -17.549  -0.178  0.00  0.00    -0.267 OA
ATOM      7  C   UNL d   1      25.153 -16.160  -1.430  0.00  0.00     0.128 C 
ATOM      8  C   UNL d   1      24.076 -17.071  -2.015  0.00  0.00     0.045 C 
ENDROOT
BRANCH   1   9
ATOM      9  N   UNL d   1      22.102 -17.981  -0.502  0.00  0.00    -0.369 N 
ATOM     10  H   UNL d   1      21.728 -17.042  -0.662  0.00  0.00     0.161 HD
BRANCH   9  11
ATOM     11  C   UNL d   1      21.053 -18.893  -0.470  0.00  0.00     0.143 C 
ATOM     12  C   UNL d   1      21.183 -20.061   0.230  0.00  0.00     0.054 C 
ATOM     13  C   UNL d   1      20.103 -20.838   0.550  0.00  0.00     0.030 C 
ATOM     14  C   UNL d   1      18.874 -20.455   0.072  0.00  0.00     0.024 C 
ATOM     15  C   UNL d   1      17.652 -21.197   0.506  0.00  0.00     0.070 C 
ATOM     16  N   UNL d   1      18.797 -19.400  -0.762  0.00  0.00    -0.281 N 
ATOM     17  N   UNL d   1      19.849 -18.591  -1.010  0.00  0.00    -0.157 NA
ATOM     18  H   UNL d   1      17.901 -19.183  -1.207  0.00  0.00     0.189 HD
ENDBRANCH   9  11
ENDBRANCH   1   9
BRANCH   5  19
ATOM     19  C   UNL d   1      28.116 -16.112  -2.000  0.00  0.00     0.070 C 
ATOM     20  C   UNL d   1      27.560 -14.870  -2.323  0.00  0.00     0.022 C 
ATOM     21  C   UNL d   1      27.877 -14.277  -3.547  0.00  0.00     0.025 C 
ATOM     22  C   UNL d   1      28.862 -14.840  -4.359  0.00  0.00     0.037 C 
ATOM     23 CL   UNL d   1      29.178 -14.159  -5.907  0.00  0.00    -0.084 Cl
ATOM     24  C   UNL d   1      29.558 -15.971  -3.942  0.00  0.00     0.067 C 
ATOM     25  C   UNL d   1      29.149 -16.630  -2.783  0.00  0.00     0.133 C 
ATOM     26  F   UNL d   1      29.725 -17.802  -2.481  0.00  0.00    -0.205 F 
ENDBRANCH   5  19
TORSDOF 3
ENDMDL
MODEL 3
REMARK VINA RESULT:   -31.190      1.879      2.283
REMARK INTER + INTRA:         -32.626
REMARK INTER:                 -32.085
REMARK INTRA:                  -0.541
REMARK CONF_INDEPENDENT:        0.895
REMARK UNBOUND:                -0.541
REMARK  3 active torsions:
REMARK  status: ('A' for Active; 'I' for Inactive)
REMARK    1  A    between atoms: C_5  and  N_6 
REMARK    2  A    between atoms: N_6  and  C_7 
REMARK       I    between atoms: N_10  and  C_11 
REMARK    3  A    between atoms: C_11  and  C_13 
ROOT
ATOM      1  C   UNL d   1      22.937 -17.384  -0.644  0.00  0.00     0.086 C 
ATOM      2  C   UNL d   1      22.972 -15.952  -1.197  0.00  0.00     0.045 C 
ATOM      3  C   UNL d   1      24.224 -15.576  -2.019  0.00  0.00     0.128 C 
ATOM      4  N   UNL d   1      25.445 -15.975  -1.351  0.00  0.00    -0.348 N 
ATOM      5  C   UNL d   1      26.438 -15.013  -1.121  0.00  0.00     0.256 C 
ATOM      6  O   UNL d   1      26.316 -13.829  -1.465  0.00  0.00    -0.267 OA
ATOM      7  C   UNL d   1      25.515 -17.412  -1.067  0.00  0.00     0.128 C 
ATOM      8  C   UNL d   1      24.336 -17.862  -0.208  0.00  0.00     0.045 C 
ENDROOT
BRANCH   1   9
ATOM      9  N   UNL d   1      21.965 -18.325  -1.292  0.00  0.00    -0.369 N 
ATOM     10  H   UNL d   1      22.378 -18.801  -2.099  0.00  0.00     0.161 HD
BRANCH   9  11
ATOM     11  C   UNL d   1      21.015 -19.154  -0.706  0.00  0.00     0.143 C 
ATOM     12  C   UNL d   1      21.254 -19.706   0.523  0.00  0.00     0.054 C 
ATOM     13  C   UNL d   1      20.254 -20.265   1.272  0.00  0.00     0.030 C 
ATOM     14  C   UNL d   1      19.000 -20.336   0.717  0.00  0.00     0.024 C 
ATOM     15  C   UNL d   1      17.854 -20.815   1.547  0.00  0.00     0.070 C 
ATOM     16  N   UNL d   1      18.829 -19.948  -0.562  0.00  0.00    -0.281 N 
ATOM     17  N   UNL d   1      19.795 -19.325  -1.268  0.00  0.00    -0.157 NA
ATOM     18  H   UNL d   1      17.923 -20.106  -1.011  0.00  0.00     0.189 HD
ENDBRANCH   9  11
ENDBRANCH   1   9
BRANCH   5  19
ATOM     19  C   UNL d   1      27.679 -15.409  -0.427  0.00  0.00     0.070 C 
ATOM     20  C   UNL d   1      28.073 -14.745   0.740  0.00  0.00     0.022 C 
ATOM     21  C   UNL d   1      29.382 -14.896   1.204  0.00  0.00     0.025 C 
ATOM     22  C   UNL d   1      30.231 -15.825   0.601  0.00  0.00     0.037 C 
ATOM     23 CL   UNL d   1      31.869 -15.935   1.115  0.00  0.00    -0.084 Cl
ATOM     24  C   UNL d   1      29.772 -16.629  -0.438  0.00  0.00     0.067 C 
ATOM     25  C   UNL d   1      28.511 -16.385  -0.979  0.00  0.00     0.133 C 
ATOM     26  F   UNL d   1      28.148 -17.061  -2.078  0.00  0.00    -0.205 F 
ENDBRANCH   5  19
TORSDOF 3
ENDMDL
MODEL 4
REMARK VINA RESULT:   -31.176      1.330      1.569
REMARK INTER + INTRA:         -32.699
REMARK INTER:                 -32.071
REMARK INTRA:                  -0.628
REMARK CONF_INDEPENDENT:        0.895
REMARK UNBOUND:                -0.628
REMARK  3 active torsions:
REMARK  status: ('A' for Active; 'I' for Inactive)
REMARK    1  A    between atoms: C_5  and  N_6 
REMARK    2  A    between atoms: N_6  and  C_7 
REMARK       I    between atoms: N_10  and  C_11 
REMARK    3  A    between atoms: C_11  and  C_13 
ROOT
ATOM      1  C   UNL d   1      22.995 -18.081  -0.700  0.00  0.00     0.086 C 
ATOM      2  C   UNL d   1      24.288 -18.866  -0.435  0.00  0.00     0.045 C 
ATOM      3  C   UNL d   1      25.452 -18.061   0.183  0.00  0.00     0.128 C 
ATOM      4  N   UNL d   1      25.662 -16.805  -0.507  0.00  0.00    -0.348 N 
ATOM      5  C   UNL d   1      26.938 -16.511  -1.005  0.00  0.00     0.256 C 
ATOM      6  O   UNL d   1      27.900 -17.282  -0.882  0.00  0.00    -0.267 OA
ATOM      7  C   UNL d   1      24.480 -15.938  -0.518  0.00  0.00     0.128 C 
ATOM      8  C   UNL d   1      23.288 -16.640  -1.165  0.00  0.00     0.045 C 
ENDROOT
BRANCH   1   9
ATOM      9  N   UNL d   1      21.835 -18.383   0.201  0.00  0.00    -0.369 N 
ATOM     10  H   UNL d   1      21.446 -17.532   0.616  0.00  0.00     0.161 HD
BRANCH   9  11
ATOM     11  C   UNL d   1      20.824 -19.325   0.052  0.00  0.00     0.143 C 
ATOM     12  C   UNL d   1      20.697 -20.342   0.958  0.00  0.00     0.054 C 
ATOM     13  C   UNL d   1      19.562 -21.102   1.040  0.00  0.00     0.030 C 
ATOM     14  C   UNL d   1      18.568 -20.871   0.121  0.00  0.00     0.024 C 
ATOM     15  C   UNL d   1      17.262 -21.583   0.255  0.00  0.00     0.070 C 
ATOM     16  N   UNL d   1      18.789 -19.986  -0.871  0.00  0.00    -0.281 N 
ATOM     17  N   UNL d   1      19.873 -19.184  -0.901  0.00  0.00    -0.157 NA
ATOM     18  H   UNL d   1      18.096 -19.897  -1.619  0.00  0.00     0.189 HD
ENDBRANCH   9  11
ENDBRANCH   1   9
BRANCH   5  19
ATOM     19  C   UNL d   1      27.157 -15.239  -1.723  0.00  0.00     0.070 C 
ATOM     20  C   UNL d   1      27.995 -14.259  -1.177  0.00  0.00     0.022 C 
ATOM     21  C   UNL d   1      27.945 -12.959  -1.683  0.00  0.00     0.025 C 
ATOM     22  C   UNL d   1      27.191 -12.685  -2.824  0.00  0.00     0.037 C 
ATOM     23 CL   UNL d   1      27.058 -11.063  -3.384  0.00  0.00    -0.084 Cl
ATOM     24  C   UNL d   1      26.514 -13.706  -3.485  0.00  0.00     0.067 C 
ATOM     25  C   UNL d   1      26.463 -14.972  -2.904  0.00  0.00     0.133 C 
ATOM     26  F   UNL d   1      25.678 -15.900  -3.469  0.00  0.00    -0.205 F 
ENDBRANCH   5  19
TORSDOF 3
ENDMDL
MODEL 5
REMARK VINA RESULT:   -31.072      1.375      1.704
REMARK INTER + INTRA:         -32.520
REMARK INTER:                 -31.967
REMARK INTRA:                  -0.553
REMARK CONF_INDEPENDENT:        0.895
REMARK UNBOUND:                -0.553
REMARK  3 active torsions:
REMARK  status: ('A' for Active; 'I' for Inactive)
REMARK    1  A    between atoms: C_5  and  N_6 
REMARK    2  A    between atoms: N_6  and  C_7 
REMARK       I    between atoms: N_10  and  C_11 
REMARK    3  A    between atoms: C_11  and  C_13 
ROOT
ATOM      1  C   UNL d   1      23.307 -18.196  -1.203  0.00  0.00     0.086 C 
ATOM      2  C   UNL d   1      24.241 -18.837  -0.167  0.00  0.00     0.045 C 
ATOM      3  C   UNL d   1      25.248 -17.884   0.514  0.00  0.00     0.128 C 
ATOM      4  N   UNL d   1      25.931 -17.047  -0.450  0.00  0.00    -0.348 N 
ATOM      5  C   UNL d   1      27.332 -17.034  -0.464  0.00  0.00     0.256 C 
ATOM      6  O   UNL d   1      28.017 -17.711   0.316  0.00  0.00    -0.267 OA
ATOM      7  C   UNL d   1      25.025 -16.229  -1.262  0.00  0.00     0.128 C 
ATOM      8  C   UNL d   1      24.023 -17.099  -2.016  0.00  0.00     0.045 C 
ENDROOT
BRANCH   1   9
ATOM      9  N   UNL d   1      21.868 -18.049  -0.804  0.00  0.00    -0.369 N 
ATOM     10  H   UNL d   1      21.404 -17.302  -1.327  0.00  0.00     0.161 HD
BRANCH   9  11
ATOM     11  C   UNL d   1      20.938 -19.030  -0.481  0.00  0.00     0.143 C 
ATOM     12  C   UNL d   1      21.029 -19.693   0.712  0.00  0.00     0.054 C 
ATOM     13  C   UNL d   1      19.990 -20.430   1.212  0.00  0.00     0.030 C 
ATOM     14  C   UNL d   1      18.864 -20.560   0.437  0.00  0.00     0.024 C 
ATOM     15  C   UNL d   1      17.659 -21.242   0.997  0.00  0.00     0.070 C 
ATOM     16  N   UNL d   1      18.866 -20.045  -0.808  0.00  0.00    -0.281 N 
ATOM     17  N   UNL d   1      19.858 -19.253  -1.266  0.00  0.00    -0.157 NA
ATOM     18  H   UNL d   1      18.073 -20.239  -1.426  0.00  0.00     0.189 HD
ENDBRANCH   9  11
ENDBRANCH   1   9
BRANCH   5  19
ATOM     19  C   UNL d   1      28.037 -16.194  -1.454  0.00  0.00     0.070 C 
ATOM     20  C   UNL d   1      28.938 -16.775  -2.353  0.00  0.00     0.022 C 
ATOM     21  C   UNL d   1      29.827 -15.958  -3.055  0.00  0.00     0.025 C 
ATOM     22  C   UNL d   1      29.702 -14.570  -2.980  0.00  0.00     0.037 C 
ATOM     23 CL   UNL d   1      30.860 -13.571  -3.769  0.00  0.00    -0.084 Cl
ATOM     24  C   UNL d   1      28.676 -13.993  -2.238  0.00  0.00     0.067 C 
ATOM     25  C   UNL d   1      27.874 -14.808  -1.440  0.00  0.00     0.133 C 
ATOM     26  F   UNL d   1      26.996 -14.223  -0.613  0.00  0.00    -0.205 F 
ENDBRANCH   5  19
TORSDOF 3
ENDMDL
