MODEL 1
REMARK VINA RESULT:   -25.238      0.000      0.000
REMARK INTER + INTRA:         -29.325
REMARK INTER:                 -28.221
REMARK INTRA:                  -1.104
REMARK CONF_INDEPENDENT:        2.983
REMARK UNBOUND:                -1.104
REMARK  10 active torsions:
REMARK  status: ('A' for Active; 'I' for Inactive)
REMARK    1  A    between atoms: N_6  and  C_7 
REMARK    2  A    between atoms: C_9  and  C_10 
REMARK    3  A    between atoms: C_10  and  C_11 
REMARK    4  A    between atoms: C_15  and  S_16 
REMARK    5  A    between atoms: S_16  and  C_17 
REMARK    6  A    between atoms: C_17  and  C_18 
REMARK    7  A    between atoms: C_18  and  C_19 
REMARK       I    between atoms: C_19  and  N_21 
REMARK    8  A    between atoms: N_21  and  C_22 
REMARK    9  A    between atoms: C_26  and  C_27 
REMARK   10  A    between atoms: C_27  and  N_28 
ROOT
ATOM      1  C   UNL d   1      23.567 -14.205  -3.209  0.00  0.00     0.090 C 
ENDROOT
BRANCH   1   2
ATOM      2  S   UNL d   1      22.172 -14.528  -2.018  0.00  0.00    -0.109 SA
BRANCH   2   3
ATOM      3  C   UNL d   1      22.507 -16.151  -1.304  0.00  0.00     0.114 C 
ATOM      4  C   UNL d   1      23.781 -16.609  -1.104  0.00  0.00     0.067 C 
ATOM      5  C   UNL d   1      23.984 -17.761  -0.359  0.00  0.00     0.057 C 
ATOM      6  N   UNL d   1      22.947 -18.488   0.079  0.00  0.00    -0.065 NA
ATOM      7  C   UNL d   1      21.713 -18.065  -0.304  0.00  0.00     0.751 C 
ATOM      8  N   UNL d   1      21.455 -16.904  -0.960  0.00  0.00    -0.054 NA
BRANCH   5   9
ATOM      9  C   UNL d   1      25.383 -18.227   0.009  0.00  0.00     0.064 C 
BRANCH   9  10
ATOM     10  C   UNL d   1      26.504 -17.294  -0.505  0.00  0.00    -0.017 C 
ATOM     11  C   UNL d   1      26.447 -15.905   0.158  0.00  0.00     0.010 C 
ATOM     12  C   UNL d   1      27.890 -17.878  -0.266  0.00  0.00     0.010 C 
ENDBRANCH   9  10
ENDBRANCH   5   9
BRANCH   7  13
ATOM     13  N   UNL d   1      20.598 -18.893   0.046  0.00  0.00    -0.064 N 
ATOM     14  C   UNL d   1      20.270 -19.350   1.311  0.00  0.00     0.052 A 
ATOM     15  C   UNL d   1      19.131 -20.107   1.163  0.00  0.00     0.056 A 
ATOM     16  C   UNL d   1      20.990 -18.950   2.542  0.00  0.00     0.071 C 
ATOM     17  C   UNL d   1      18.854 -20.102  -0.217  0.00  0.00     0.054 A 
ATOM     18  C   UNL d   1      17.755 -20.821  -0.904  0.00  0.00     0.072 C 
ATOM     19  N   UNL d   1      19.705 -19.325  -0.895  0.00  0.00    -0.158 NA
ENDBRANCH   7  13
ENDBRANCH   2   3
ENDBRANCH   1   2
BRANCH   1  20
ATOM     20  C   UNL d   1      24.913 -14.841  -2.745  0.00  0.00     0.113 C 
BRANCH  20  21
ATOM     21  C   UNL d   1      25.851 -15.158  -3.953  0.00  0.00     0.222 C 
ATOM     22  O   UNL d   1      25.364 -15.523  -5.010  0.00  0.00    -0.273 OA
ATOM     23  N   UNL d   1      27.247 -15.031  -3.753  0.00  0.00    -0.327 N 
ATOM     24  H   UNL d   1      27.573 -15.067  -2.796  0.00  0.00     0.169 HD
BRANCH  23  25
ATOM     25  C   UNL d   1      28.275 -15.079  -4.786  0.00  0.00     0.035 C 
ATOM     26  C   UNL d   1      28.218 -14.498  -6.022  0.00  0.00     0.029 C 
ATOM     27  C   UNL d   1      29.202 -14.833  -7.011  0.00  0.00     0.003 C 
ATOM     28  C   UNL d   1      30.197 -15.836  -6.825  0.00  0.00     0.009 C 
ATOM     29  C   UNL d   1      30.211 -16.511  -5.625  0.00  0.00    -0.030 C 
ATOM     30  C   UNL d   1      29.332 -15.964  -4.690  0.00  0.00     0.038 C 
BRANCH  29  31
ATOM     31  C   UNL d   1      31.019 -17.748  -5.221  0.00  0.00     0.273 C 
BRANCH  31  32
ATOM     32  N   UNL d   1      32.626 -17.663  -5.248  0.00  0.00    -0.067 N 
ATOM     33  C   UNL d   1      33.251 -16.370  -4.694  0.00  0.00     0.235 C 
ATOM     34  C   UNL d   1      33.512 -15.502  -5.901  0.00  0.00     0.029 C 
ATOM     35  C   UNL d   1      33.908 -16.536  -6.969  0.00  0.00     0.029 C 
ATOM     36  C   UNL d   1      33.305 -17.907  -6.597  0.00  0.00     0.235 C 
ATOM     37  H   UNL d   1      32.936 -18.430  -4.637  0.00  0.00     0.280 HD
ENDBRANCH  31  32
ENDBRANCH  29  31
ENDBRANCH  23  25
ENDBRANCH  20  21
ENDBRANCH   1  20
TORSDOF 10
ENDMDL
MODEL 2
REMARK VINA RESULT:   -24.787      2.026      3.044
REMARK INTER + INTRA:         -29.576
REMARK INTER:                 -27.770
REMARK INTRA:                  -1.806
REMARK CONF_INDEPENDENT:        2.983
REMARK UNBOUND:                -1.806
REMARK  10 active torsions:
REMARK  status: ('A' for Active; 'I' for Inactive)
REMARK    1  A    between atoms: N_6  and  C_7 
REMARK    2  A    between atoms: C_9  and  C_10 
REMARK    3  A    between atoms: C_10  and  C_11 
REMARK    4  A    between atoms: C_15  and  S_16 
REMARK    5  A    between atoms: S_16  and  C_17 
REMARK    6  A    between atoms: C_17  and  C_18 
REMARK    7  A    between atoms: C_18  and  C_19 
REMARK       I    between atoms: C_19  and  N_21 
REMARK    8  A    between atoms: N_21  and  C_22 
REMARK    9  A    between atoms: C_26  and  C_27 
REMARK   10  A    between atoms: C_27  and  N_28 
ROOT
ATOM      1  C   UNL d   1      23.858 -14.382  -3.163  0.00  0.00     0.090 C 
ENDROOT
BRANCH   1   2
ATOM      2  S   UNL d   1      22.418 -14.656  -2.015  0.00  0.00    -0.109 SA
BRANCH   2   3
ATOM      3  C   UNL d   1      22.663 -16.298  -1.310  0.00  0.00     0.114 C 
ATOM      4  C   UNL d   1      23.909 -16.831  -1.121  0.00  0.00     0.067 C 
ATOM      5  C   UNL d   1      24.051 -17.995  -0.382  0.00  0.00     0.057 C 
ATOM      6  N   UNL d   1      22.976 -18.663   0.061  0.00  0.00    -0.065 NA
ATOM      7  C   UNL d   1      21.766 -18.167  -0.311  0.00  0.00     0.751 C 
ATOM      8  N   UNL d   1      21.571 -16.991  -0.961  0.00  0.00    -0.054 NA
BRANCH   5   9
ATOM      9  C   UNL d   1      25.422 -18.544  -0.026  0.00  0.00     0.064 C 
BRANCH   9  10
ATOM     10  C   UNL d   1      26.584 -17.588  -0.383  0.00  0.00    -0.017 C 
ATOM     11  C   UNL d   1      26.371 -16.178   0.199  0.00  0.00     0.010 C 
ATOM     12  C   UNL d   1      27.927 -18.109   0.114  0.00  0.00     0.010 C 
ENDBRANCH   9  10
ENDBRANCH   5   9
BRANCH   7  13
ATOM     13  N   UNL d   1      20.607 -18.930   0.044  0.00  0.00    -0.064 N 
ATOM     14  C   UNL d   1      20.251 -19.353   1.313  0.00  0.00     0.052 A 
ATOM     15  C   UNL d   1      19.074 -20.051   1.169  0.00  0.00     0.056 A 
ATOM     16  C   UNL d   1      20.987 -18.978   2.543  0.00  0.00     0.071 C 
ATOM     17  C   UNL d   1      18.802 -20.048  -0.212  0.00  0.00     0.054 A 
ATOM     18  C   UNL d   1      17.668 -20.715  -0.895  0.00  0.00     0.072 C 
ATOM     19  N   UNL d   1      19.695 -19.325  -0.895  0.00  0.00    -0.158 NA
ENDBRANCH   7  13
ENDBRANCH   2   3
ENDBRANCH   1   2
BRANCH   1  20
ATOM     20  C   UNL d   1      25.153 -13.946  -2.410  0.00  0.00     0.113 C 
BRANCH  20  21
ATOM     21  C   UNL d   1      26.158 -13.219  -3.360  0.00  0.00     0.222 C 
ATOM     22  O   UNL d   1      27.337 -13.529  -3.335  0.00  0.00    -0.273 OA
ATOM     23  N   UNL d   1      25.649 -12.198  -4.200  0.00  0.00    -0.327 N 
ATOM     24  H   UNL d   1      24.772 -11.777  -3.920  0.00  0.00     0.169 HD
BRANCH  23  25
ATOM     25  C   UNL d   1      26.360 -11.543  -5.290  0.00  0.00     0.035 C 
ATOM     26  C   UNL d   1      25.800 -10.948  -6.388  0.00  0.00     0.029 C 
ATOM     27  C   UNL d   1      26.636 -10.557  -7.487  0.00  0.00     0.003 C 
ATOM     28  C   UNL d   1      28.028 -10.853  -7.564  0.00  0.00     0.009 C 
ATOM     29  C   UNL d   1      28.595 -11.544  -6.517  0.00  0.00    -0.030 C 
ATOM     30  C   UNL d   1      27.725 -11.695  -5.437  0.00  0.00     0.038 C 
BRANCH  29  31
ATOM     31  C   UNL d   1      29.993 -12.162  -6.411  0.00  0.00     0.273 C 
BRANCH  31  32
ATOM     32  N   UNL d   1      30.158 -13.745  -6.649  0.00  0.00    -0.067 N 
ATOM     33  C   UNL d   1      28.914 -14.490  -7.167  0.00  0.00     0.235 C 
ATOM     34  C   UNL d   1      28.258 -15.076  -5.940  0.00  0.00     0.029 C 
ATOM     35  C   UNL d   1      29.469 -15.446  -5.065  0.00  0.00     0.029 C 
ATOM     36  C   UNL d   1      30.673 -14.568  -5.468  0.00  0.00     0.235 C 
ATOM     37  H   UNL d   1      30.878 -13.823  -7.380  0.00  0.00     0.280 HD
ENDBRANCH  31  32
ENDBRANCH  29  31
ENDBRANCH  23  25
ENDBRANCH  20  21
ENDBRANCH   1  20
TORSDOF 10
ENDMDL
MODEL 3
REMARK VINA RESULT:   -24.466      2.090      2.695
REMARK INTER + INTRA:         -29.534
REMARK INTER:                 -27.449
REMARK INTRA:                  -2.086
REMARK CONF_INDEPENDENT:        2.983
REMARK UNBOUND:                -2.086
REMARK  10 active torsions:
REMARK  status: ('A' for Active; 'I' for Inactive)
REMARK    1  A    between atoms: N_6  and  C_7 
REMARK    2  A    between atoms: C_9  and  C_10 
REMARK    3  A    between atoms: C_10  and  C_11 
REMARK    4  A    between atoms: C_15  and  S_16 
REMARK    5  A    between atoms: S_16  and  C_17 
REMARK    6  A    between atoms: C_17  and  C_18 
REMARK    7  A    between atoms: C_18  and  C_19 
REMARK       I    between atoms: C_19  and  N_21 
REMARK    8  A    between atoms: N_21  and  C_22 
REMARK    9  A    between atoms: C_26  and  C_27 
REMARK   10  A    between atoms: C_27  and  N_28 
ROOT
ATOM      1  C   UNL d   1      23.907 -14.358  -3.134  0.00  0.00     0.090 C 
ENDROOT
BRANCH   1   2
ATOM      2  S   UNL d   1      22.389 -14.655  -2.097  0.00  0.00    -0.109 SA
BRANCH   2   3
ATOM      3  C   UNL d   1      22.662 -16.237  -1.274  0.00  0.00     0.114 C 
ATOM      4  C   UNL d   1      23.916 -16.686  -0.957  0.00  0.00     0.067 C 
ATOM      5  C   UNL d   1      24.058 -17.796  -0.139  0.00  0.00     0.057 C 
ATOM      6  N   UNL d   1      22.988 -18.497   0.260  0.00  0.00    -0.065 NA
ATOM      7  C   UNL d   1      21.788 -18.094  -0.234  0.00  0.00     0.751 C 
ATOM      8  N   UNL d   1      21.584 -16.970  -0.969  0.00  0.00    -0.054 NA
BRANCH   5   9
ATOM      9  C   UNL d   1      25.424 -18.243   0.355  0.00  0.00     0.064 C 
BRANCH   9  10
ATOM     10  C   UNL d   1      26.599 -17.460  -0.275  0.00  0.00    -0.017 C 
ATOM     11  C   UNL d   1      26.760 -16.061   0.350  0.00  0.00     0.010 C 
ATOM     12  C   UNL d   1      27.922 -18.200  -0.131  0.00  0.00     0.010 C 
ENDBRANCH   9  10
ENDBRANCH   5   9
BRANCH   7  13
ATOM     13  N   UNL d   1      20.646 -18.900   0.077  0.00  0.00    -0.064 N 
ATOM     14  C   UNL d   1      20.266 -19.351   1.330  0.00  0.00     0.052 A 
ATOM     15  C   UNL d   1      19.119 -20.086   1.142  0.00  0.00     0.056 A 
ATOM     16  C   UNL d   1      20.952 -18.965   2.585  0.00  0.00     0.071 C 
ATOM     17  C   UNL d   1      18.889 -20.076  -0.246  0.00  0.00     0.054 A 
ATOM     18  C   UNL d   1      17.800 -20.774  -0.971  0.00  0.00     0.072 C 
ATOM     19  N   UNL d   1      19.777 -19.315  -0.894  0.00  0.00    -0.158 NA
ENDBRANCH   7  13
ENDBRANCH   2   3
ENDBRANCH   1   2
BRANCH   1  20
ATOM     20  C   UNL d   1      25.216 -14.320  -2.287  0.00  0.00     0.113 C 
BRANCH  20  21
ATOM     21  C   UNL d   1      26.258 -15.372  -2.785  0.00  0.00     0.222 C 
ATOM     22  O   UNL d   1      25.872 -16.364  -3.378  0.00  0.00    -0.273 OA
ATOM     23  N   UNL d   1      27.624 -15.132  -2.494  0.00  0.00    -0.327 N 
ATOM     24  H   UNL d   1      27.820 -14.501  -1.728  0.00  0.00     0.169 HD
BRANCH  23  25
ATOM     25  C   UNL d   1      28.763 -15.866  -3.032  0.00  0.00     0.035 C 
ATOM     26  C   UNL d   1      29.077 -16.032  -4.353  0.00  0.00     0.029 C 
ATOM     27  C   UNL d   1      30.090 -16.976  -4.729  0.00  0.00     0.003 C 
ATOM     28  C   UNL d   1      30.732 -17.853  -3.807  0.00  0.00     0.009 C 
ATOM     29  C   UNL d   1      30.357 -17.778  -2.484  0.00  0.00    -0.030 C 
ATOM     30  C   UNL d   1      29.510 -16.701  -2.224  0.00  0.00     0.038 C 
BRANCH  29  31
ATOM     31  C   UNL d   1      30.722 -18.709  -1.322  0.00  0.00     0.273 C 
BRANCH  31  32
ATOM     32  N   UNL d   1      31.682 -18.150  -0.157  0.00  0.00    -0.067 N 
ATOM     33  C   UNL d   1      32.475 -16.871  -0.482  0.00  0.00     0.235 C 
ATOM     34  C   UNL d   1      33.838 -17.346  -0.924  0.00  0.00     0.029 C 
ATOM     35  C   UNL d   1      34.065 -18.574  -0.025  0.00  0.00     0.029 C 
ATOM     36  C   UNL d   1      32.698 -19.132   0.427  0.00  0.00     0.235 C 
ATOM     37  H   UNL d   1      31.043 -17.916   0.614  0.00  0.00     0.280 HD
ENDBRANCH  31  32
ENDBRANCH  29  31
ENDBRANCH  23  25
ENDBRANCH  20  21
ENDBRANCH   1  20
TORSDOF 10
ENDMDL
