MODEL 1
REMARK VINA RESULT:   -11.090      0.000      0.000
REMARK INTER + INTRA:         -15.290
REMARK INTER:                 -13.774
REMARK INTRA:                  -1.516
REMARK CONF_INDEPENDENT:        2.685
REMARK UNBOUND:                -1.516
REMARK  9 active torsions:
REMARK  status: ('A' for Active; 'I' for Inactive)
REMARK    1  A    between atoms: C_2  and  C_3 
REMARK    2  A    between atoms: C_3  and  C_4 
REMARK       I    between atoms: C_4  and  N_6 
REMARK    3  A    between atoms: N_6  and  C_7 
REMARK    4  A    between atoms: C_10  and  N_11 
REMARK    5  A    between atoms: N_11  and  C_12 
REMARK    6  A    between atoms: C_12  and  N_14 
REMARK       I    between atoms: N_14  and  C_15 
REMARK    7  A    between atoms: C_15  and  C_17 
REMARK    8  A    between atoms: C_20  and  N_21 
REMARK    9  A    between atoms: C_26  and  N_27 
ROOT
ATOM      1  N   UNL d   1      28.146 -15.464   1.270  0.00  0.00    -0.299 N 
ATOM      2  C   UNL d   1      27.611 -14.333   1.942  0.00  0.00     0.257 C 
ATOM      3  O   UNL d   1      26.704 -13.594   1.555  0.00  0.00    -0.267 OA
ATOM      4  H   UNL d   1      28.882 -15.980   1.727  0.00  0.00     0.171 HD
ENDROOT
BRANCH   1   5
ATOM      5  C   UNL d   1      27.692 -15.890  -0.006  0.00  0.00     0.179 C 
ATOM      6  S   UNL d   1      28.769 -16.754  -0.983  0.00  0.00    -0.040 SA
BRANCH   5   7
ATOM      7  N   UNL d   1      26.338 -15.540  -0.338  0.00  0.00    -0.333 N 
ATOM      8  H   UNL d   1      26.092 -14.561  -0.445  0.00  0.00     0.168 HD
BRANCH   7   9
ATOM      9  C   UNL d   1      25.190 -16.454  -0.409  0.00  0.00     0.034 C 
ATOM     10  C   UNL d   1      23.942 -16.124  -0.969  0.00  0.00     0.032 C 
ATOM     11  C   UNL d   1      22.827 -17.037  -0.894  0.00  0.00     0.032 C 
ATOM     12  C   UNL d   1      22.950 -18.280  -0.261  0.00  0.00     0.034 C 
ATOM     13  C   UNL d   1      24.184 -18.613   0.230  0.00  0.00     0.032 C 
ATOM     14  C   UNL d   1      25.248 -17.742   0.103  0.00  0.00     0.032 C 
BRANCH  12  15
ATOM     15  N   UNL d   1      21.922 -19.243  -0.154  0.00  0.00    -0.327 N 
ATOM     16  C   UNL d   1      20.625 -18.969  -0.589  0.00  0.00     0.222 C 
ATOM     17  O   UNL d   1      20.304 -17.954  -1.209  0.00  0.00    -0.273 OA
ATOM     18  H   UNL d   1      22.153 -20.148   0.230  0.00  0.00     0.169 HD
BRANCH  16  19
ATOM     19  C   UNL d   1      19.594 -20.044  -0.298  0.00  0.00     0.103 C 
BRANCH  19  20
ATOM     20  C   UNL d   1      18.893 -19.739   1.035  0.00  0.00     0.005 C 
ATOM     21  C   UNL d   1      19.737 -20.111   2.237  0.00  0.00     0.005 C 
ENDBRANCH  19  20
ENDBRANCH  16  19
ENDBRANCH  12  15
ENDBRANCH   7   9
ENDBRANCH   5   7
ENDBRANCH   1   5
BRANCH   2  22
ATOM     22  C   UNL d   1      28.112 -13.870   3.240  0.00  0.00     0.035 A 
ATOM     23  C   UNL d   1      28.447 -14.838   4.194  0.00  0.00     0.019 A 
ATOM     24  C   UNL d   1      28.662 -14.478   5.528  0.00  0.00     0.033 A 
ATOM     25  C   UNL d   1      28.591 -13.138   5.976  0.00  0.00     0.063 A 
ATOM     26  C   UNL d   1      28.191 -12.187   4.993  0.00  0.00     0.130 A 
ATOM     27  C   UNL d   1      27.952 -12.561   3.641  0.00  0.00     0.055 A 
BRANCH  25  28
ATOM     28  N   UNL d   1      28.913 -12.940   7.302  0.00  0.00    -0.379 N 
ATOM     29  C   UNL d   1      29.670 -13.844   8.156  0.00  0.00     0.123 C 
ATOM     30  C   UNL d   1      28.825 -13.921   9.424  0.00  0.00     0.021 C 
ATOM     31  C   UNL d   1      28.323 -12.494   9.575  0.00  0.00     0.021 C 
ATOM     32  C   UNL d   1      28.167 -11.977   8.133  0.00  0.00     0.123 C 
ENDBRANCH  25  28
BRANCH  26  33
ATOM     33  N   UNL d   1      28.013 -10.744   5.247  0.00  0.00    -0.113 N 
ATOM     34  O   UNL d   1      28.824 -10.120   5.916  0.00  0.00    -0.532 OA
ATOM     35  O   UNL d   1      27.025 -10.196   4.715  0.00  0.00    -0.532 OA
ENDBRANCH  26  33
ENDBRANCH   2  22
TORSDOF 9
ENDMDL
MODEL 2
REMARK VINA RESULT:   -11.061      0.907      1.219
REMARK INTER + INTRA:         -15.317
REMARK INTER:                 -13.746
REMARK INTRA:                  -1.571
REMARK CONF_INDEPENDENT:        2.685
REMARK UNBOUND:                -1.571
REMARK  9 active torsions:
REMARK  status: ('A' for Active; 'I' for Inactive)
REMARK    1  A    between atoms: C_2  and  C_3 
REMARK    2  A    between atoms: C_3  and  C_4 
REMARK       I    between atoms: C_4  and  N_6 
REMARK    3  A    between atoms: N_6  and  C_7 
REMARK    4  A    between atoms: C_10  and  N_11 
REMARK    5  A    between atoms: N_11  and  C_12 
REMARK    6  A    between atoms: C_12  and  N_14 
REMARK       I    between atoms: N_14  and  C_15 
REMARK    7  A    between atoms: C_15  and  C_17 
REMARK    8  A    between atoms: C_20  and  N_21 
REMARK    9  A    between atoms: C_26  and  N_27 
ROOT
ATOM      1  N   UNL d   1      28.073 -15.345   1.213  0.00  0.00    -0.299 N 
ATOM      2  C   UNL d   1      27.409 -14.170   1.656  0.00  0.00     0.257 C 
ATOM      3  O   UNL d   1      26.445 -13.613   1.127  0.00  0.00    -0.267 OA
ATOM      4  H   UNL d   1      28.842 -15.690   1.768  0.00  0.00     0.171 HD
ENDROOT
BRANCH   1   5
ATOM      5  C   UNL d   1      27.704 -16.042   0.034  0.00  0.00     0.179 C 
ATOM      6  S   UNL d   1      28.801 -17.162  -0.602  0.00  0.00    -0.040 SA
BRANCH   5   7
ATOM      7  N   UNL d   1      26.410 -15.722  -0.505  0.00  0.00    -0.333 N 
ATOM      8  H   UNL d   1      26.225 -14.773  -0.818  0.00  0.00     0.168 HD
BRANCH   7   9
ATOM      9  C   UNL d   1      25.231 -16.597  -0.531  0.00  0.00     0.034 C 
ATOM     10  C   UNL d   1      23.964 -16.215  -1.011  0.00  0.00     0.032 C 
ATOM     11  C   UNL d   1      22.827 -17.096  -0.894  0.00  0.00     0.032 C 
ATOM     12  C   UNL d   1      22.946 -18.357  -0.299  0.00  0.00     0.034 C 
ATOM     13  C   UNL d   1      24.194 -18.741   0.111  0.00  0.00     0.032 C 
ATOM     14  C   UNL d   1      25.277 -17.900  -0.056  0.00  0.00     0.032 C 
BRANCH  12  15
ATOM     15  N   UNL d   1      21.896 -19.291  -0.156  0.00  0.00    -0.327 N 
ATOM     16  C   UNL d   1      20.594 -18.984  -0.558  0.00  0.00     0.222 C 
ATOM     17  O   UNL d   1      20.284 -17.965  -1.177  0.00  0.00    -0.273 OA
ATOM     18  H   UNL d   1      22.112 -20.200   0.228  0.00  0.00     0.169 HD
BRANCH  16  19
ATOM     19  C   UNL d   1      19.543 -20.028  -0.230  0.00  0.00     0.103 C 
BRANCH  19  20
ATOM     20  C   UNL d   1      18.955 -19.749   1.161  0.00  0.00     0.005 C 
ATOM     21  C   UNL d   1      19.921 -20.080   2.280  0.00  0.00     0.005 C 
ENDBRANCH  19  20
ENDBRANCH  16  19
ENDBRANCH  12  15
ENDBRANCH   7   9
ENDBRANCH   5   7
ENDBRANCH   1   5
BRANCH   2  22
ATOM     22  C   UNL d   1      27.820 -13.427   2.851  0.00  0.00     0.035 A 
ATOM     23  C   UNL d   1      28.143 -14.163   3.999  0.00  0.00     0.019 A 
ATOM     24  C   UNL d   1      28.272 -13.528   5.238  0.00  0.00     0.033 A 
ATOM     25  C   UNL d   1      28.122 -12.130   5.397  0.00  0.00     0.063 A 
ATOM     26  C   UNL d   1      27.737 -11.421   4.222  0.00  0.00     0.130 A 
ATOM     27  C   UNL d   1      27.585 -12.074   2.967  0.00  0.00     0.055 A 
BRANCH  25  28
ATOM     28  N   UNL d   1      28.365 -11.650   6.666  0.00  0.00    -0.379 N 
ATOM     29  C   UNL d   1      28.907 -10.343   7.010  0.00  0.00     0.123 C 
ATOM     30  C   UNL d   1      30.000 -10.671   8.024  0.00  0.00     0.021 C 
ATOM     31  C   UNL d   1      29.379 -11.805   8.825  0.00  0.00     0.021 C 
ATOM     32  C   UNL d   1      28.498 -12.563   7.815  0.00  0.00     0.123 C 
ENDBRANCH  25  28
BRANCH  26  33
ATOM     33  N   UNL d   1      27.486  -9.967   4.166  0.00  0.00    -0.113 N 
ATOM     34  O   UNL d   1      28.413  -9.170   4.184  0.00  0.00    -0.532 OA
ATOM     35  O   UNL d   1      26.296  -9.605   4.058  0.00  0.00    -0.532 OA
ENDBRANCH  26  33
ENDBRANCH   2  22
TORSDOF 9
ENDMDL
MODEL 3
REMARK VINA RESULT:   -10.830      1.643      2.174
REMARK INTER + INTRA:         -15.042
REMARK INTER:                 -13.515
REMARK INTRA:                  -1.527
REMARK CONF_INDEPENDENT:        2.685
REMARK UNBOUND:                -1.527
REMARK  9 active torsions:
REMARK  status: ('A' for Active; 'I' for Inactive)
REMARK    1  A    between atoms: C_2  and  C_3 
REMARK    2  A    between atoms: C_3  and  C_4 
REMARK       I    between atoms: C_4  and  N_6 
REMARK    3  A    between atoms: N_6  and  C_7 
REMARK    4  A    between atoms: C_10  and  N_11 
REMARK    5  A    between atoms: N_11  and  C_12 
REMARK    6  A    between atoms: C_12  and  N_14 
REMARK       I    between atoms: N_14  and  C_15 
REMARK    7  A    between atoms: C_15  and  C_17 
REMARK    8  A    between atoms: C_20  and  N_21 
REMARK    9  A    between atoms: C_26  and  N_27 
ROOT
ATOM      1  N   UNL d   1      27.806 -15.133   0.987  0.00  0.00    -0.299 N 
ATOM      2  C   UNL d   1      27.168 -13.868   1.081  0.00  0.00     0.257 C 
ATOM      3  O   UNL d   1      26.262 -13.434   0.367  0.00  0.00    -0.267 OA
ATOM      4  H   UNL d   1      28.525 -15.350   1.661  0.00  0.00     0.171 HD
ENDROOT
BRANCH   1   5
ATOM      5  C   UNL d   1      27.476 -16.093  -0.005  0.00  0.00     0.179 C 
ATOM      6  S   UNL d   1      28.548 -17.378  -0.252  0.00  0.00    -0.040 SA
BRANCH   5   7
ATOM      7  N   UNL d   1      26.242 -15.870  -0.707  0.00  0.00    -0.333 N 
ATOM      8  H   UNL d   1      26.101 -14.991  -1.195  0.00  0.00     0.168 HD
BRANCH   7   9
ATOM      9  C   UNL d   1      25.055 -16.736  -0.687  0.00  0.00     0.034 C 
ATOM     10  C   UNL d   1      23.760 -16.322  -1.051  0.00  0.00     0.032 C 
ATOM     11  C   UNL d   1      22.626 -17.200  -0.892  0.00  0.00     0.032 C 
ATOM     12  C   UNL d   1      22.776 -18.491  -0.371  0.00  0.00     0.034 C 
ATOM     13  C   UNL d   1      24.048 -18.902  -0.075  0.00  0.00     0.032 C 
ATOM     14  C   UNL d   1      25.123 -18.061  -0.281  0.00  0.00     0.032 C 
BRANCH  12  15
ATOM     15  N   UNL d   1      21.730 -19.424  -0.196  0.00  0.00    -0.327 N 
ATOM     16  C   UNL d   1      20.426 -19.135  -0.602  0.00  0.00     0.222 C 
ATOM     17  O   UNL d   1      20.110 -18.137  -1.251  0.00  0.00    -0.273 OA
ATOM     18  H   UNL d   1      21.951 -20.319   0.216  0.00  0.00     0.169 HD
BRANCH  16  19
ATOM     19  C   UNL d   1      19.380 -20.172  -0.239  0.00  0.00     0.103 C 
BRANCH  19  20
ATOM     20  C   UNL d   1      19.717 -20.788   1.128  0.00  0.00     0.005 C 
ATOM     21  C   UNL d   1      19.909 -19.741   2.207  0.00  0.00     0.005 C 
ENDBRANCH  19  20
ENDBRANCH  16  19
ENDBRANCH  12  15
ENDBRANCH   7   9
ENDBRANCH   5   7
ENDBRANCH   1   5
BRANCH   2  22
ATOM     22  C   UNL d   1      27.540 -12.862   2.080  0.00  0.00     0.035 A 
ATOM     23  C   UNL d   1      28.328 -13.276   3.162  0.00  0.00     0.019 A 
ATOM     24  C   UNL d   1      28.488 -12.453   4.281  0.00  0.00     0.033 A 
ATOM     25  C   UNL d   1      27.905 -11.167   4.371  0.00  0.00     0.063 A 
ATOM     26  C   UNL d   1      27.064 -10.802   3.281  0.00  0.00     0.130 A 
ATOM     27  C   UNL d   1      26.886 -11.651   2.152  0.00  0.00     0.055 A 
BRANCH  25  28
ATOM     28  N   UNL d   1      28.228 -10.449   5.502  0.00  0.00    -0.379 N 
ATOM     29  C   UNL d   1      28.736  -9.085   5.549  0.00  0.00     0.123 C 
ATOM     30  C   UNL d   1      29.921  -9.182   6.505  0.00  0.00     0.021 C 
ATOM     31  C   UNL d   1      29.421 -10.163   7.554  0.00  0.00     0.021 C 
ATOM     32  C   UNL d   1      28.497 -11.125   6.785  0.00  0.00     0.123 C 
ENDBRANCH  25  28
BRANCH  26  33
ATOM     33  N   UNL d   1      26.325  -9.527   3.183  0.00  0.00    -0.113 N 
ATOM     34  O   UNL d   1      26.827  -8.480   3.563  0.00  0.00    -0.532 OA
ATOM     35  O   UNL d   1      25.192  -9.572   2.660  0.00  0.00    -0.532 OA
ENDBRANCH  26  33
ENDBRANCH   2  22
TORSDOF 9
ENDMDL
MODEL 4
REMARK VINA RESULT:   -10.490      1.975      2.657
REMARK INTER + INTRA:         -14.430
REMARK INTER:                 -13.174
REMARK INTRA:                  -1.256
REMARK CONF_INDEPENDENT:        2.685
REMARK UNBOUND:                -1.256
REMARK  9 active torsions:
REMARK  status: ('A' for Active; 'I' for Inactive)
REMARK    1  A    between atoms: C_2  and  C_3 
REMARK    2  A    between atoms: C_3  and  C_4 
REMARK       I    between atoms: C_4  and  N_6 
REMARK    3  A    between atoms: N_6  and  C_7 
REMARK    4  A    between atoms: C_10  and  N_11 
REMARK    5  A    between atoms: N_11  and  C_12 
REMARK    6  A    between atoms: C_12  and  N_14 
REMARK       I    between atoms: N_14  and  C_15 
REMARK    7  A    between atoms: C_15  and  C_17 
REMARK    8  A    between atoms: C_20  and  N_21 
REMARK    9  A    between atoms: C_26  and  N_27 
ROOT
ATOM      1  N   UNL d   1      26.292 -13.785  -0.978  0.00  0.00    -0.299 N 
ATOM      2  C   UNL d   1      26.783 -14.262   0.267  0.00  0.00     0.257 C 
ATOM      3  O   UNL d   1      26.920 -15.436   0.614  0.00  0.00    -0.267 OA
ATOM      4  H   UNL d   1      26.255 -12.786  -1.118  0.00  0.00     0.171 HD
ENDROOT
BRANCH   1   5
ATOM      5  C   UNL d   1      25.855 -14.646  -2.017  0.00  0.00     0.179 C 
ATOM      6  S   UNL d   1      25.317 -13.941  -3.458  0.00  0.00    -0.040 SA
BRANCH   5   7
ATOM      7  N   UNL d   1      25.921 -16.054  -1.734  0.00  0.00    -0.333 N 
ATOM      8  H   UNL d   1      26.735 -16.582  -2.033  0.00  0.00     0.168 HD
BRANCH   7   9
ATOM      9  C   UNL d   1      24.851 -16.883  -1.164  0.00  0.00     0.034 C 
ATOM     10  C   UNL d   1      25.048 -18.147  -0.576  0.00  0.00     0.032 C 
ATOM     11  C   UNL d   1      23.929 -18.950  -0.146  0.00  0.00     0.032 C 
ATOM     12  C   UNL d   1      22.613 -18.500  -0.299  0.00  0.00     0.034 C 
ATOM     13  C   UNL d   1      22.436 -17.246  -0.818  0.00  0.00     0.032 C 
ATOM     14  C   UNL d   1      23.524 -16.476  -1.178  0.00  0.00     0.032 C 
BRANCH  12  15
ATOM     15  N   UNL d   1      21.459 -19.207   0.108  0.00  0.00    -0.327 N 
ATOM     16  C   UNL d   1      20.445 -19.522  -0.799  0.00  0.00     0.222 C 
ATOM     17  O   UNL d   1      20.526 -19.342  -2.015  0.00  0.00    -0.273 OA
ATOM     18  H   UNL d   1      21.391 -19.498   1.072  0.00  0.00     0.169 HD
BRANCH  16  19
ATOM     19  C   UNL d   1      19.209 -20.169  -0.203  0.00  0.00     0.103 C 
BRANCH  19  20
ATOM     20  C   UNL d   1      19.566 -20.825   1.139  0.00  0.00     0.005 C 
ATOM     21  C   UNL d   1      18.681 -20.350   2.274  0.00  0.00     0.005 C 
ENDBRANCH  19  20
ENDBRANCH  16  19
ENDBRANCH  12  15
ENDBRANCH   7   9
ENDBRANCH   5   7
ENDBRANCH   1   5
BRANCH   2  22
ATOM     22  C   UNL d   1      27.193 -13.369   1.355  0.00  0.00     0.035 A 
ATOM     23  C   UNL d   1      27.841 -13.938   2.458  0.00  0.00     0.019 A 
ATOM     24  C   UNL d   1      28.010 -13.209   3.639  0.00  0.00     0.033 A 
ATOM     25  C   UNL d   1      27.578 -11.868   3.774  0.00  0.00     0.063 A 
ATOM     26  C   UNL d   1      26.872 -11.340   2.655  0.00  0.00     0.130 A 
ATOM     27  C   UNL d   1      26.683 -12.093   1.462  0.00  0.00     0.055 A 
BRANCH  25  28
ATOM     28  N   UNL d   1      27.896 -11.262   4.971  0.00  0.00    -0.379 N 
ATOM     29  C   UNL d   1      28.722 -10.077   5.151  0.00  0.00     0.123 C 
ATOM     30  C   UNL d   1      29.681 -10.482   6.267  0.00  0.00     0.021 C 
ATOM     31  C   UNL d   1      28.791 -11.303   7.187  0.00  0.00     0.021 C 
ATOM     32  C   UNL d   1      27.781 -11.989   6.248  0.00  0.00     0.123 C 
ENDBRANCH  25  28
BRANCH  26  33
ATOM     33  N   UNL d   1      26.299  -9.981   2.591  0.00  0.00    -0.113 N 
ATOM     34  O   UNL d   1      26.219  -9.286   3.594  0.00  0.00    -0.532 OA
ATOM     35  O   UNL d   1      25.944  -9.571   1.467  0.00  0.00    -0.532 OA
ENDBRANCH  26  33
ENDBRANCH   2  22
TORSDOF 9
ENDMDL
MODEL 5
REMARK VINA RESULT:   -10.093      6.828     10.099
REMARK INTER + INTRA:         -13.702
REMARK INTER:                 -12.778
REMARK INTRA:                  -0.924
REMARK CONF_INDEPENDENT:        2.685
REMARK UNBOUND:                -0.924
REMARK  9 active torsions:
REMARK  status: ('A' for Active; 'I' for Inactive)
REMARK    1  A    between atoms: C_2  and  C_3 
REMARK    2  A    between atoms: C_3  and  C_4 
REMARK       I    between atoms: C_4  and  N_6 
REMARK    3  A    between atoms: N_6  and  C_7 
REMARK    4  A    between atoms: C_10  and  N_11 
REMARK    5  A    between atoms: N_11  and  C_12 
REMARK    6  A    between atoms: C_12  and  N_14 
REMARK       I    between atoms: N_14  and  C_15 
REMARK    7  A    between atoms: C_15  and  C_17 
REMARK    8  A    between atoms: C_20  and  N_21 
REMARK    9  A    between atoms: C_26  and  N_27 
ROOT
ATOM      1  N   UNL d   1      27.434 -15.018  -3.531  0.00  0.00    -0.299 N 
ATOM      2  C   UNL d   1      27.562 -15.108  -4.943  0.00  0.00     0.257 C 
ATOM      3  O   UNL d   1      26.665 -15.323  -5.761  0.00  0.00    -0.267 OA
ATOM      4  H   UNL d   1      28.265 -14.819  -2.994  0.00  0.00     0.171 HD
ENDROOT
BRANCH   1   5
ATOM      5  C   UNL d   1      26.199 -15.195  -2.854  0.00  0.00     0.179 C 
ATOM      6  S   UNL d   1      24.881 -14.258  -3.349  0.00  0.00    -0.040 SA
BRANCH   5   7
ATOM      7  N   UNL d   1      26.197 -16.174  -1.801  0.00  0.00    -0.333 N 
ATOM      8  H   UNL d   1      27.082 -16.546  -1.468  0.00  0.00     0.168 HD
BRANCH   7   9
ATOM      9  C   UNL d   1      25.019 -16.833  -1.221  0.00  0.00     0.034 C 
ATOM     10  C   UNL d   1      25.037 -18.096  -0.601  0.00  0.00     0.032 C 
ATOM     11  C   UNL d   1      23.815 -18.725  -0.160  0.00  0.00     0.032 C 
ATOM     12  C   UNL d   1      22.574 -18.102  -0.335  0.00  0.00     0.034 C 
ATOM     13  C   UNL d   1      22.576 -16.849  -0.887  0.00  0.00     0.032 C 
ATOM     14  C   UNL d   1      23.762 -16.246  -1.256  0.00  0.00     0.032 C 
BRANCH  12  15
ATOM     15  N   UNL d   1      21.332 -18.632   0.079  0.00  0.00    -0.327 N 
ATOM     16  C   UNL d   1      20.495 -19.300  -0.817  0.00  0.00     0.222 C 
ATOM     17  O   UNL d   1      20.814 -19.598  -1.969  0.00  0.00    -0.273 OA
ATOM     18  H   UNL d   1      21.068 -18.533   1.048  0.00  0.00     0.169 HD
BRANCH  16  19
ATOM     19  C   UNL d   1      19.138 -19.704  -0.272  0.00  0.00     0.103 C 
BRANCH  19  20
ATOM     20  C   UNL d   1      19.314 -20.811   0.780  0.00  0.00     0.005 C 
ATOM     21  C   UNL d   1      18.036 -21.585   1.031  0.00  0.00     0.005 C 
ENDBRANCH  19  20
ENDBRANCH  16  19
ENDBRANCH  12  15
ENDBRANCH   7   9
ENDBRANCH   5   7
ENDBRANCH   1   5
BRANCH   2  22
ATOM     22  C   UNL d   1      28.846 -14.967  -5.636  0.00  0.00     0.035 A 
ATOM     23  C   UNL d   1      29.092 -13.769  -6.318  0.00  0.00     0.019 A 
ATOM     24  C   UNL d   1      30.156 -13.669  -7.219  0.00  0.00     0.033 A 
ATOM     25  C   UNL d   1      31.051 -14.738  -7.462  0.00  0.00     0.063 A 
ATOM     26  C   UNL d   1      30.738 -15.958  -6.797  0.00  0.00     0.130 A 
ATOM     27  C   UNL d   1      29.640 -16.062  -5.897  0.00  0.00     0.055 A 
BRANCH  25  28
ATOM     28  N   UNL d   1      32.097 -14.451  -8.313  0.00  0.00    -0.379 N 
ATOM     29  C   UNL d   1      33.444 -15.001  -8.249  0.00  0.00     0.123 C 
ATOM     30  C   UNL d   1      34.334 -13.769  -8.378  0.00  0.00     0.021 C 
ATOM     31  C   UNL d   1      33.583 -12.922  -9.393  0.00  0.00     0.021 C 
ATOM     32  C   UNL d   1      32.096 -13.231  -9.140  0.00  0.00     0.123 C 
ENDBRANCH  25  28
BRANCH  26  33
ATOM     33  N   UNL d   1      31.509 -17.210  -6.935  0.00  0.00    -0.113 N 
ATOM     34  O   UNL d   1      31.649 -17.968  -5.987  0.00  0.00    -0.532 OA
ATOM     35  O   UNL d   1      31.968 -17.466  -8.068  0.00  0.00    -0.532 OA
ENDBRANCH  26  33
ENDBRANCH   2  22
TORSDOF 9
ENDMDL
MODEL 6
REMARK VINA RESULT:    -9.675      6.023      9.189
REMARK INTER + INTRA:         -13.624
REMARK INTER:                 -12.360
REMARK INTRA:                  -1.265
REMARK CONF_INDEPENDENT:        2.685
REMARK UNBOUND:                -1.265
REMARK  9 active torsions:
REMARK  status: ('A' for Active; 'I' for Inactive)
REMARK    1  A    between atoms: C_2  and  C_3 
REMARK    2  A    between atoms: C_3  and  C_4 
REMARK       I    between atoms: C_4  and  N_6 
REMARK    3  A    between atoms: N_6  and  C_7 
REMARK    4  A    between atoms: C_10  and  N_11 
REMARK    5  A    between atoms: N_11  and  C_12 
REMARK    6  A    between atoms: C_12  and  N_14 
REMARK       I    between atoms: N_14  and  C_15 
REMARK    7  A    between atoms: C_15  and  C_17 
REMARK    8  A    between atoms: C_20  and  N_21 
REMARK    9  A    between atoms: C_26  and  N_27 
ROOT
ATOM      1  N   UNL d   1      27.389 -15.229  -2.369  0.00  0.00    -0.299 N 
ATOM      2  C   UNL d   1      26.552 -15.150  -3.515  0.00  0.00     0.257 C 
ATOM      3  O   UNL d   1      25.446 -15.673  -3.668  0.00  0.00    -0.267 OA
ATOM      4  H   UNL d   1      28.265 -14.729  -2.390  0.00  0.00     0.171 HD
ENDROOT
BRANCH   1   5
ATOM      5  C   UNL d   1      27.046 -15.976  -1.212  0.00  0.00     0.179 C 
ATOM      6  S   UNL d   1      28.182 -17.075  -0.612  0.00  0.00    -0.040 SA
BRANCH   5   7
ATOM      7  N   UNL d   1      25.746 -15.711  -0.658  0.00  0.00    -0.333 N 
ATOM      8  H   UNL d   1      25.589 -14.842  -0.157  0.00  0.00     0.168 HD
BRANCH   7   9
ATOM      9  C   UNL d   1      24.611 -16.642  -0.605  0.00  0.00     0.034 C 
ATOM     10  C   UNL d   1      23.263 -16.266  -0.763  0.00  0.00     0.032 C 
ATOM     11  C   UNL d   1      22.198 -17.222  -0.581  0.00  0.00     0.032 C 
ATOM     12  C   UNL d   1      22.469 -18.552  -0.240  0.00  0.00     0.034 C 
ATOM     13  C   UNL d   1      23.784 -18.920  -0.146  0.00  0.00     0.032 C 
ATOM     14  C   UNL d   1      24.788 -17.998  -0.373  0.00  0.00     0.032 C 
BRANCH  12  15
ATOM     15  N   UNL d   1      21.495 -19.560  -0.059  0.00  0.00    -0.327 N 
ATOM     16  C   UNL d   1      20.149 -19.326  -0.347  0.00  0.00     0.222 C 
ATOM     17  O   UNL d   1      19.726 -18.307  -0.895  0.00  0.00    -0.273 OA
ATOM     18  H   UNL d   1      21.798 -20.466   0.268  0.00  0.00     0.169 HD
BRANCH  16  19
ATOM     19  C   UNL d   1      19.195 -20.450   0.014  0.00  0.00     0.103 C 
BRANCH  19  20
ATOM     20  C   UNL d   1      18.743 -20.294   1.474  0.00  0.00     0.005 C 
ATOM     21  C   UNL d   1      19.904 -20.075   2.424  0.00  0.00     0.005 C 
ENDBRANCH  19  20
ENDBRANCH  16  19
ENDBRANCH  12  15
ENDBRANCH   7   9
ENDBRANCH   5   7
ENDBRANCH   1   5
BRANCH   2  22
ATOM     22  C   UNL d   1      26.928 -14.414  -4.725  0.00  0.00     0.035 A 
ATOM     23  C   UNL d   1      28.062 -14.845  -5.426  0.00  0.00     0.019 A 
ATOM     24  C   UNL d   1      28.636 -14.039  -6.414  0.00  0.00     0.033 A 
ATOM     25  C   UNL d   1      28.096 -12.784  -6.782  0.00  0.00     0.063 A 
ATOM     26  C   UNL d   1      26.980 -12.351  -6.010  0.00  0.00     0.130 A 
ATOM     27  C   UNL d   1      26.411 -13.164  -4.990  0.00  0.00     0.055 A 
BRANCH  25  28
ATOM     28  N   UNL d   1      28.729 -12.153  -7.832  0.00  0.00    -0.379 N 
ATOM     29  C   UNL d   1      29.333 -10.829  -7.811  0.00  0.00     0.123 C 
ATOM     30  C   UNL d   1      28.785 -10.172  -9.075  0.00  0.00     0.021 C 
ATOM     31  C   UNL d   1      28.785 -11.320 -10.072  0.00  0.00     0.021 C 
ATOM     32  C   UNL d   1      28.500 -12.575  -9.226  0.00  0.00     0.123 C 
ENDBRANCH  25  28
BRANCH  26  33
ATOM     33  N   UNL d   1      26.285 -11.061  -6.193  0.00  0.00    -0.113 N 
ATOM     34  O   UNL d   1      26.738 -10.031  -5.716  0.00  0.00    -0.532 OA
ATOM     35  O   UNL d   1      25.246 -11.075  -6.886  0.00  0.00    -0.532 OA
ENDBRANCH  26  33
ENDBRANCH   2  22
TORSDOF 9
ENDMDL
MODEL 7
REMARK VINA RESULT:    -9.298      6.194      9.656
REMARK INTER + INTRA:         -13.542
REMARK INTER:                 -11.983
REMARK INTRA:                  -1.559
REMARK CONF_INDEPENDENT:        2.685
REMARK UNBOUND:                -1.559
REMARK  9 active torsions:
REMARK  status: ('A' for Active; 'I' for Inactive)
REMARK    1  A    between atoms: C_2  and  C_3 
REMARK    2  A    between atoms: C_3  and  C_4 
REMARK       I    between atoms: C_4  and  N_6 
REMARK    3  A    between atoms: N_6  and  C_7 
REMARK    4  A    between atoms: C_10  and  N_11 
REMARK    5  A    between atoms: N_11  and  C_12 
REMARK    6  A    between atoms: C_12  and  N_14 
REMARK       I    between atoms: N_14  and  C_15 
REMARK    7  A    between atoms: C_15  and  C_17 
REMARK    8  A    between atoms: C_20  and  N_21 
REMARK    9  A    between atoms: C_26  and  N_27 
ROOT
ATOM      1  N   UNL d   1      26.652 -13.991  -2.328  0.00  0.00    -0.299 N 
ATOM      2  C   UNL d   1      26.261 -14.072  -3.691  0.00  0.00     0.257 C 
ATOM      3  O   UNL d   1      25.514 -14.908  -4.205  0.00  0.00    -0.267 OA
ATOM      4  H   UNL d   1      27.261 -13.233  -2.057  0.00  0.00     0.171 HD
ENDROOT
BRANCH   1   5
ATOM      5  C   UNL d   1      26.229 -14.923  -1.346  0.00  0.00     0.179 C 
ATOM      6  S   UNL d   1      26.353 -14.474   0.280  0.00  0.00    -0.040 SA
BRANCH   5   7
ATOM      7  N   UNL d   1      25.724 -16.173  -1.845  0.00  0.00    -0.333 N 
ATOM      8  H   UNL d   1      26.142 -16.580  -2.676  0.00  0.00     0.168 HD
BRANCH   7   9
ATOM      9  C   UNL d   1      24.539 -16.895  -1.361  0.00  0.00     0.034 C 
ATOM     10  C   UNL d   1      23.250 -16.339  -1.267  0.00  0.00     0.032 C 
ATOM     11  C   UNL d   1      22.163 -17.078  -0.672  0.00  0.00     0.032 C 
ATOM     12  C   UNL d   1      22.355 -18.369  -0.167  0.00  0.00     0.034 C 
ATOM     13  C   UNL d   1      23.599 -18.921  -0.317  0.00  0.00     0.032 C 
ATOM     14  C   UNL d   1      24.611 -18.214  -0.934  0.00  0.00     0.032 C 
BRANCH  12  15
ATOM     15  N   UNL d   1      21.349 -19.173   0.416  0.00  0.00    -0.327 N 
ATOM     16  C   UNL d   1      20.333 -19.735  -0.358  0.00  0.00     0.222 C 
ATOM     17  O   UNL d   1      20.301 -19.699  -1.590  0.00  0.00    -0.273 OA
ATOM     18  H   UNL d   1      21.392 -19.347   1.409  0.00  0.00     0.169 HD
BRANCH  16  19
ATOM     19  C   UNL d   1      19.249 -20.467   0.412  0.00  0.00     0.103 C 
BRANCH  19  20
ATOM     20  C   UNL d   1      19.010 -19.766   1.758  0.00  0.00     0.005 C 
ATOM     21  C   UNL d   1      19.720 -20.451   2.907  0.00  0.00     0.005 C 
ENDBRANCH  19  20
ENDBRANCH  16  19
ENDBRANCH  12  15
ENDBRANCH   7   9
ENDBRANCH   5   7
ENDBRANCH   1   5
BRANCH   2  22
ATOM     22  C   UNL d   1      26.735 -13.133  -4.712  0.00  0.00     0.035 A 
ATOM     23  C   UNL d   1      25.914 -12.042  -5.028  0.00  0.00     0.019 A 
ATOM     24  C   UNL d   1      26.163 -11.271  -6.167  0.00  0.00     0.033 A 
ATOM     25  C   UNL d   1      27.256 -11.519  -7.031  0.00  0.00     0.063 A 
ATOM     26  C   UNL d   1      28.035 -12.669  -6.714  0.00  0.00     0.130 A 
ATOM     27  C   UNL d   1      27.766 -13.464  -5.564  0.00  0.00     0.055 A 
BRANCH  25  28
ATOM     28  N   UNL d   1      27.412 -10.617  -8.062  0.00  0.00    -0.379 N 
ATOM     29  C   UNL d   1      27.680  -9.192  -7.934  0.00  0.00     0.123 C 
ATOM     30  C   UNL d   1      26.669  -8.556  -8.884  0.00  0.00     0.021 C 
ATOM     31  C   UNL d   1      26.652  -9.531 -10.051  0.00  0.00     0.021 C 
ATOM     32  C   UNL d   1      26.907 -10.910  -9.415  0.00  0.00     0.123 C 
ENDBRANCH  25  28
BRANCH  26  33
ATOM     33  N   UNL d   1      29.195 -13.138  -7.498  0.00  0.00    -0.113 N 
ATOM     34  O   UNL d   1      29.686 -12.438  -8.370  0.00  0.00    -0.532 OA
ATOM     35  O   UNL d   1      29.663 -14.255  -7.196  0.00  0.00    -0.532 OA
ENDBRANCH  26  33
ENDBRANCH   2  22
TORSDOF 9
ENDMDL
MODEL 8
REMARK VINA RESULT:    -8.985      5.965      8.693
REMARK INTER + INTRA:         -13.449
REMARK INTER:                 -11.670
REMARK INTRA:                  -1.779
REMARK CONF_INDEPENDENT:        2.685
REMARK UNBOUND:                -1.779
REMARK  9 active torsions:
REMARK  status: ('A' for Active; 'I' for Inactive)
REMARK    1  A    between atoms: C_2  and  C_3 
REMARK    2  A    between atoms: C_3  and  C_4 
REMARK       I    between atoms: C_4  and  N_6 
REMARK    3  A    between atoms: N_6  and  C_7 
REMARK    4  A    between atoms: C_10  and  N_11 
REMARK    5  A    between atoms: N_11  and  C_12 
REMARK    6  A    between atoms: C_12  and  N_14 
REMARK       I    between atoms: N_14  and  C_15 
REMARK    7  A    between atoms: C_15  and  C_17 
REMARK    8  A    between atoms: C_20  and  N_21 
REMARK    9  A    between atoms: C_26  and  N_27 
ROOT
ATOM      1  N   UNL d   1      26.491 -14.078  -2.159  0.00  0.00    -0.299 N 
ATOM      2  C   UNL d   1      25.898 -14.025  -3.449  0.00  0.00     0.257 C 
ATOM      3  O   UNL d   1      25.189 -14.883  -3.980  0.00  0.00    -0.267 OA
ATOM      4  H   UNL d   1      27.036 -13.283  -1.858  0.00  0.00     0.171 HD
ENDROOT
BRANCH   1   5
ATOM      5  C   UNL d   1      26.352 -15.190  -1.289  0.00  0.00     0.179 C 
ATOM      6  S   UNL d   1      26.992 -15.062   0.271  0.00  0.00    -0.040 SA
BRANCH   5   7
ATOM      7  N   UNL d   1      25.665 -16.329  -1.834  0.00  0.00    -0.333 N 
ATOM      8  H   UNL d   1      25.881 -16.633  -2.778  0.00  0.00     0.168 HD
BRANCH   7   9
ATOM      9  C   UNL d   1      24.543 -17.052  -1.219  0.00  0.00     0.034 C 
ATOM     10  C   UNL d   1      24.649 -18.312  -0.600  0.00  0.00     0.032 C 
ATOM     11  C   UNL d   1      23.478 -19.008  -0.124  0.00  0.00     0.032 C 
ATOM     12  C   UNL d   1      22.200 -18.454  -0.263  0.00  0.00     0.034 C 
ATOM     13  C   UNL d   1      22.115 -17.204  -0.813  0.00  0.00     0.032 C 
ATOM     14  C   UNL d   1      23.254 -16.537  -1.217  0.00  0.00     0.032 C 
BRANCH  12  15
ATOM     15  N   UNL d   1      21.002 -19.053   0.188  0.00  0.00    -0.327 N 
ATOM     16  C   UNL d   1      20.078 -19.590  -0.711  0.00  0.00     0.222 C 
ATOM     17  O   UNL d   1      20.281 -19.711  -1.921  0.00  0.00    -0.273 OA
ATOM     18  H   UNL d   1      20.835 -19.100   1.182  0.00  0.00     0.169 HD
BRANCH  16  19
ATOM     19  C   UNL d   1      18.780 -20.084  -0.102  0.00  0.00     0.103 C 
BRANCH  19  20
ATOM     20  C   UNL d   1      19.086 -21.090   1.018  0.00  0.00     0.005 C 
ATOM     21  C   UNL d   1      19.083 -20.453   2.392  0.00  0.00     0.005 C 
ENDBRANCH  19  20
ENDBRANCH  16  19
ENDBRANCH  12  15
ENDBRANCH   7   9
ENDBRANCH   5   7
ENDBRANCH   1   5
BRANCH   2  22
ATOM     22  C   UNL d   1      26.080 -12.893  -4.362  0.00  0.00     0.035 A 
ATOM     23  C   UNL d   1      27.056 -13.009  -5.360  0.00  0.00     0.019 A 
ATOM     24  C   UNL d   1      27.473 -11.886  -6.081  0.00  0.00     0.033 A 
ATOM     25  C   UNL d   1      26.922 -10.600  -5.873  0.00  0.00     0.063 A 
ATOM     26  C   UNL d   1      25.975 -10.506  -4.812  0.00  0.00     0.130 A 
ATOM     27  C   UNL d   1      25.568 -11.648  -4.067  0.00  0.00     0.055 A 
BRANCH  25  28
ATOM     28  N   UNL d   1      27.380  -9.616  -6.723  0.00  0.00    -0.379 N 
ATOM     29  C   UNL d   1      28.576  -8.804  -6.545  0.00  0.00     0.123 C 
ATOM     30  C   UNL d   1      28.082  -7.385  -6.810  0.00  0.00     0.021 C 
ATOM     31  C   UNL d   1      27.097  -7.585  -7.951  0.00  0.00     0.021 C 
ATOM     32  C   UNL d   1      26.485  -8.976  -7.704  0.00  0.00     0.123 C 
ENDBRANCH  25  28
BRANCH  26  33
ATOM     33  N   UNL d   1      25.304  -9.259  -4.395  0.00  0.00    -0.113 N 
ATOM     34  O   UNL d   1      25.144  -8.998  -3.212  0.00  0.00    -0.532 OA
ATOM     35  O   UNL d   1      24.952  -8.479  -5.304  0.00  0.00    -0.532 OA
ENDBRANCH  26  33
ENDBRANCH   2  22
TORSDOF 9
ENDMDL
MODEL 9
REMARK VINA RESULT:    -8.907      6.268      9.067
REMARK INTER + INTRA:         -13.437
REMARK INTER:                 -11.591
REMARK INTRA:                  -1.846
REMARK CONF_INDEPENDENT:        2.685
REMARK UNBOUND:                -1.846
REMARK  9 active torsions:
REMARK  status: ('A' for Active; 'I' for Inactive)
REMARK    1  A    between atoms: C_2  and  C_3 
REMARK    2  A    between atoms: C_3  and  C_4 
REMARK       I    between atoms: C_4  and  N_6 
REMARK    3  A    between atoms: N_6  and  C_7 
REMARK    4  A    between atoms: C_10  and  N_11 
REMARK    5  A    between atoms: N_11  and  C_12 
REMARK    6  A    between atoms: C_12  and  N_14 
REMARK       I    between atoms: N_14  and  C_15 
REMARK    7  A    between atoms: C_15  and  C_17 
REMARK    8  A    between atoms: C_20  and  N_21 
REMARK    9  A    between atoms: C_26  and  N_27 
ROOT
ATOM      1  N   UNL d   1      26.527 -14.067  -2.171  0.00  0.00    -0.299 N 
ATOM      2  C   UNL d   1      25.912 -13.716  -3.402  0.00  0.00     0.257 C 
ATOM      3  O   UNL d   1      25.166 -14.416  -4.090  0.00  0.00    -0.267 OA
ATOM      4  H   UNL d   1      27.102 -13.374  -1.716  0.00  0.00     0.171 HD
ENDROOT
BRANCH   1   5
ATOM      5  C   UNL d   1      26.367 -15.340  -1.563  0.00  0.00     0.179 C 
ATOM      6  S   UNL d   1      27.250 -15.664  -0.157  0.00  0.00    -0.040 SA
BRANCH   5   7
ATOM      7  N   UNL d   1      25.451 -16.235  -2.215  0.00  0.00    -0.333 N 
ATOM      8  H   UNL d   1      25.495 -16.340  -3.224  0.00  0.00     0.168 HD
BRANCH   7   9
ATOM      9  C   UNL d   1      24.323 -16.941  -1.592  0.00  0.00     0.034 C 
ATOM     10  C   UNL d   1      23.555 -16.434  -0.528  0.00  0.00     0.032 C 
ATOM     11  C   UNL d   1      22.539 -17.239   0.106  0.00  0.00     0.032 C 
ATOM     12  C   UNL d   1      22.284 -18.549  -0.316  0.00  0.00     0.034 C 
ATOM     13  C   UNL d   1      22.997 -19.011  -1.389  0.00  0.00     0.032 C 
ATOM     14  C   UNL d   1      23.931 -18.205  -2.010  0.00  0.00     0.032 C 
BRANCH  12  15
ATOM     15  N   UNL d   1      21.300 -19.403   0.231  0.00  0.00    -0.327 N 
ATOM     16  C   UNL d   1      20.219 -19.844  -0.533  0.00  0.00     0.222 C 
ATOM     17  O   UNL d   1      20.104 -19.651  -1.744  0.00  0.00    -0.273 OA
ATOM     18  H   UNL d   1      21.407 -19.704   1.189  0.00  0.00     0.169 HD
BRANCH  16  19
ATOM     19  C   UNL d   1      19.172 -20.650   0.214  0.00  0.00     0.103 C 
BRANCH  19  20
ATOM     20  C   UNL d   1      18.817 -19.940   1.530  0.00  0.00     0.005 C 
ATOM     21  C   UNL d   1      19.634 -20.443   2.703  0.00  0.00     0.005 C 
ENDBRANCH  19  20
ENDBRANCH  16  19
ENDBRANCH  12  15
ENDBRANCH   7   9
ENDBRANCH   5   7
ENDBRANCH   1   5
BRANCH   2  22
ATOM     22  C   UNL d   1      26.113 -12.416  -4.049  0.00  0.00     0.035 A 
ATOM     23  C   UNL d   1      25.645 -11.276  -3.385  0.00  0.00     0.019 A 
ATOM     24  C   UNL d   1      25.551 -10.051  -4.052  0.00  0.00     0.033 A 
ATOM     25  C   UNL d   1      25.949  -9.886  -5.400  0.00  0.00     0.063 A 
ATOM     26  C   UNL d   1      26.366 -11.077  -6.063  0.00  0.00     0.130 A 
ATOM     27  C   UNL d   1      26.439 -12.327  -5.385  0.00  0.00     0.055 A 
BRANCH  25  28
ATOM     28  N   UNL d   1      25.874  -8.598  -5.885  0.00  0.00    -0.379 N 
ATOM     29  C   UNL d   1      24.706  -7.960  -6.475  0.00  0.00     0.123 C 
ATOM     30  C   UNL d   1      25.257  -7.325  -7.749  0.00  0.00     0.021 C 
ATOM     31  C   UNL d   1      26.625  -6.830  -7.307  0.00  0.00     0.021 C 
ATOM     32  C   UNL d   1      27.089  -7.848  -6.250  0.00  0.00     0.123 C 
ENDBRANCH  25  28
BRANCH  26  33
ATOM     33  N   UNL d   1      26.785 -11.146  -7.476  0.00  0.00    -0.113 N 
ATOM     34  O   UNL d   1      27.920 -11.486  -7.778  0.00  0.00    -0.532 OA
ATOM     35  O   UNL d   1      25.918 -10.882  -8.334  0.00  0.00    -0.532 OA
ENDBRANCH  26  33
ENDBRANCH   2  22
TORSDOF 9
ENDMDL
