MODEL 1
REMARK VINA RESULT:    -9.303      0.000      0.000
REMARK INTER + INTRA:         -14.788
REMARK INTER:                 -11.689
REMARK INTRA:                  -3.099
REMARK CONF_INDEPENDENT:        2.386
REMARK UNBOUND:                -3.099
REMARK  8 active torsions:
REMARK  status: ('A' for Active; 'I' for Inactive)
REMARK    1  A    between atoms: O_2  and  C_3 
REMARK    2  A    between atoms: C_6  and  C_7 
REMARK    3  A    between atoms: N_9  and  C_10 
REMARK    4  A    between atoms: C_17  and  C_18 
REMARK    5  A    between atoms: C_18  and  N_19 
REMARK    6  A    between atoms: C_22  and  C_23 
REMARK       I    between atoms: C_23  and  N_25 
REMARK    7  A    between atoms: N_25  and  C_26 
REMARK    8  A    between atoms: C_31  and  O_32 
ROOT
ATOM      1  C   UNL d   1      28.166 -15.746  -0.103  0.00  0.00     0.277 C 
ENDROOT
BRANCH   1   2
ATOM      2  C   UNL d   1      27.675 -15.620  -1.499  0.00  0.00     0.016 C 
ATOM      3  C   UNL d   1      28.337 -15.079  -2.572  0.00  0.00     0.130 C 
ATOM      4  N   UNL d   1      27.472 -14.992  -3.612  0.00  0.00    -0.244 N 
ATOM      5  N   UNL d   1      26.298 -15.576  -3.332  0.00  0.00    -0.167 NA
ATOM      6  C   UNL d   1      26.417 -15.986  -2.063  0.00  0.00     0.097 C 
BRANCH   4   7
ATOM      7  C   UNL d   1      27.796 -14.501  -4.875  0.00  0.00     0.058 C 
ATOM      8  C   UNL d   1      28.680 -15.199  -5.692  0.00  0.00     0.031 C 
ATOM      9  C   UNL d   1      29.065 -14.643  -6.908  0.00  0.00     0.002 C 
ATOM     10  C   UNL d   1      28.597 -13.385  -7.269  0.00  0.00     0.000 C 
ATOM     11  C   UNL d   1      27.782 -12.674  -6.392  0.00  0.00     0.002 C 
ATOM     12  C   UNL d   1      27.280 -13.266  -5.247  0.00  0.00     0.031 C 
ENDBRANCH   4   7
BRANCH   6  13
ATOM     13  C   UNL d   1      25.331 -16.686  -1.408  0.00  0.00    -0.005 A 
ATOM     14  C   UNL d   1      24.023 -16.223  -1.550  0.00  0.00     0.016 A 
ATOM     15  C   UNL d   1      22.989 -16.838  -0.847  0.00  0.00     0.037 A 
ATOM     16  C   UNL d   1      23.243 -17.963  -0.059  0.00  0.00     0.068 A 
ATOM     17  C   UNL d   1      24.549 -18.438   0.064  0.00  0.00     0.037 A 
ATOM     18  C   UNL d   1      25.594 -17.799  -0.604  0.00  0.00     0.016 A 
BRANCH  16  19
ATOM     19  O   UNL d   1      22.136 -18.578   0.455  0.00  0.00    -0.356 OA
ATOM     20  C   UNL d   1      21.199 -19.087  -0.485  0.00  0.00     0.210 C 
ENDBRANCH  16  19
ENDBRANCH   6  13
ENDBRANCH   1   2
BRANCH   1  21
ATOM     21  N   UNL d   1      29.454 -16.580   0.066  0.00  0.00    -0.067 N 
ATOM     22  C   UNL d   1      29.435 -17.916  -0.671  0.00  0.00     0.236 C 
ATOM     23  C   UNL d   1      30.773 -18.635  -0.520  0.00  0.00     0.042 C 
ATOM     24  C   UNL d   1      31.923 -17.762  -1.016  0.00  0.00     0.081 C 
ATOM     25  C   UNL d   1      31.968 -16.529  -0.083  0.00  0.00     0.042 C 
ATOM     26  C   UNL d   1      30.685 -15.700  -0.158  0.00  0.00     0.236 C 
ATOM     27  H   UNL d   1      29.467 -16.820   1.064  0.00  0.00     0.280 HD
BRANCH  24  28
ATOM     28  C   UNL d   1      31.751 -17.300  -2.463  0.00  0.00     0.226 C 
ATOM     29  O   UNL d   1      31.728 -16.075  -2.672  0.00  0.00    -0.273 OA
ATOM     30  N   UNL d   1      31.485 -18.245  -3.427  0.00  0.00    -0.324 N 
ATOM     31  H   UNL d   1      31.416 -19.231  -3.200  0.00  0.00     0.169 HD
BRANCH  30  32
ATOM     32  C   UNL d   1      31.405 -17.941  -4.817  0.00  0.00     0.068 A 
ATOM     33  C   UNL d   1      31.885 -16.703  -5.275  0.00  0.00     0.032 A 
ATOM     34  C   UNL d   1      31.721 -16.343  -6.620  0.00  0.00     0.002 A 
ATOM     35  C   UNL d   1      31.155 -17.248  -7.526  0.00  0.00     0.003 A 
ATOM     36  C   UNL d   1      30.759 -18.510  -7.098  0.00  0.00     0.039 A 
ATOM     37  C   UNL d   1      30.838 -18.829  -5.749  0.00  0.00     0.092 A 
BRANCH  37  38
ATOM     38  O   UNL d   1      30.237 -19.990  -5.350  0.00  0.00    -0.358 OA
ATOM     39  H   UNL d   1      30.863 -20.722  -5.477  0.00  0.00     0.217 HD
ENDBRANCH  37  38
ENDBRANCH  30  32
ENDBRANCH  24  28
ENDBRANCH   1  21
TORSDOF 8
ENDMDL
MODEL 2
REMARK VINA RESULT:    -9.284      1.989      2.552
REMARK INTER + INTRA:         -16.154
REMARK INTER:                 -11.671
REMARK INTRA:                  -4.483
REMARK CONF_INDEPENDENT:        2.386
REMARK UNBOUND:                -4.483
REMARK  8 active torsions:
REMARK  status: ('A' for Active; 'I' for Inactive)
REMARK    1  A    between atoms: O_2  and  C_3 
REMARK    2  A    between atoms: C_6  and  C_7 
REMARK    3  A    between atoms: N_9  and  C_10 
REMARK    4  A    between atoms: C_17  and  C_18 
REMARK    5  A    between atoms: C_18  and  N_19 
REMARK    6  A    between atoms: C_22  and  C_23 
REMARK       I    between atoms: C_23  and  N_25 
REMARK    7  A    between atoms: N_25  and  C_26 
REMARK    8  A    between atoms: C_31  and  O_32 
ROOT
ATOM      1  C   UNL d   1      27.135 -15.848   0.601  0.00  0.00     0.277 C 
ENDROOT
BRANCH   1   2
ATOM      2  C   UNL d   1      26.541 -15.244  -0.619  0.00  0.00     0.016 C 
ATOM      3  C   UNL d   1      27.041 -14.208  -1.367  0.00  0.00     0.130 C 
ATOM      4  N   UNL d   1      26.107 -13.848  -2.281  0.00  0.00    -0.244 N 
ATOM      5  N   UNL d   1      25.058 -14.683  -2.276  0.00  0.00    -0.167 NA
ATOM      6  C   UNL d   1      25.321 -15.552  -1.290  0.00  0.00     0.097 C 
BRANCH   4   7
ATOM      7  C   UNL d   1      26.269 -12.836  -3.224  0.00  0.00     0.058 C 
ATOM      8  C   UNL d   1      25.524 -12.848  -4.400  0.00  0.00     0.031 C 
ATOM      9  C   UNL d   1      25.771 -11.882  -5.371  0.00  0.00     0.002 C 
ATOM     10  C   UNL d   1      26.782 -10.950  -5.173  0.00  0.00     0.000 C 
ATOM     11  C   UNL d   1      27.567 -11.015  -4.025  0.00  0.00     0.002 C 
ATOM     12  C   UNL d   1      27.247 -11.878  -2.992  0.00  0.00     0.031 C 
ENDBRANCH   4   7
BRANCH   6  13
ATOM     13  C   UNL d   1      24.401 -16.630  -0.991  0.00  0.00    -0.005 A 
ATOM     14  C   UNL d   1      23.034 -16.369  -0.900  0.00  0.00     0.016 A 
ATOM     15  C   UNL d   1      22.157 -17.383  -0.522  0.00  0.00     0.037 A 
ATOM     16  C   UNL d   1      22.630 -18.680  -0.305  0.00  0.00     0.068 A 
ATOM     17  C   UNL d   1      23.995 -18.944  -0.419  0.00  0.00     0.037 A 
ATOM     18  C   UNL d   1      24.882 -17.921  -0.756  0.00  0.00     0.016 A 
BRANCH  16  19
ATOM     19  O   UNL d   1      21.666 -19.625  -0.095  0.00  0.00    -0.356 OA
ATOM     20  C   UNL d   1      20.359 -19.314  -0.563  0.00  0.00     0.210 C 
ENDBRANCH  16  19
ENDBRANCH   6  13
ENDBRANCH   1   2
BRANCH   1  21
ATOM     21  N   UNL d   1      28.545 -16.448   0.416  0.00  0.00    -0.067 N 
ATOM     22  C   UNL d   1      28.652 -17.451  -0.729  0.00  0.00     0.236 C 
ATOM     23  C   UNL d   1      30.093 -17.929  -0.894  0.00  0.00     0.042 C 
ATOM     24  C   UNL d   1      31.038 -16.752  -1.119  0.00  0.00     0.081 C 
ATOM     25  C   UNL d   1      30.993 -15.903   0.174  0.00  0.00     0.042 C 
ATOM     26  C   UNL d   1      29.598 -15.338   0.446  0.00  0.00     0.236 C 
ATOM     27  H   UNL d   1      28.699 -16.993   1.271  0.00  0.00     0.280 HD
BRANCH  24  28
ATOM     28  C   UNL d   1      30.649 -15.880  -2.313  0.00  0.00     0.226 C 
ATOM     29  O   UNL d   1      31.134 -14.738  -2.369  0.00  0.00    -0.273 OA
ATOM     30  N   UNL d   1      29.678 -16.342  -3.173  0.00  0.00    -0.324 N 
ATOM     31  H   UNL d   1      29.235 -17.243  -3.038  0.00  0.00     0.169 HD
BRANCH  30  32
ATOM     32  C   UNL d   1      29.309 -15.661  -4.369  0.00  0.00     0.068 A 
ATOM     33  C   UNL d   1      30.313 -15.108  -5.180  0.00  0.00     0.032 A 
ATOM     34  C   UNL d   1      29.965 -14.347  -6.304  0.00  0.00     0.002 A 
ATOM     35  C   UNL d   1      28.621 -14.204  -6.668  0.00  0.00     0.003 A 
ATOM     36  C   UNL d   1      27.625 -14.823  -5.920  0.00  0.00     0.039 A 
ATOM     37  C   UNL d   1      27.966 -15.500  -4.756  0.00  0.00     0.092 A 
BRANCH  37  38
ATOM     38  O   UNL d   1      26.939 -15.898  -3.947  0.00  0.00    -0.358 OA
ATOM     39  H   UNL d   1      26.238 -15.227  -3.984  0.00  0.00     0.217 HD
ENDBRANCH  37  38
ENDBRANCH  30  32
ENDBRANCH  24  28
ENDBRANCH   1  21
TORSDOF 8
ENDMDL
MODEL 3
REMARK VINA RESULT:    -9.222      2.615      4.685
REMARK INTER + INTRA:         -16.006
REMARK INTER:                 -11.608
REMARK INTRA:                  -4.397
REMARK CONF_INDEPENDENT:        2.386
REMARK UNBOUND:                -4.397
REMARK  8 active torsions:
REMARK  status: ('A' for Active; 'I' for Inactive)
REMARK    1  A    between atoms: O_2  and  C_3 
REMARK    2  A    between atoms: C_6  and  C_7 
REMARK    3  A    between atoms: N_9  and  C_10 
REMARK    4  A    between atoms: C_17  and  C_18 
REMARK    5  A    between atoms: C_18  and  N_19 
REMARK    6  A    between atoms: C_22  and  C_23 
REMARK       I    between atoms: C_23  and  N_25 
REMARK    7  A    between atoms: N_25  and  C_26 
REMARK    8  A    between atoms: C_31  and  O_32 
ROOT
ATOM      1  C   UNL d   1      28.650 -17.021  -0.434  0.00  0.00     0.277 C 
ENDROOT
BRANCH   1   2
ATOM      2  C   UNL d   1      28.074 -16.554  -1.720  0.00  0.00     0.016 C 
ATOM      3  C   UNL d   1      28.748 -16.051  -2.804  0.00  0.00     0.130 C 
ATOM      4  N   UNL d   1      27.840 -15.575  -3.692  0.00  0.00    -0.244 N 
ATOM      5  N   UNL d   1      26.585 -15.860  -3.320  0.00  0.00    -0.167 NA
ATOM      6  C   UNL d   1      26.712 -16.478  -2.139  0.00  0.00     0.097 C 
BRANCH   4   7
ATOM      7  C   UNL d   1      28.158 -14.999  -4.920  0.00  0.00     0.058 C 
ATOM      8  C   UNL d   1      29.234 -15.481  -5.662  0.00  0.00     0.031 C 
ATOM      9  C   UNL d   1      29.593 -14.829  -6.838  0.00  0.00     0.002 C 
ATOM     10  C   UNL d   1      28.905 -13.688  -7.232  0.00  0.00     0.000 C 
ATOM     11  C   UNL d   1      27.890 -13.181  -6.425  0.00  0.00     0.002 C 
ATOM     12  C   UNL d   1      27.429 -13.890  -5.329  0.00  0.00     0.031 C 
ENDBRANCH   4   7
BRANCH   6  13
ATOM     13  C   UNL d   1      25.545 -16.955  -1.425  0.00  0.00    -0.005 A 
ATOM     14  C   UNL d   1      24.306 -16.353  -1.643  0.00  0.00     0.016 A 
ATOM     15  C   UNL d   1      23.202 -16.747  -0.890  0.00  0.00     0.037 A 
ATOM     16  C   UNL d   1      23.311 -17.793   0.030  0.00  0.00     0.068 A 
ATOM     17  C   UNL d   1      24.547 -18.409   0.230  0.00  0.00     0.037 A 
ATOM     18  C   UNL d   1      25.666 -17.989  -0.492  0.00  0.00     0.016 A 
BRANCH  16  19
ATOM     19  O   UNL d   1      22.135 -18.200   0.594  0.00  0.00    -0.356 OA
ATOM     20  C   UNL d   1      21.359 -19.126  -0.156  0.00  0.00     0.210 C 
ENDBRANCH  16  19
ENDBRANCH   6  13
ENDBRANCH   1   2
BRANCH   1  21
ATOM     21  N   UNL d   1      28.889 -15.917   0.618  0.00  0.00    -0.067 N 
ATOM     22  C   UNL d   1      29.694 -14.728   0.104  0.00  0.00     0.236 C 
ATOM     23  C   UNL d   1      29.810 -13.649   1.178  0.00  0.00     0.042 C 
ATOM     24  C   UNL d   1      28.432 -13.201   1.656  0.00  0.00     0.081 C 
ATOM     25  C   UNL d   1      27.780 -14.434   2.326  0.00  0.00     0.042 C 
ATOM     26  C   UNL d   1      27.582 -15.588   1.342  0.00  0.00     0.236 C 
ATOM     27  H   UNL d   1      29.485 -16.367   1.321  0.00  0.00     0.280 HD
BRANCH  24  28
ATOM     28  C   UNL d   1      27.532 -12.701   0.525  0.00  0.00     0.226 C 
ATOM     29  O   UNL d   1      26.307 -12.687   0.734  0.00  0.00    -0.273 OA
ATOM     30  N   UNL d   1      28.102 -12.438  -0.700  0.00  0.00    -0.324 N 
ATOM     31  H   UNL d   1      29.097 -12.553  -0.858  0.00  0.00     0.169 HD
BRANCH  30  32
ATOM     32  C   UNL d   1      27.380 -11.875  -1.791  0.00  0.00     0.068 A 
ATOM     33  C   UNL d   1      27.743 -10.606  -2.271  0.00  0.00     0.032 A 
ATOM     34  C   UNL d   1      26.979  -9.992  -3.273  0.00  0.00     0.002 A 
ATOM     35  C   UNL d   1      25.905 -10.674  -3.856  0.00  0.00     0.003 A 
ATOM     36  C   UNL d   1      25.594 -11.967  -3.448  0.00  0.00     0.039 A 
ATOM     37  C   UNL d   1      26.293 -12.536  -2.393  0.00  0.00     0.092 A 
BRANCH  37  38
ATOM     38  O   UNL d   1      25.808 -13.711  -1.889  0.00  0.00    -0.358 OA
ATOM     39  H   UNL d   1      26.231 -13.877  -1.030  0.00  0.00     0.217 HD
ENDBRANCH  37  38
ENDBRANCH  30  32
ENDBRANCH  24  28
ENDBRANCH   1  21
TORSDOF 8
ENDMDL
MODEL 4
REMARK VINA RESULT:    -9.215      1.969      2.674
REMARK INTER + INTRA:         -15.800
REMARK INTER:                 -11.601
REMARK INTRA:                  -4.199
REMARK CONF_INDEPENDENT:        2.386
REMARK UNBOUND:                -4.199
REMARK  8 active torsions:
REMARK  status: ('A' for Active; 'I' for Inactive)
REMARK    1  A    between atoms: O_2  and  C_3 
REMARK    2  A    between atoms: C_6  and  C_7 
REMARK    3  A    between atoms: N_9  and  C_10 
REMARK    4  A    between atoms: C_17  and  C_18 
REMARK    5  A    between atoms: C_18  and  N_19 
REMARK    6  A    between atoms: C_22  and  C_23 
REMARK       I    between atoms: C_23  and  N_25 
REMARK    7  A    between atoms: N_25  and  C_26 
REMARK    8  A    between atoms: C_31  and  O_32 
ROOT
ATOM      1  C   UNL d   1      27.248 -16.021   0.571  0.00  0.00     0.277 C 
ENDROOT
BRANCH   1   2
ATOM      2  C   UNL d   1      26.654 -15.378  -0.629  0.00  0.00     0.016 C 
ATOM      3  C   UNL d   1      27.190 -14.369  -1.388  0.00  0.00     0.130 C 
ATOM      4  N   UNL d   1      26.251 -13.951  -2.274  0.00  0.00    -0.244 N 
ATOM      5  N   UNL d   1      25.157 -14.725  -2.239  0.00  0.00    -0.167 NA
ATOM      6  C   UNL d   1      25.399 -15.612  -1.265  0.00  0.00     0.097 C 
BRANCH   4   7
ATOM      7  C   UNL d   1      26.443 -12.946  -3.218  0.00  0.00     0.058 C 
ATOM      8  C   UNL d   1      25.542 -12.790  -4.268  0.00  0.00     0.031 C 
ATOM      9  C   UNL d   1      25.805 -11.843  -5.253  0.00  0.00     0.002 C 
ATOM     10  C   UNL d   1      26.978 -11.099  -5.199  0.00  0.00     0.000 C 
ATOM     11  C   UNL d   1      27.900 -11.337  -4.183  0.00  0.00     0.002 C 
ATOM     12  C   UNL d   1      27.593 -12.173  -3.124  0.00  0.00     0.031 C 
ENDBRANCH   4   7
BRANCH   6  13
ATOM     13  C   UNL d   1      24.428 -16.637  -0.942  0.00  0.00    -0.005 A 
ATOM     14  C   UNL d   1      24.852 -17.946  -0.711  0.00  0.00     0.016 A 
ATOM     15  C   UNL d   1      23.913 -18.952  -0.492  0.00  0.00     0.037 A 
ATOM     16  C   UNL d   1      22.552 -18.645  -0.429  0.00  0.00     0.068 A 
ATOM     17  C   UNL d   1      22.131 -17.331  -0.638  0.00  0.00     0.037 A 
ATOM     18  C   UNL d   1      23.065 -16.328  -0.900  0.00  0.00     0.016 A 
BRANCH  16  19
ATOM     19  O   UNL d   1      21.738 -19.676  -0.053  0.00  0.00    -0.356 OA
ATOM     20  C   UNL d   1      20.352 -19.379   0.068  0.00  0.00     0.210 C 
ENDBRANCH  16  19
ENDBRANCH   6  13
ENDBRANCH   1   2
BRANCH   1  21
ATOM     21  N   UNL d   1      28.709 -16.490   0.407  0.00  0.00    -0.067 N 
ATOM     22  C   UNL d   1      28.930 -17.451  -0.757  0.00  0.00     0.236 C 
ATOM     23  C   UNL d   1      30.411 -17.797  -0.898  0.00  0.00     0.042 C 
ATOM     24  C   UNL d   1      31.254 -16.537  -1.072  0.00  0.00     0.081 C 
ATOM     25  C   UNL d   1      31.105 -15.728   0.238  0.00  0.00     0.042 C 
ATOM     26  C   UNL d   1      29.660 -15.294   0.488  0.00  0.00     0.236 C 
ATOM     27  H   UNL d   1      28.891 -17.041   1.253  0.00  0.00     0.280 HD
BRANCH  24  28
ATOM     28  C   UNL d   1      30.816 -15.674  -2.256  0.00  0.00     0.226 C 
ATOM     29  O   UNL d   1      31.205 -14.494  -2.277  0.00  0.00    -0.273 OA
ATOM     30  N   UNL d   1      29.904 -16.194  -3.145  0.00  0.00    -0.324 N 
ATOM     31  H   UNL d   1      29.535 -17.132  -3.040  0.00  0.00     0.169 HD
BRANCH  30  32
ATOM     32  C   UNL d   1      29.503 -15.519  -4.334  0.00  0.00     0.068 A 
ATOM     33  C   UNL d   1      28.135 -15.414  -4.633  0.00  0.00     0.032 A 
ATOM     34  C   UNL d   1      27.726 -14.846  -5.848  0.00  0.00     0.002 A 
ATOM     35  C   UNL d   1      28.672 -14.308  -6.727  0.00  0.00     0.003 A 
ATOM     36  C   UNL d   1      30.023 -14.328  -6.397  0.00  0.00     0.039 A 
ATOM     37  C   UNL d   1      30.433 -14.973  -5.238  0.00  0.00     0.092 A 
BRANCH  37  38
ATOM     38  O   UNL d   1      31.777 -15.155  -5.071  0.00  0.00    -0.358 OA
ATOM     39  H   UNL d   1      32.041 -14.758  -4.224  0.00  0.00     0.217 HD
ENDBRANCH  37  38
ENDBRANCH  30  32
ENDBRANCH  24  28
ENDBRANCH   1  21
TORSDOF 8
ENDMDL
MODEL 5
REMARK VINA RESULT:    -8.590      4.815      8.543
REMARK INTER + INTRA:         -14.781
REMARK INTER:                 -10.976
REMARK INTRA:                  -3.805
REMARK CONF_INDEPENDENT:        2.386
REMARK UNBOUND:                -3.805
REMARK  8 active torsions:
REMARK  status: ('A' for Active; 'I' for Inactive)
REMARK    1  A    between atoms: O_2  and  C_3 
REMARK    2  A    between atoms: C_6  and  C_7 
REMARK    3  A    between atoms: N_9  and  C_10 
REMARK    4  A    between atoms: C_17  and  C_18 
REMARK    5  A    between atoms: C_18  and  N_19 
REMARK    6  A    between atoms: C_22  and  C_23 
REMARK       I    between atoms: C_23  and  N_25 
REMARK    7  A    between atoms: N_25  and  C_26 
REMARK    8  A    between atoms: C_31  and  O_32 
ROOT
ATOM      1  C   UNL d   1      29.024 -15.466   0.544  0.00  0.00     0.277 C 
ENDROOT
BRANCH   1   2
ATOM      2  C   UNL d   1      27.640 -15.553   0.011  0.00  0.00     0.016 C 
ATOM      3  C   UNL d   1      26.723 -16.550   0.228  0.00  0.00     0.130 C 
ATOM      4  N   UNL d   1      25.657 -16.338  -0.583  0.00  0.00    -0.244 N 
ATOM      5  N   UNL d   1      25.753 -15.171  -1.235  0.00  0.00    -0.167 NA
ATOM      6  C   UNL d   1      26.939 -14.670  -0.863  0.00  0.00     0.097 C 
BRANCH   4   7
ATOM      7  C   UNL d   1      24.521 -17.144  -0.628  0.00  0.00     0.058 C 
ATOM      8  C   UNL d   1      23.263 -16.572  -0.799  0.00  0.00     0.031 C 
ATOM      9  C   UNL d   1      22.136 -17.385  -0.744  0.00  0.00     0.002 C 
ATOM     10  C   UNL d   1      22.276 -18.742  -0.478  0.00  0.00     0.000 C 
ATOM     11  C   UNL d   1      23.540 -19.269  -0.227  0.00  0.00     0.002 C 
ATOM     12  C   UNL d   1      24.680 -18.506  -0.413  0.00  0.00     0.031 C 
ENDBRANCH   4   7
BRANCH   6  13
ATOM     13  C   UNL d   1      27.390 -13.388  -1.364  0.00  0.00    -0.005 A 
ATOM     14  C   UNL d   1      28.678 -12.943  -1.068  0.00  0.00     0.016 A 
ATOM     15  C   UNL d   1      29.082 -11.671  -1.469  0.00  0.00     0.037 A 
ATOM     16  C   UNL d   1      28.230 -10.868  -2.231  0.00  0.00     0.068 A 
ATOM     17  C   UNL d   1      26.949 -11.325  -2.546  0.00  0.00     0.037 A 
ATOM     18  C   UNL d   1      26.526 -12.581  -2.109  0.00  0.00     0.016 A 
BRANCH  16  19
ATOM     19  O   UNL d   1      28.785  -9.712  -2.702  0.00  0.00    -0.356 OA
ATOM     20  C   UNL d   1      27.928  -8.852  -3.443  0.00  0.00     0.210 C 
ENDBRANCH  16  19
ENDBRANCH   6  13
ENDBRANCH   1   2
BRANCH   1  21
ATOM     21  N   UNL d   1      29.149 -14.825   1.942  0.00  0.00    -0.067 N 
ATOM     22  C   UNL d   1      29.960 -13.533   1.967  0.00  0.00     0.236 C 
ATOM     23  C   UNL d   1      29.962 -12.924   3.367  0.00  0.00     0.042 C 
ATOM     24  C   UNL d   1      28.538 -12.676   3.858  0.00  0.00     0.081 C 
ATOM     25  C   UNL d   1      27.869 -14.065   3.975  0.00  0.00     0.042 C 
ATOM     26  C   UNL d   1      27.780 -14.779   2.625  0.00  0.00     0.236 C 
ATOM     27  H   UNL d   1      29.700 -15.503   2.479  0.00  0.00     0.280 HD
BRANCH  24  28
ATOM     28  C   UNL d   1      27.718 -11.792   2.918  0.00  0.00     0.226 C 
ATOM     29  O   UNL d   1      26.654 -12.260   2.479  0.00  0.00    -0.273 OA
ATOM     30  N   UNL d   1      28.264 -10.603   2.492  0.00  0.00    -0.324 N 
ATOM     31  H   UNL d   1      29.181 -10.300   2.799  0.00  0.00     0.169 HD
BRANCH  30  32
ATOM     32  C   UNL d   1      27.552  -9.659   1.697  0.00  0.00     0.068 A 
ATOM     33  C   UNL d   1      28.160  -9.138   0.544  0.00  0.00     0.032 A 
ATOM     34  C   UNL d   1      27.519  -8.132  -0.192  0.00  0.00     0.002 A 
ATOM     35  C   UNL d   1      26.237  -7.703   0.172  0.00  0.00     0.003 A 
ATOM     36  C   UNL d   1      25.591  -8.278   1.260  0.00  0.00     0.039 A 
ATOM     37  C   UNL d   1      26.265  -9.207   2.041  0.00  0.00     0.092 A 
BRANCH  37  38
ATOM     38  O   UNL d   1      25.673  -9.575   3.217  0.00  0.00    -0.358 OA
ATOM     39  H   UNL d   1      25.584 -10.543   3.229  0.00  0.00     0.217 HD
ENDBRANCH  37  38
ENDBRANCH  30  32
ENDBRANCH  24  28
ENDBRANCH   1  21
TORSDOF 8
ENDMDL
MODEL 6
REMARK VINA RESULT:    -8.526      1.880      5.399
REMARK INTER + INTRA:         -14.890
REMARK INTER:                 -10.913
REMARK INTRA:                  -3.978
REMARK CONF_INDEPENDENT:        2.386
REMARK UNBOUND:                -3.978
REMARK  8 active torsions:
REMARK  status: ('A' for Active; 'I' for Inactive)
REMARK    1  A    between atoms: O_2  and  C_3 
REMARK    2  A    between atoms: C_6  and  C_7 
REMARK    3  A    between atoms: N_9  and  C_10 
REMARK    4  A    between atoms: C_17  and  C_18 
REMARK    5  A    between atoms: C_18  and  N_19 
REMARK    6  A    between atoms: C_22  and  C_23 
REMARK       I    between atoms: C_23  and  N_25 
REMARK    7  A    between atoms: N_25  and  C_26 
REMARK    8  A    between atoms: C_31  and  O_32 
ROOT
ATOM      1  C   UNL d   1      28.625 -15.444   0.061  0.00  0.00     0.277 C 
ENDROOT
BRANCH   1   2
ATOM      2  C   UNL d   1      27.360 -15.864  -0.595  0.00  0.00     0.016 C 
ATOM      3  C   UNL d   1      26.246 -16.396   0.004  0.00  0.00     0.130 C 
ATOM      4  N   UNL d   1      25.392 -16.809  -0.966  0.00  0.00    -0.244 N 
ATOM      5  N   UNL d   1      25.818 -16.454  -2.186  0.00  0.00    -0.167 NA
ATOM      6  C   UNL d   1      26.998 -15.855  -1.974  0.00  0.00     0.097 C 
BRANCH   4   7
ATOM      7  C   UNL d   1      24.148 -17.390  -0.733  0.00  0.00     0.058 C 
ATOM      8  C   UNL d   1      24.054 -18.746  -0.430  0.00  0.00     0.031 C 
ATOM      9  C   UNL d   1      22.796 -19.325  -0.297  0.00  0.00     0.002 C 
ATOM     10  C   UNL d   1      21.657 -18.558  -0.510  0.00  0.00     0.000 C 
ATOM     11  C   UNL d   1      21.784 -17.226  -0.895  0.00  0.00     0.002 C 
ATOM     12  C   UNL d   1      23.018 -16.600  -0.897  0.00  0.00     0.031 C 
ENDBRANCH   4   7
BRANCH   6  13
ATOM     13  C   UNL d   1      27.763 -15.318  -3.080  0.00  0.00    -0.005 A 
ATOM     14  C   UNL d   1      28.993 -14.705  -2.839  0.00  0.00     0.016 A 
ATOM     15  C   UNL d   1      29.687 -14.105  -3.888  0.00  0.00     0.037 A 
ATOM     16  C   UNL d   1      29.194 -14.178  -5.193  0.00  0.00     0.068 A 
ATOM     17  C   UNL d   1      27.974 -14.811  -5.435  0.00  0.00     0.037 A 
ATOM     18  C   UNL d   1      27.255 -15.376  -4.381  0.00  0.00     0.016 A 
BRANCH  16  19
ATOM     19  O   UNL d   1      30.030 -13.697  -6.160  0.00  0.00    -0.356 OA
ATOM     20  C   UNL d   1      29.413 -13.122  -7.305  0.00  0.00     0.210 C 
ENDBRANCH  16  19
ENDBRANCH   6  13
ENDBRANCH   1   2
BRANCH   1  21
ATOM     21  N   UNL d   1      29.766 -16.483   0.012  0.00  0.00    -0.067 N 
ATOM     22  C   UNL d   1      29.372 -17.815  -0.620  0.00  0.00     0.236 C 
ATOM     23  C   UNL d   1      30.576 -18.749  -0.705  0.00  0.00     0.042 C 
ATOM     24  C   UNL d   1      31.719 -18.101  -1.481  0.00  0.00     0.081 C 
ATOM     25  C   UNL d   1      32.164 -16.870  -0.657  0.00  0.00     0.042 C 
ATOM     26  C   UNL d   1      31.047 -15.834  -0.517  0.00  0.00     0.236 C 
ATOM     27  H   UNL d   1      29.953 -16.694   0.998  0.00  0.00     0.280 HD
BRANCH  24  28
ATOM     28  C   UNL d   1      31.319 -17.655  -2.888  0.00  0.00     0.226 C 
ATOM     29  O   UNL d   1      30.106 -17.612  -3.150  0.00  0.00    -0.273 OA
ATOM     30  N   UNL d   1      32.310 -17.471  -3.825  0.00  0.00    -0.324 N 
ATOM     31  H   UNL d   1      33.288 -17.609  -3.597  0.00  0.00     0.169 HD
BRANCH  30  32
ATOM     32  C   UNL d   1      32.062 -16.963  -5.132  0.00  0.00     0.068 A 
ATOM     33  C   UNL d   1      32.852 -15.908  -5.618  0.00  0.00     0.032 A 
ATOM     34  C   UNL d   1      32.557 -15.327  -6.859  0.00  0.00     0.002 A 
ATOM     35  C   UNL d   1      31.528 -15.847  -7.653  0.00  0.00     0.003 A 
ATOM     36  C   UNL d   1      30.799 -16.949  -7.218  0.00  0.00     0.039 A 
ATOM     37  C   UNL d   1      31.033 -17.464  -5.950  0.00  0.00     0.092 A 
BRANCH  37  38
ATOM     38  O   UNL d   1      30.149 -18.398  -5.488  0.00  0.00    -0.358 OA
ATOM     39  H   UNL d   1      30.591 -18.933  -4.808  0.00  0.00     0.217 HD
ENDBRANCH  37  38
ENDBRANCH  30  32
ENDBRANCH  24  28
ENDBRANCH   1  21
TORSDOF 8
ENDMDL
MODEL 7
REMARK VINA RESULT:    -8.494      2.866      6.842
REMARK INTER + INTRA:         -15.570
REMARK INTER:                 -10.881
REMARK INTRA:                  -4.689
REMARK CONF_INDEPENDENT:        2.386
REMARK UNBOUND:                -4.689
REMARK  8 active torsions:
REMARK  status: ('A' for Active; 'I' for Inactive)
REMARK    1  A    between atoms: O_2  and  C_3 
REMARK    2  A    between atoms: C_6  and  C_7 
REMARK    3  A    between atoms: N_9  and  C_10 
REMARK    4  A    between atoms: C_17  and  C_18 
REMARK    5  A    between atoms: C_18  and  N_19 
REMARK    6  A    between atoms: C_22  and  C_23 
REMARK       I    between atoms: C_23  and  N_25 
REMARK    7  A    between atoms: N_25  and  C_26 
REMARK    8  A    between atoms: C_31  and  O_32 
ROOT
ATOM      1  C   UNL d   1      28.964 -16.905  -0.269  0.00  0.00     0.277 C 
ENDROOT
BRANCH   1   2
ATOM      2  C   UNL d   1      27.575 -16.853  -0.791  0.00  0.00     0.016 C 
ATOM      3  C   UNL d   1      26.438 -17.330  -0.189  0.00  0.00     0.130 C 
ATOM      4  N   UNL d   1      25.415 -17.249  -1.075  0.00  0.00    -0.244 N 
ATOM      5  N   UNL d   1      25.780 -16.613  -2.197  0.00  0.00    -0.167 NA
ATOM      6  C   UNL d   1      27.081 -16.342  -2.027  0.00  0.00     0.097 C 
BRANCH   4   7
ATOM      7  C   UNL d   1      24.103 -17.632  -0.809  0.00  0.00     0.058 C 
ATOM      8  C   UNL d   1      23.806 -18.961  -0.520  0.00  0.00     0.031 C 
ATOM      9  C   UNL d   1      22.477 -19.339  -0.353  0.00  0.00     0.002 C 
ATOM     10  C   UNL d   1      21.467 -18.399  -0.520  0.00  0.00     0.000 C 
ATOM     11  C   UNL d   1      21.790 -17.097  -0.894  0.00  0.00     0.002 C 
ATOM     12  C   UNL d   1      23.106 -16.672  -0.928  0.00  0.00     0.031 C 
ENDBRANCH   4   7
BRANCH   6  13
ATOM     13  C   UNL d   1      27.827 -15.634  -3.047  0.00  0.00    -0.005 A 
ATOM     14  C   UNL d   1      27.239 -15.382  -4.287  0.00  0.00     0.016 A 
ATOM     15  C   UNL d   1      27.986 -14.785  -5.300  0.00  0.00     0.037 A 
ATOM     16  C   UNL d   1      29.298 -14.370  -5.059  0.00  0.00     0.068 A 
ATOM     17  C   UNL d   1      29.877 -14.603  -3.811  0.00  0.00     0.037 A 
ATOM     18  C   UNL d   1      29.146 -15.239  -2.806  0.00  0.00     0.016 A 
BRANCH  16  19
ATOM     19  O   UNL d   1      29.879 -13.656  -6.069  0.00  0.00    -0.356 OA
ATOM     20  C   UNL d   1      29.031 -13.269  -7.143  0.00  0.00     0.210 C 
ENDBRANCH  16  19
ENDBRANCH   6  13
ENDBRANCH   1   2
BRANCH   1  21
ATOM     21  N   UNL d   1      29.419 -15.652   0.509  0.00  0.00    -0.067 N 
ATOM     22  C   UNL d   1      30.639 -14.955  -0.087  0.00  0.00     0.236 C 
ATOM     23  C   UNL d   1      30.968 -13.683   0.692  0.00  0.00     0.042 C 
ATOM     24  C   UNL d   1      29.771 -12.737   0.727  0.00  0.00     0.081 C 
ATOM     25  C   UNL d   1      28.659 -13.470   1.514  0.00  0.00     0.042 C 
ATOM     26  C   UNL d   1      28.216 -14.760   0.823  0.00  0.00     0.236 C 
ATOM     27  H   UNL d   1      29.731 -16.019   1.415  0.00  0.00     0.280 HD
BRANCH  24  28
ATOM     28  C   UNL d   1      29.251 -12.366  -0.662  0.00  0.00     0.226 C 
ATOM     29  O   UNL d   1      30.095 -12.140  -1.546  0.00  0.00    -0.273 OA
ATOM     30  N   UNL d   1      27.901 -12.155  -0.822  0.00  0.00    -0.324 N 
ATOM     31  H   UNL d   1      27.252 -12.256  -0.050  0.00  0.00     0.169 HD
BRANCH  30  32
ATOM     32  C   UNL d   1      27.296 -11.902  -2.087  0.00  0.00     0.068 A 
ATOM     33  C   UNL d   1      27.765 -10.834  -2.870  0.00  0.00     0.032 A 
ATOM     34  C   UNL d   1      27.116 -10.506  -4.068  0.00  0.00     0.002 A 
ATOM     35  C   UNL d   1      26.053 -11.291  -4.530  0.00  0.00     0.003 A 
ATOM     36  C   UNL d   1      25.640 -12.404  -3.805  0.00  0.00     0.039 A 
ATOM     37  C   UNL d   1      26.224 -12.672  -2.574  0.00  0.00     0.092 A 
BRANCH  37  38
ATOM     38  O   UNL d   1      25.637 -13.639  -1.807  0.00  0.00    -0.358 OA
ATOM     39  H   UNL d   1      25.857 -14.507  -2.182  0.00  0.00     0.217 HD
ENDBRANCH  37  38
ENDBRANCH  30  32
ENDBRANCH  24  28
ENDBRANCH   1  21
TORSDOF 8
ENDMDL
MODEL 8
REMARK VINA RESULT:    -8.349      3.501      7.026
REMARK INTER + INTRA:         -14.795
REMARK INTER:                 -10.735
REMARK INTRA:                  -4.059
REMARK CONF_INDEPENDENT:        2.386
REMARK UNBOUND:                -4.059
REMARK  8 active torsions:
REMARK  status: ('A' for Active; 'I' for Inactive)
REMARK    1  A    between atoms: O_2  and  C_3 
REMARK    2  A    between atoms: C_6  and  C_7 
REMARK    3  A    between atoms: N_9  and  C_10 
REMARK    4  A    between atoms: C_17  and  C_18 
REMARK    5  A    between atoms: C_18  and  N_19 
REMARK    6  A    between atoms: C_22  and  C_23 
REMARK       I    between atoms: C_23  and  N_25 
REMARK    7  A    between atoms: N_25  and  C_26 
REMARK    8  A    between atoms: C_31  and  O_32 
ROOT
ATOM      1  C   UNL d   1      27.256 -17.542  -0.538  0.00  0.00     0.277 C 
ENDROOT
BRANCH   1   2
ATOM      2  C   UNL d   1      25.793 -17.465  -0.780  0.00  0.00     0.016 C 
ATOM      3  C   UNL d   1      24.800 -18.148  -0.125  0.00  0.00     0.130 C 
ATOM      4  N   UNL d   1      23.628 -17.929  -0.771  0.00  0.00    -0.244 N 
ATOM      5  N   UNL d   1      23.761 -17.020  -1.747  0.00  0.00    -0.167 NA
ATOM      6  C   UNL d   1      25.064 -16.708  -1.746  0.00  0.00     0.097 C 
BRANCH   4   7
ATOM      7  C   UNL d   1      22.398 -18.455  -0.383  0.00  0.00     0.058 C 
ATOM      8  C   UNL d   1      22.072 -18.553   0.967  0.00  0.00     0.031 C 
ATOM      9  C   UNL d   1      20.880 -19.169   1.334  0.00  0.00     0.002 C 
ATOM     10  C   UNL d   1      20.056 -19.714   0.358  0.00  0.00     0.000 C 
ATOM     11  C   UNL d   1      20.449 -19.676  -0.978  0.00  0.00     0.002 C 
ATOM     12  C   UNL d   1      21.558 -18.949  -1.373  0.00  0.00     0.031 C 
ENDBRANCH   4   7
BRANCH   6  13
ATOM     13  C   UNL d   1      25.590 -15.728  -2.673  0.00  0.00    -0.005 A 
ATOM     14  C   UNL d   1      26.908 -15.832  -3.118  0.00  0.00     0.016 A 
ATOM     15  C   UNL d   1      27.445 -14.841  -3.936  0.00  0.00     0.037 A 
ATOM     16  C   UNL d   1      26.649 -13.780  -4.374  0.00  0.00     0.068 A 
ATOM     17  C   UNL d   1      25.324 -13.690  -3.947  0.00  0.00     0.037 A 
ATOM     18  C   UNL d   1      24.794 -14.658  -3.093  0.00  0.00     0.016 A 
BRANCH  16  19
ATOM     19  O   UNL d   1      27.230 -12.956  -5.297  0.00  0.00    -0.356 OA
ATOM     20  C   UNL d   1      28.038 -13.581  -6.286  0.00  0.00     0.210 C 
ENDBRANCH  16  19
ENDBRANCH   6  13
ENDBRANCH   1   2
BRANCH   1  21
ATOM     21  N   UNL d   1      27.829 -16.440   0.377  0.00  0.00    -0.067 N 
ATOM     22  C   UNL d   1      29.203 -15.928  -0.046  0.00  0.00     0.236 C 
ATOM     23  C   UNL d   1      29.656 -14.785   0.859  0.00  0.00     0.042 C 
ATOM     24  C   UNL d   1      28.635 -13.650   0.861  0.00  0.00     0.081 C 
ATOM     25  C   UNL d   1      27.341 -14.228   1.481  0.00  0.00     0.042 C 
ATOM     26  C   UNL d   1      26.764 -15.375   0.649  0.00  0.00     0.236 C 
ATOM     27  H   UNL d   1      27.979 -16.912   1.275  0.00  0.00     0.280 HD
BRANCH  24  28
ATOM     28  C   UNL d   1      28.332 -13.106  -0.536  0.00  0.00     0.226 C 
ATOM     29  O   UNL d   1      27.212 -13.353  -1.014  0.00  0.00    -0.273 OA
ATOM     30  N   UNL d   1      29.351 -12.511  -1.244  0.00  0.00    -0.324 N 
ATOM     31  H   UNL d   1      30.282 -12.413  -0.854  0.00  0.00     0.169 HD
BRANCH  30  32
ATOM     32  C   UNL d   1      29.159 -11.883  -2.508  0.00  0.00     0.068 A 
ATOM     33  C   UNL d   1      30.108 -12.082  -3.523  0.00  0.00     0.032 A 
ATOM     34  C   UNL d   1      29.991 -11.391  -4.737  0.00  0.00     0.002 A 
ATOM     35  C   UNL d   1      28.885 -10.566  -4.972  0.00  0.00     0.003 A 
ATOM     36  C   UNL d   1      27.894 -10.433  -4.006  0.00  0.00     0.039 A 
ATOM     37  C   UNL d   1      28.059 -11.045  -2.771  0.00  0.00     0.092 A 
BRANCH  37  38
ATOM     38  O   UNL d   1      27.172 -10.707  -1.788  0.00  0.00    -0.358 OA
ATOM     39  H   UNL d   1      26.519 -11.422  -1.701  0.00  0.00     0.217 HD
ENDBRANCH  37  38
ENDBRANCH  30  32
ENDBRANCH  24  28
ENDBRANCH   1  21
TORSDOF 8
ENDMDL
MODEL 9
REMARK VINA RESULT:    -8.335      2.303      5.719
REMARK INTER + INTRA:         -14.953
REMARK INTER:                 -10.721
REMARK INTRA:                  -4.232
REMARK CONF_INDEPENDENT:        2.386
REMARK UNBOUND:                -4.232
REMARK  8 active torsions:
REMARK  status: ('A' for Active; 'I' for Inactive)
REMARK    1  A    between atoms: O_2  and  C_3 
REMARK    2  A    between atoms: C_6  and  C_7 
REMARK    3  A    between atoms: N_9  and  C_10 
REMARK    4  A    between atoms: C_17  and  C_18 
REMARK    5  A    between atoms: C_18  and  N_19 
REMARK    6  A    between atoms: C_22  and  C_23 
REMARK       I    between atoms: C_23  and  N_25 
REMARK    7  A    between atoms: N_25  and  C_26 
REMARK    8  A    between atoms: C_31  and  O_32 
ROOT
ATOM      1  C   UNL d   1      28.035 -15.092   0.429  0.00  0.00     0.277 C 
ENDROOT
BRANCH   1   2
ATOM      2  C   UNL d   1      26.756 -15.483  -0.217  0.00  0.00     0.016 C 
ATOM      3  C   UNL d   1      25.852 -16.417   0.220  0.00  0.00     0.130 C 
ATOM      4  N   UNL d   1      24.919 -16.599  -0.748  0.00  0.00    -0.244 N 
ATOM      5  N   UNL d   1      25.075 -15.731  -1.757  0.00  0.00    -0.167 NA
ATOM      6  C   UNL d   1      26.170 -15.028  -1.435  0.00  0.00     0.097 C 
BRANCH   4   7
ATOM      7  C   UNL d   1      23.834 -17.467  -0.652  0.00  0.00     0.058 C 
ATOM      8  C   UNL d   1      24.043 -18.838  -0.527  0.00  0.00     0.031 C 
ATOM      9  C   UNL d   1      22.946 -19.694  -0.530  0.00  0.00     0.002 C 
ATOM     10  C   UNL d   1      21.668 -19.177  -0.700  0.00  0.00     0.000 C 
ATOM     11  C   UNL d   1      21.498 -17.811  -0.909  0.00  0.00     0.002 C 
ATOM     12  C   UNL d   1      22.558 -16.932  -0.771  0.00  0.00     0.031 C 
ENDBRANCH   4   7
BRANCH   6  13
ATOM     13  C   UNL d   1      26.648 -13.968  -2.298  0.00  0.00    -0.005 A 
ATOM     14  C   UNL d   1      27.942 -13.473  -2.136  0.00  0.00     0.016 A 
ATOM     15  C   UNL d   1      28.372 -12.391  -2.902  0.00  0.00     0.037 A 
ATOM     16  C   UNL d   1      27.541 -11.847  -3.884  0.00  0.00     0.068 A 
ATOM     17  C   UNL d   1      26.255 -12.359  -4.061  0.00  0.00     0.037 A 
ATOM     18  C   UNL d   1      25.805 -13.415  -3.266  0.00  0.00     0.016 A 
BRANCH  16  19
ATOM     19  O   UNL d   1      28.120 -10.900  -4.680  0.00  0.00    -0.356 OA
ATOM     20  C   UNL d   1      29.318 -10.308  -4.193  0.00  0.00     0.210 C 
ENDBRANCH  16  19
ENDBRANCH   6  13
ENDBRANCH   1   2
BRANCH   1  21
ATOM     21  N   UNL d   1      29.234 -16.013   0.122  0.00  0.00    -0.067 N 
ATOM     22  C   UNL d   1      28.853 -17.339  -0.530  0.00  0.00     0.236 C 
ATOM     23  C   UNL d   1      30.100 -18.149  -0.876  0.00  0.00     0.042 C 
ATOM     24  C   UNL d   1      31.036 -17.353  -1.781  0.00  0.00     0.081 C 
ATOM     25  C   UNL d   1      31.509 -16.134  -0.955  0.00  0.00     0.042 C 
ATOM     26  C   UNL d   1      30.348 -15.218  -0.562  0.00  0.00     0.236 C 
ATOM     27  H   UNL d   1      29.603 -16.260   1.046  0.00  0.00     0.280 HD
BRANCH  24  28
ATOM     28  C   UNL d   1      30.369 -16.869  -3.069  0.00  0.00     0.226 C 
ATOM     29  O   UNL d   1      29.643 -17.676  -3.674  0.00  0.00    -0.273 OA
ATOM     30  N   UNL d   1      30.719 -15.635  -3.565  0.00  0.00    -0.324 N 
ATOM     31  H   UNL d   1      31.390 -15.042  -3.090  0.00  0.00     0.169 HD
BRANCH  30  32
ATOM     32  C   UNL d   1      30.090 -15.043  -4.699  0.00  0.00     0.068 A 
ATOM     33  C   UNL d   1      30.860 -14.275  -5.586  0.00  0.00     0.032 A 
ATOM     34  C   UNL d   1      30.241 -13.601  -6.648  0.00  0.00     0.002 A 
ATOM     35  C   UNL d   1      28.868 -13.757  -6.875  0.00  0.00     0.003 A 
ATOM     36  C   UNL d   1      28.114 -14.587  -6.053  0.00  0.00     0.039 A 
ATOM     37  C   UNL d   1      28.712 -15.181  -4.949  0.00  0.00     0.092 A 
BRANCH  37  38
ATOM     38  O   UNL d   1      27.886 -15.804  -4.057  0.00  0.00    -0.358 OA
ATOM     39  H   UNL d   1      28.368 -16.546  -3.655  0.00  0.00     0.217 HD
ENDBRANCH  37  38
ENDBRANCH  30  32
ENDBRANCH  24  28
ENDBRANCH   1  21
TORSDOF 8
ENDMDL
