MODEL 1
REMARK VINA RESULT:    -6.689      0.000      0.000
REMARK INTER + INTRA:          -8.443
REMARK INTER:                  -7.584
REMARK INTRA:                  -0.859
REMARK CONF_INDEPENDENT:        0.895
REMARK UNBOUND:                -0.859
REMARK  3 active torsions:
REMARK  status: ('A' for Active; 'I' for Inactive)
REMARK    1  A    between atoms: C_2  and  N_12 
REMARK    2  A    between atoms: C_2  and  C_3 
REMARK    3  A    between atoms: N_12  and  O_13 
REMARK       I    between atoms: N_12  and  C_14 
REMARK       I    between atoms: C_14  and  N_15 
ROOT
ATOM      1  C   UNL d   1      20.498 -19.200   1.978  0.00  0.00     0.041 C 
ATOM      2  C   UNL d   1      21.031 -19.701   0.625  0.00  0.00     0.155 C 
ENDROOT
BRANCH   2   3
ATOM      3  N   UNL d   1      19.908 -19.927  -0.336  0.00  0.00    -0.201 N 
ATOM      4  C   UNL d   1      18.722 -20.588  -0.102  0.00  0.00     0.340 C 
ATOM      5  N   UNL d   1      18.580 -21.199   1.102  0.00  0.00    -0.350 N 
ATOM      6  O   UNL d   1      17.780 -20.657  -0.894  0.00  0.00    -0.245 OA
ATOM      7  H   UNL d   1      19.289 -21.267   1.810  0.00  0.00     0.160 HD
ATOM      8  H   UNL d   1      17.680 -21.619   1.289  0.00  0.00     0.160 HD
BRANCH   3   9
ATOM      9  O   UNL d   1      19.939 -19.326  -1.621  0.00  0.00    -0.283 OA
ATOM     10  H   UNL d   1      19.024 -19.151  -1.881  0.00  0.00     0.245 HD
ENDBRANCH   3   9
ENDBRANCH   2   3
BRANCH   2  11
ATOM     11  C   UNL d   1      22.127 -18.799   0.073  0.00  0.00     0.009 A 
ATOM     12  C   UNL d   1      23.494 -18.950   0.207  0.00  0.00     0.029 A 
ATOM     13  C   UNL d   1      24.252 -17.959  -0.493  0.00  0.00    -0.018 A 
ATOM     14  C   UNL d   1      25.647 -17.818  -0.637  0.00  0.00     0.013 A 
ATOM     15  C   UNL d   1      23.424 -17.018  -1.101  0.00  0.00     0.015 A 
ATOM     16  C   UNL d   1      26.172 -16.739  -1.351  0.00  0.00     0.001 A 
ATOM     17  C   UNL d   1      25.328 -15.804  -1.937  0.00  0.00     0.001 A 
ATOM     18  C   UNL d   1      23.943 -15.930  -1.827  0.00  0.00     0.019 A 
ATOM     19  S   UNL d   1      21.777 -17.384  -0.837  0.00  0.00    -0.092 SA
ENDBRANCH   2  11
TORSDOF 3
ENDMDL
MODEL 2
REMARK VINA RESULT:    -6.197      5.410      7.811
REMARK INTER + INTRA:          -8.062
REMARK INTER:                  -7.092
REMARK INTRA:                  -0.970
REMARK CONF_INDEPENDENT:        0.895
REMARK UNBOUND:                -0.970
REMARK  3 active torsions:
REMARK  status: ('A' for Active; 'I' for Inactive)
REMARK    1  A    between atoms: C_2  and  N_12 
REMARK    2  A    between atoms: C_2  and  C_3 
REMARK    3  A    between atoms: N_12  and  O_13 
REMARK       I    between atoms: N_12  and  C_14 
REMARK       I    between atoms: C_14  and  N_15 
ROOT
ATOM      1  C   UNL d   1      27.840 -15.115  -4.118  0.00  0.00     0.041 C 
ATOM      2  C   UNL d   1      26.749 -14.376  -3.325  0.00  0.00     0.155 C 
ENDROOT
BRANCH   2   3
ATOM      3  N   UNL d   1      25.895 -13.553  -4.237  0.00  0.00    -0.201 N 
ATOM      4  C   UNL d   1      26.228 -12.370  -4.858  0.00  0.00     0.340 C 
ATOM      5  N   UNL d   1      27.427 -11.818  -4.541  0.00  0.00    -0.350 N 
ATOM      6  O   UNL d   1      25.529 -11.782  -5.687  0.00  0.00    -0.245 OA
ATOM      7  H   UNL d   1      28.062 -12.162  -3.842  0.00  0.00     0.160 HD
ATOM      8  H   UNL d   1      27.690 -10.989  -5.055  0.00  0.00     0.160 HD
BRANCH   3   9
ATOM      9  O   UNL d   1      24.626 -14.035  -4.651  0.00  0.00    -0.283 OA
ATOM     10  H   UNL d   1      24.197 -13.327  -5.150  0.00  0.00     0.245 HD
ENDBRANCH   3   9
ENDBRANCH   2   3
BRANCH   2  11
ATOM     11  C   UNL d   1      25.949 -15.320  -2.436  0.00  0.00     0.009 A 
ATOM     12  C   UNL d   1      24.596 -15.277  -2.159  0.00  0.00     0.029 A 
ATOM     13  C   UNL d   1      24.146 -16.357  -1.336  0.00  0.00    -0.018 A 
ATOM     14  C   UNL d   1      22.847 -16.681  -0.894  0.00  0.00     0.013 A 
ATOM     15  C   UNL d   1      25.203 -17.176  -0.943  0.00  0.00     0.015 A 
ATOM     16  C   UNL d   1      22.645 -17.782  -0.060  0.00  0.00     0.001 A 
ATOM     17  C   UNL d   1      23.716 -18.575   0.332  0.00  0.00     0.001 A 
ATOM     18  C   UNL d   1      25.009 -18.290  -0.106  0.00  0.00     0.019 A 
ATOM     19  S   UNL d   1      26.680 -16.636  -1.608  0.00  0.00    -0.092 SA
ENDBRANCH   2  11
TORSDOF 3
ENDMDL
MODEL 3
REMARK VINA RESULT:    -6.111     13.487     14.907
REMARK INTER + INTRA:          -7.920
REMARK INTER:                  -7.006
REMARK INTRA:                  -0.914
REMARK CONF_INDEPENDENT:        0.895
REMARK UNBOUND:                -0.914
REMARK  3 active torsions:
REMARK  status: ('A' for Active; 'I' for Inactive)
REMARK    1  A    between atoms: C_2  and  N_12 
REMARK    2  A    between atoms: C_2  and  C_3 
REMARK    3  A    between atoms: N_12  and  O_13 
REMARK       I    between atoms: N_12  and  C_14 
REMARK       I    between atoms: C_14  and  N_15 
ROOT
ATOM      1  C   UNL d   1      33.807 -21.586   4.305  0.00  0.00     0.041 C 
ATOM      2  C   UNL d   1      33.228 -21.002   5.605  0.00  0.00     0.155 C 
ENDROOT
BRANCH   2   3
ATOM      3  N   UNL d   1      31.783 -21.359   5.750  0.00  0.00    -0.201 N 
ATOM      4  C   UNL d   1      30.809 -21.330   4.776  0.00  0.00     0.340 C 
ATOM      5  N   UNL d   1      31.158 -20.827   3.565  0.00  0.00    -0.350 N 
ATOM      6  O   UNL d   1      29.653 -21.736   4.916  0.00  0.00    -0.245 OA
ATOM      7  H   UNL d   1      32.044 -20.412   3.337  0.00  0.00     0.160 HD
ATOM      8  H   UNL d   1      30.456 -20.876   2.839  0.00  0.00     0.160 HD
BRANCH   3   9
ATOM      9  O   UNL d   1      31.304 -21.910   6.967  0.00  0.00    -0.283 OA
ATOM     10  H   UNL d   1      30.567 -22.497   6.749  0.00  0.00     0.245 HD
ENDBRANCH   3   9
ENDBRANCH   2   3
BRANCH   2  11
ATOM     11  C   UNL d   1      34.067 -21.373   6.822  0.00  0.00     0.009 A 
ATOM     12  C   UNL d   1      34.683 -20.518   7.716  0.00  0.00     0.029 A 
ATOM     13  C   UNL d   1      35.342 -21.192   8.791  0.00  0.00    -0.018 A 
ATOM     14  C   UNL d   1      36.021 -20.669   9.911  0.00  0.00     0.013 A 
ATOM     15  C   UNL d   1      35.267 -22.576   8.650  0.00  0.00     0.015 A 
ATOM     16  C   UNL d   1      36.622 -21.529  10.831  0.00  0.00     0.001 A 
ATOM     17  C   UNL d   1      36.548 -22.906  10.661  0.00  0.00     0.001 A 
ATOM     18  C   UNL d   1      35.866 -23.451   9.574  0.00  0.00     0.019 A 
ATOM     19  S   UNL d   1      34.379 -23.005   7.256  0.00  0.00    -0.092 SA
ENDBRANCH   2  11
TORSDOF 3
ENDMDL
MODEL 4
REMARK VINA RESULT:    -5.762      5.438      7.759
REMARK INTER + INTRA:          -7.567
REMARK INTER:                  -6.657
REMARK INTRA:                  -0.910
REMARK CONF_INDEPENDENT:        0.895
REMARK UNBOUND:                -0.910
REMARK  3 active torsions:
REMARK  status: ('A' for Active; 'I' for Inactive)
REMARK    1  A    between atoms: C_2  and  N_12 
REMARK    2  A    between atoms: C_2  and  C_3 
REMARK    3  A    between atoms: N_12  and  O_13 
REMARK       I    between atoms: N_12  and  C_14 
REMARK       I    between atoms: C_14  and  N_15 
ROOT
ATOM      1  C   UNL d   1      28.695 -15.345  -2.605  0.00  0.00     0.041 C 
ATOM      2  C   UNL d   1      27.300 -14.996  -3.150  0.00  0.00     0.155 C 
ENDROOT
BRANCH   2   3
ATOM      3  N   UNL d   1      27.244 -15.189  -4.632  0.00  0.00    -0.201 N 
ATOM      4  C   UNL d   1      28.182 -14.803  -5.564  0.00  0.00     0.340 C 
ATOM      5  N   UNL d   1      29.236 -14.073  -5.119  0.00  0.00    -0.350 N 
ATOM      6  O   UNL d   1      28.144 -15.079  -6.765  0.00  0.00    -0.245 OA
ATOM      7  H   UNL d   1      29.357 -13.733  -4.181  0.00  0.00     0.160 HD
ATOM      8  H   UNL d   1      29.952 -13.856  -5.798  0.00  0.00     0.160 HD
BRANCH   3   9
ATOM      9  O   UNL d   1      26.196 -15.950  -5.212  0.00  0.00    -0.283 OA
ATOM     10  H   UNL d   1      26.129 -15.688  -6.141  0.00  0.00     0.245 HD
ENDBRANCH   3   9
ENDBRANCH   2   3
BRANCH   2  11
ATOM     11  C   UNL d   1      26.194 -15.733  -2.403  0.00  0.00     0.009 A 
ATOM     12  C   UNL d   1      26.304 -16.893  -1.661  0.00  0.00     0.029 A 
ATOM     13  C   UNL d   1      25.082 -17.286  -1.029  0.00  0.00    -0.018 A 
ATOM     14  C   UNL d   1      24.815 -18.364  -0.160  0.00  0.00     0.013 A 
ATOM     15  C   UNL d   1      24.033 -16.434  -1.368  0.00  0.00     0.015 A 
ATOM     16  C   UNL d   1      23.520 -18.575   0.317  0.00  0.00     0.001 A 
ATOM     17  C   UNL d   1      22.487 -17.721  -0.046  0.00  0.00     0.001 A 
ATOM     18  C   UNL d   1      22.727 -16.635  -0.889  0.00  0.00     0.019 A 
ATOM     19  S   UNL d   1      24.568 -15.180  -2.398  0.00  0.00    -0.092 SA
ENDBRANCH   2  11
TORSDOF 3
ENDMDL
MODEL 5
REMARK VINA RESULT:    -5.752      5.923      7.621
REMARK INTER + INTRA:          -7.696
REMARK INTER:                  -6.647
REMARK INTRA:                  -1.050
REMARK CONF_INDEPENDENT:        0.895
REMARK UNBOUND:                -1.050
REMARK  3 active torsions:
REMARK  status: ('A' for Active; 'I' for Inactive)
REMARK    1  A    between atoms: C_2  and  N_12 
REMARK    2  A    between atoms: C_2  and  C_3 
REMARK    3  A    between atoms: N_12  and  O_13 
REMARK       I    between atoms: N_12  and  C_14 
REMARK       I    between atoms: C_14  and  N_15 
ROOT
ATOM      1  C   UNL d   1      28.770 -15.286   0.622  0.00  0.00     0.041 C 
ATOM      2  C   UNL d   1      28.101 -15.477  -0.749  0.00  0.00     0.155 C 
ENDROOT
BRANCH   2   3
ATOM      3  N   UNL d   1      29.037 -16.138  -1.709  0.00  0.00    -0.201 N 
ATOM      4  C   UNL d   1      29.781 -17.280  -1.506  0.00  0.00     0.340 C 
ATOM      5  N   UNL d   1      29.753 -17.825  -0.263  0.00  0.00    -0.350 N 
ATOM      6  O   UNL d   1      30.458 -17.849  -2.365  0.00  0.00    -0.245 OA
ATOM      7  H   UNL d   1      29.291 -17.432   0.538  0.00  0.00     0.160 HD
ATOM      8  H   UNL d   1      30.245 -18.700  -0.145  0.00  0.00     0.160 HD
BRANCH   3   9
ATOM      9  O   UNL d   1      29.140 -15.665  -3.043  0.00  0.00    -0.283 OA
ATOM     10  H   UNL d   1      29.920 -16.079  -3.438  0.00  0.00     0.245 HD
ENDBRANCH   3   9
ENDBRANCH   2   3
BRANCH   2  11
ATOM     11  C   UNL d   1      26.755 -16.183  -0.634  0.00  0.00     0.009 A 
ATOM     12  C   UNL d   1      25.499 -15.643  -0.831  0.00  0.00     0.029 A 
ATOM     13  C   UNL d   1      24.440 -16.597  -0.710  0.00  0.00    -0.018 A 
ATOM     14  C   UNL d   1      23.051 -16.441  -0.895  0.00  0.00     0.013 A 
ATOM     15  C   UNL d   1      24.922 -17.854  -0.349  0.00  0.00     0.015 A 
ATOM     16  C   UNL d   1      22.191 -17.521  -0.690  0.00  0.00     0.001 A 
ATOM     17  C   UNL d   1      22.693 -18.761  -0.316  0.00  0.00     0.001 A 
ATOM     18  C   UNL d   1      24.065 -18.949  -0.145  0.00  0.00     0.019 A 
ATOM     19  S   UNL d   1      26.625 -17.842  -0.209  0.00  0.00    -0.092 SA
ENDBRANCH   2  11
TORSDOF 3
ENDMDL
MODEL 6
REMARK VINA RESULT:    -5.734      5.694      7.347
REMARK INTER + INTRA:          -7.816
REMARK INTER:                  -6.629
REMARK INTRA:                  -1.187
REMARK CONF_INDEPENDENT:        0.895
REMARK UNBOUND:                -1.187
REMARK  3 active torsions:
REMARK  status: ('A' for Active; 'I' for Inactive)
REMARK    1  A    between atoms: C_2  and  N_12 
REMARK    2  A    between atoms: C_2  and  C_3 
REMARK    3  A    between atoms: N_12  and  O_13 
REMARK       I    between atoms: N_12  and  C_14 
REMARK       I    between atoms: C_14  and  N_15 
ROOT
ATOM      1  C   UNL d   1      28.790 -15.582  -1.624  0.00  0.00     0.041 C 
ATOM      2  C   UNL d   1      27.541 -15.243  -2.455  0.00  0.00     0.155 C 
ENDROOT
BRANCH   2   3
ATOM      3  N   UNL d   1      27.780 -15.514  -3.906  0.00  0.00    -0.201 N 
ATOM      4  C   UNL d   1      27.058 -15.037  -4.979  0.00  0.00     0.340 C 
ATOM      5  N   UNL d   1      25.938 -14.321  -4.704  0.00  0.00    -0.350 N 
ATOM      6  O   UNL d   1      27.357 -15.200  -6.164  0.00  0.00    -0.245 OA
ATOM      7  H   UNL d   1      25.554 -14.166  -3.789  0.00  0.00     0.160 HD
ATOM      8  H   UNL d   1      25.457 -13.918  -5.496  0.00  0.00     0.160 HD
BRANCH   3   9
ATOM      9  O   UNL d   1      28.929 -16.240  -4.316  0.00  0.00    -0.283 OA
ATOM     10  H   UNL d   1      28.994 -16.159  -5.278  0.00  0.00     0.245 HD
ENDBRANCH   3   9
ENDBRANCH   2   3
BRANCH   2  11
ATOM     11  C   UNL d   1      26.291 -15.923  -1.911  0.00  0.00     0.009 A 
ATOM     12  C   UNL d   1      26.204 -17.144  -1.270  0.00  0.00     0.029 A 
ATOM     13  C   UNL d   1      24.884 -17.463  -0.822  0.00  0.00    -0.018 A 
ATOM     14  C   UNL d   1      24.416 -18.575  -0.092  0.00  0.00     0.013 A 
ATOM     15  C   UNL d   1      23.965 -16.486  -1.201  0.00  0.00     0.015 A 
ATOM     16  C   UNL d   1      23.059 -18.693   0.212  0.00  0.00     0.001 A 
ATOM     17  C   UNL d   1      22.159 -17.714  -0.189  0.00  0.00     0.001 A 
ATOM     18  C   UNL d   1      22.597 -16.594  -0.895  0.00  0.00     0.019 A 
ATOM     19  S   UNL d   1      24.732 -15.213  -2.042  0.00  0.00    -0.092 SA
ENDBRANCH   2  11
TORSDOF 3
ENDMDL
MODEL 7
REMARK VINA RESULT:    -5.716      5.500      7.634
REMARK INTER + INTRA:          -7.567
REMARK INTER:                  -6.611
REMARK INTRA:                  -0.956
REMARK CONF_INDEPENDENT:        0.895
REMARK UNBOUND:                -0.956
REMARK  3 active torsions:
REMARK  status: ('A' for Active; 'I' for Inactive)
REMARK    1  A    between atoms: C_2  and  N_12 
REMARK    2  A    between atoms: C_2  and  C_3 
REMARK    3  A    between atoms: N_12  and  O_13 
REMARK       I    between atoms: N_12  and  C_14 
REMARK       I    between atoms: C_14  and  N_15 
ROOT
ATOM      1  C   UNL d   1      28.667 -16.542  -1.197  0.00  0.00     0.041 C 
ATOM      2  C   UNL d   1      27.802 -16.233   0.036  0.00  0.00     0.155 C 
ENDROOT
BRANCH   2   3
ATOM      3  N   UNL d   1      27.827 -14.771   0.349  0.00  0.00    -0.201 N 
ATOM      4  C   UNL d   1      28.760 -14.089   1.099  0.00  0.00     0.340 C 
ATOM      5  N   UNL d   1      29.718 -14.825   1.717  0.00  0.00    -0.350 N 
ATOM      6  O   UNL d   1      28.798 -12.864   1.241  0.00  0.00    -0.245 OA
ATOM      7  H   UNL d   1      29.766 -15.828   1.730  0.00  0.00     0.160 HD
ATOM      8  H   UNL d   1      30.436 -14.308   2.205  0.00  0.00     0.160 HD
BRANCH   3   9
ATOM      9  O   UNL d   1      26.882 -13.898  -0.251  0.00  0.00    -0.283 OA
ATOM     10  H   UNL d   1      27.260 -13.008  -0.233  0.00  0.00     0.245 HD
ENDBRANCH   3   9
ENDBRANCH   2   3
BRANCH   2  11
ATOM     11  C   UNL d   1      26.393 -16.799  -0.098  0.00  0.00     0.009 A 
ATOM     12  C   UNL d   1      25.235 -16.116  -0.413  0.00  0.00     0.029 A 
ATOM     13  C   UNL d   1      24.085 -16.960  -0.525  0.00  0.00    -0.018 A 
ATOM     14  C   UNL d   1      22.758 -16.643  -0.882  0.00  0.00     0.013 A 
ATOM     15  C   UNL d   1      24.390 -18.284  -0.219  0.00  0.00     0.015 A 
ATOM     16  C   UNL d   1      21.780 -17.639  -0.895  0.00  0.00     0.001 A 
ATOM     17  C   UNL d   1      22.105 -18.950  -0.571  0.00  0.00     0.001 A 
ATOM     18  C   UNL d   1      23.413 -19.295  -0.234  0.00  0.00     0.019 A 
ATOM     19  S   UNL d   1      26.048 -18.463   0.152  0.00  0.00    -0.092 SA
ENDBRANCH   2  11
TORSDOF 3
ENDMDL
MODEL 8
REMARK VINA RESULT:    -5.564      6.049      7.895
REMARK INTER + INTRA:          -7.558
REMARK INTER:                  -6.459
REMARK INTRA:                  -1.100
REMARK CONF_INDEPENDENT:        0.895
REMARK UNBOUND:                -1.100
REMARK  3 active torsions:
REMARK  status: ('A' for Active; 'I' for Inactive)
REMARK    1  A    between atoms: C_2  and  N_12 
REMARK    2  A    between atoms: C_2  and  C_3 
REMARK    3  A    between atoms: N_12  and  O_13 
REMARK       I    between atoms: N_12  and  C_14 
REMARK       I    between atoms: C_14  and  N_15 
ROOT
ATOM      1  C   UNL d   1      27.278 -14.601  -5.232  0.00  0.00     0.041 C 
ATOM      2  C   UNL d   1      26.876 -13.942  -3.902  0.00  0.00     0.155 C 
ENDROOT
BRANCH   2   3
ATOM      3  N   UNL d   1      26.141 -12.663  -4.144  0.00  0.00    -0.201 N 
ATOM      4  C   UNL d   1      26.076 -11.563  -3.318  0.00  0.00     0.340 C 
ATOM      5  N   UNL d   1      26.655 -11.669  -2.095  0.00  0.00    -0.350 N 
ATOM      6  O   UNL d   1      25.545 -10.488  -3.608  0.00  0.00    -0.245 OA
ATOM      7  H   UNL d   1      27.068 -12.502  -1.715  0.00  0.00     0.160 HD
ATOM      8  H   UNL d   1      26.663 -10.834  -1.527  0.00  0.00     0.160 HD
BRANCH   3   9
ATOM      9  O   UNL d   1      25.508 -12.431  -5.393  0.00  0.00    -0.283 OA
ATOM     10  H   UNL d   1      24.863 -11.722  -5.263  0.00  0.00     0.245 HD
ENDBRANCH   3   9
ENDBRANCH   2   3
BRANCH   2  11
ATOM     11  C   UNL d   1      26.129 -14.906  -2.989  0.00  0.00     0.009 A 
ATOM     12  C   UNL d   1      26.655 -15.942  -2.242  0.00  0.00     0.029 A 
ATOM     13  C   UNL d   1      25.685 -16.617  -1.435  0.00  0.00    -0.018 A 
ATOM     14  C   UNL d   1      25.846 -17.670  -0.511  0.00  0.00     0.013 A 
ATOM     15  C   UNL d   1      24.404 -16.110  -1.644  0.00  0.00     0.015 A 
ATOM     16  C   UNL d   1      24.736 -18.199   0.149  0.00  0.00     0.001 A 
ATOM     17  C   UNL d   1      23.466 -17.688  -0.087  0.00  0.00     0.001 A 
ATOM     18  C   UNL d   1      23.280 -16.633  -0.981  0.00  0.00     0.019 A 
ATOM     19  S   UNL d   1      24.427 -14.825  -2.769  0.00  0.00    -0.092 SA
ENDBRANCH   2  11
TORSDOF 3
ENDMDL
MODEL 9
REMARK VINA RESULT:    -5.272      3.117      4.458
REMARK INTER + INTRA:          -7.381
REMARK INTER:                  -6.167
REMARK INTRA:                  -1.214
REMARK CONF_INDEPENDENT:        0.895
REMARK UNBOUND:                -1.214
REMARK  3 active torsions:
REMARK  status: ('A' for Active; 'I' for Inactive)
REMARK    1  A    between atoms: C_2  and  N_12 
REMARK    2  A    between atoms: C_2  and  C_3 
REMARK    3  A    between atoms: N_12  and  O_13 
REMARK       I    between atoms: N_12  and  C_14 
REMARK       I    between atoms: C_14  and  N_15 
ROOT
ATOM      1  C   UNL d   1      25.100 -18.199   0.575  0.00  0.00     0.041 C 
ATOM      2  C   UNL d   1      24.698 -18.009  -0.897  0.00  0.00     0.155 C 
ENDROOT
BRANCH   2   3
ATOM      3  N   UNL d   1      23.228 -18.216  -1.077  0.00  0.00    -0.201 N 
ATOM      4  C   UNL d   1      22.213 -17.336  -0.774  0.00  0.00     0.340 C 
ATOM      5  N   UNL d   1      22.557 -16.184  -0.144  0.00  0.00    -0.350 N 
ATOM      6  O   UNL d   1      21.021 -17.508  -1.040  0.00  0.00    -0.245 OA
ATOM      7  H   UNL d   1      23.479 -15.948   0.179  0.00  0.00     0.160 HD
ATOM      8  H   UNL d   1      21.815 -15.516   0.010  0.00  0.00     0.160 HD
BRANCH   3   9
ATOM      9  O   UNL d   1      22.749 -19.378  -1.737  0.00  0.00    -0.283 OA
ATOM     10  H   UNL d   1      21.895 -19.154  -2.132  0.00  0.00     0.245 HD
ENDBRANCH   3   9
ENDBRANCH   2   3
BRANCH   2  11
ATOM     11  C   UNL d   1      25.195 -16.682  -1.458  0.00  0.00     0.009 A 
ATOM     12  C   UNL d   1      25.154 -16.251  -2.770  0.00  0.00     0.029 A 
ATOM     13  C   UNL d   1      25.645 -14.920  -2.950  0.00  0.00    -0.018 A 
ATOM     14  C   UNL d   1      25.710 -14.125  -4.114  0.00  0.00     0.013 A 
ATOM     15  C   UNL d   1      26.121 -14.383  -1.756  0.00  0.00     0.015 A 
ATOM     16  C   UNL d   1      26.265 -12.846  -4.059  0.00  0.00     0.001 A 
ATOM     17  C   UNL d   1      26.747 -12.338  -2.860  0.00  0.00     0.001 A 
ATOM     18  C   UNL d   1      26.678 -13.093  -1.689  0.00  0.00     0.019 A 
ATOM     19  S   UNL d   1      25.923 -15.484  -0.465  0.00  0.00    -0.092 SA
ENDBRANCH   2  11
TORSDOF 3
ENDMDL
