MODEL 1
REMARK VINA RESULT:    -8.257      0.000      0.000
REMARK INTER + INTRA:         -12.089
REMARK INTER:                 -10.046
REMARK INTRA:                  -2.043
REMARK CONF_INDEPENDENT:        1.790
REMARK UNBOUND:                -2.043
REMARK  6 active torsions:
REMARK  status: ('A' for Active; 'I' for Inactive)
REMARK    1  A    between atoms: C_5  and  N_6 
REMARK       I    between atoms: N_6  and  C_7 
REMARK    2  A    between atoms: C_7  and  C_9 
REMARK       I    between atoms: C_9  and  N_11 
REMARK    3  A    between atoms: N_11  and  C_12 
REMARK    4  A    between atoms: C_12  and  C_13 
REMARK    5  A    between atoms: C_13  and  C_14 
REMARK    6  A    between atoms: C_24  and  C_25 
REMARK       I    between atoms: C_25  and  N_26 
ROOT
ATOM      1  N   UNL d   1      22.813 -17.786  -0.169  0.00  0.00    -0.319 N 
ATOM      2  C   UNL d   1      23.706 -17.755  -1.244  0.00  0.00     0.313 C 
ATOM      3  O   UNL d   1      23.638 -18.362  -2.311  0.00  0.00    -0.262 OA
ATOM      4  H   UNL d   1      23.046 -17.206   0.635  0.00  0.00     0.169 HD
ENDROOT
BRANCH   2   5
ATOM      5  C   UNL d   1      24.935 -16.850  -1.104  0.00  0.00     0.309 C 
ATOM      6  O   UNL d   1      25.241 -16.364  -0.022  0.00  0.00    -0.262 OA
ATOM      7  N   UNL d   1      25.603 -16.679  -2.308  0.00  0.00    -0.352 N 
ATOM      8  H   UNL d   1      25.250 -17.221  -3.094  0.00  0.00     0.162 HD
BRANCH   7   9
ATOM      9  C   UNL d   1      26.835 -15.948  -2.391  0.00  0.00     0.138 C 
BRANCH   9  10
ATOM     10  C   UNL d   1      26.887 -14.661  -3.282  0.00  0.00     0.009 C 
ATOM     11  C   UNL d   1      25.577 -14.155  -3.932  0.00  0.00     0.016 C 
ATOM     12  C   UNL d   1      25.872 -12.687  -4.281  0.00  0.00     0.001 C 
ATOM     13  C   UNL d   1      26.811 -12.193  -3.186  0.00  0.00     0.001 C 
ATOM     14  C   UNL d   1      27.206 -13.435  -2.388  0.00  0.00     0.016 C 
BRANCH  10  15
ATOM     15  C   UNL d   1      27.985 -14.946  -4.325  0.00  0.00    -0.007 A 
ATOM     16  C   UNL d   1      29.072 -15.791  -4.164  0.00  0.00     0.016 A 
ATOM     17  C   UNL d   1      29.784 -16.014  -5.375  0.00  0.00     0.008 A 
ATOM     18  C   UNL d   1      29.246 -15.315  -6.428  0.00  0.00     0.050 A 
ATOM     19  S   UNL d   1      27.860 -14.448  -5.971  0.00  0.00    -0.106 SA
ENDBRANCH  10  15
ENDBRANCH   9  10
ENDBRANCH   7   9
ENDBRANCH   2   5
BRANCH   1  20
ATOM     20  C   UNL d   1      21.611 -18.549  -0.138  0.00  0.00     0.036 A 
ATOM     21  C   UNL d   1      20.953 -18.931  -1.308  0.00  0.00     0.030 A 
ATOM     22  C   UNL d   1      19.775 -19.704  -1.236  0.00  0.00     0.010 A 
ATOM     23  C   UNL d   1      19.234 -20.111   0.003  0.00  0.00    -0.046 A 
ATOM     24  C   UNL d   1      17.988 -20.952   0.038  0.00  0.00     0.049 C 
ATOM     25  C   UNL d   1      19.885 -19.723   1.183  0.00  0.00     0.039 A 
ATOM     26  C   UNL d   1      21.048 -18.951   1.075  0.00  0.00     0.047 A 
BRANCH  25  27
ATOM     27  C   UNL d   1      19.386 -20.109   2.552  0.00  0.00     0.249 C 
ATOM     28  N   UNL d   1      20.293 -20.462   3.517  0.00  0.00    -0.366 N 
ATOM     29  H   UNL d   1      21.296 -20.500   3.419  0.00  0.00     0.159 HD
ATOM     30  H   UNL d   1      19.913 -20.716   4.419  0.00  0.00     0.159 HD
ATOM     31  O   UNL d   1      18.197 -20.125   2.852  0.00  0.00    -0.268 OA
ENDBRANCH  25  27
ENDBRANCH   1  20
TORSDOF 6
ENDMDL
MODEL 2
REMARK VINA RESULT:    -8.009      4.133     10.480
REMARK INTER + INTRA:         -12.147
REMARK INTER:                  -9.799
REMARK INTRA:                  -2.348
REMARK CONF_INDEPENDENT:        1.790
REMARK UNBOUND:                -2.348
REMARK  6 active torsions:
REMARK  status: ('A' for Active; 'I' for Inactive)
REMARK    1  A    between atoms: C_5  and  N_6 
REMARK       I    between atoms: N_6  and  C_7 
REMARK    2  A    between atoms: C_7  and  C_9 
REMARK       I    between atoms: C_9  and  N_11 
REMARK    3  A    between atoms: N_11  and  C_12 
REMARK    4  A    between atoms: C_12  and  C_13 
REMARK    5  A    between atoms: C_13  and  C_14 
REMARK    6  A    between atoms: C_24  and  C_25 
REMARK       I    between atoms: C_25  and  N_26 
ROOT
ATOM      1  N   UNL d   1      27.722 -14.897  -5.736  0.00  0.00    -0.319 N 
ATOM      2  C   UNL d   1      27.421 -15.208  -4.406  0.00  0.00     0.313 C 
ATOM      3  O   UNL d   1      28.184 -15.583  -3.518  0.00  0.00    -0.262 OA
ATOM      4  H   UNL d   1      26.945 -14.601  -6.323  0.00  0.00     0.169 HD
ENDROOT
BRANCH   2   5
ATOM      5  C   UNL d   1      25.958 -15.066  -3.971  0.00  0.00     0.309 C 
ATOM      6  O   UNL d   1      25.149 -14.462  -4.666  0.00  0.00    -0.262 OA
ATOM      7  N   UNL d   1      25.708 -15.685  -2.756  0.00  0.00    -0.352 N 
ATOM      8  H   UNL d   1      26.484 -16.207  -2.354  0.00  0.00     0.162 HD
BRANCH   7   9
ATOM      9  C   UNL d   1      24.385 -15.760  -2.204  0.00  0.00     0.138 C 
BRANCH   9  10
ATOM     10  C   UNL d   1      24.066 -16.888  -1.167  0.00  0.00     0.009 C 
ATOM     11  C   UNL d   1      22.822 -16.731  -0.259  0.00  0.00     0.016 C 
ATOM     12  C   UNL d   1      22.534 -18.159   0.235  0.00  0.00     0.001 C 
ATOM     13  C   UNL d   1      22.941 -19.074  -0.915  0.00  0.00     0.001 C 
ATOM     14  C   UNL d   1      23.655 -18.176  -1.926  0.00  0.00     0.016 C 
BRANCH  10  15
ATOM     15  C   UNL d   1      25.365 -17.058  -0.355  0.00  0.00    -0.007 A 
ATOM     16  C   UNL d   1      26.031 -18.248  -0.109  0.00  0.00     0.016 A 
ATOM     17  C   UNL d   1      27.311 -18.055   0.482  0.00  0.00     0.008 A 
ATOM     18  C   UNL d   1      27.585 -16.727   0.701  0.00  0.00     0.050 A 
ATOM     19  S   UNL d   1      26.335 -15.722   0.143  0.00  0.00    -0.106 SA
ENDBRANCH  10  15
ENDBRANCH   9  10
ENDBRANCH   7   9
ENDBRANCH   2   5
BRANCH   1  20
ATOM     20  C   UNL d   1      29.028 -14.948  -6.302  0.00  0.00     0.036 A 
ATOM     21  C   UNL d   1      29.860 -16.056  -6.131  0.00  0.00     0.030 A 
ATOM     22  C   UNL d   1      31.140 -16.076  -6.725  0.00  0.00     0.010 A 
ATOM     23  C   UNL d   1      31.612 -14.994  -7.499  0.00  0.00    -0.046 A 
ATOM     24  C   UNL d   1      32.974 -15.061  -8.133  0.00  0.00     0.049 C 
ATOM     25  C   UNL d   1      30.785 -13.873  -7.666  0.00  0.00     0.039 A 
ATOM     26  C   UNL d   1      29.524 -13.884  -7.059  0.00  0.00     0.047 A 
BRANCH  25  27
ATOM     27  C   UNL d   1      31.199 -12.671  -8.475  0.00  0.00     0.249 C 
ATOM     28  N   UNL d   1      30.748 -12.546  -9.764  0.00  0.00    -0.366 N 
ATOM     29  H   UNL d   1      30.150 -13.190 -10.259  0.00  0.00     0.159 HD
ATOM     30  H   UNL d   1      31.053 -11.725 -10.269  0.00  0.00     0.159 HD
ATOM     31  O   UNL d   1      31.927 -11.786  -8.037  0.00  0.00    -0.268 OA
ENDBRANCH  25  27
ENDBRANCH   1  20
TORSDOF 6
ENDMDL
MODEL 3
REMARK VINA RESULT:    -7.931      6.390      8.865
REMARK INTER + INTRA:         -11.875
REMARK INTER:                  -9.721
REMARK INTRA:                  -2.154
REMARK CONF_INDEPENDENT:        1.790
REMARK UNBOUND:                -2.154
REMARK  6 active torsions:
REMARK  status: ('A' for Active; 'I' for Inactive)
REMARK    1  A    between atoms: C_5  and  N_6 
REMARK       I    between atoms: N_6  and  C_7 
REMARK    2  A    between atoms: C_7  and  C_9 
REMARK       I    between atoms: C_9  and  N_11 
REMARK    3  A    between atoms: N_11  and  C_12 
REMARK    4  A    between atoms: C_12  and  C_13 
REMARK    5  A    between atoms: C_13  and  C_14 
REMARK    6  A    between atoms: C_24  and  C_25 
REMARK       I    between atoms: C_25  and  N_26 
ROOT
ATOM      1  N   UNL d   1      28.232 -14.643   3.533  0.00  0.00    -0.319 N 
ATOM      2  C   UNL d   1      27.784 -14.188   2.289  0.00  0.00     0.313 C 
ATOM      3  O   UNL d   1      27.407 -13.059   1.980  0.00  0.00    -0.262 OA
ATOM      4  H   UNL d   1      28.504 -15.623   3.589  0.00  0.00     0.169 HD
ENDROOT
BRANCH   2   5
ATOM      5  C   UNL d   1      27.755 -15.205   1.143  0.00  0.00     0.309 C 
ATOM      6  O   UNL d   1      27.654 -16.405   1.367  0.00  0.00    -0.262 OA
ATOM      7  N   UNL d   1      27.853 -14.599  -0.101  0.00  0.00    -0.352 N 
ATOM      8  H   UNL d   1      27.853 -13.581  -0.102  0.00  0.00     0.162 HD
BRANCH   7   9
ATOM      9  C   UNL d   1      27.750 -15.352  -1.318  0.00  0.00     0.138 C 
BRANCH   9  10
ATOM     10  C   UNL d   1      26.420 -15.275  -2.140  0.00  0.00     0.009 C 
ATOM     11  C   UNL d   1      25.703 -13.909  -2.266  0.00  0.00     0.016 C 
ATOM     12  C   UNL d   1      24.782 -14.077  -3.485  0.00  0.00     0.001 C 
ATOM     13  C   UNL d   1      25.531 -15.011  -4.431  0.00  0.00     0.001 C 
ATOM     14  C   UNL d   1      26.732 -15.527  -3.638  0.00  0.00     0.016 C 
BRANCH  10  15
ATOM     15  C   UNL d   1      25.512 -16.357  -1.526  0.00  0.00    -0.007 A 
ATOM     16  C   UNL d   1      25.928 -17.510  -0.878  0.00  0.00     0.016 A 
ATOM     17  C   UNL d   1      24.864 -18.197  -0.232  0.00  0.00     0.008 A 
ATOM     18  C   UNL d   1      23.655 -17.574  -0.420  0.00  0.00     0.050 A 
ATOM     19  S   UNL d   1      23.813 -16.141  -1.317  0.00  0.00    -0.106 SA
ENDBRANCH  10  15
ENDBRANCH   9  10
ENDBRANCH   7   9
ENDBRANCH   2   5
BRANCH   1  20
ATOM     20  C   UNL d   1      28.347 -13.831   4.697  0.00  0.00     0.036 A 
ATOM     21  C   UNL d   1      27.752 -12.572   4.777  0.00  0.00     0.030 A 
ATOM     22  C   UNL d   1      27.873 -11.807   5.956  0.00  0.00     0.010 A 
ATOM     23  C   UNL d   1      28.588 -12.284   7.076  0.00  0.00    -0.046 A 
ATOM     24  C   UNL d   1      28.677 -11.448   8.322  0.00  0.00     0.049 C 
ATOM     25  C   UNL d   1      29.197 -13.545   7.000  0.00  0.00     0.039 A 
ATOM     26  C   UNL d   1      29.062 -14.275   5.812  0.00  0.00     0.047 A 
BRANCH  25  27
ATOM     27  C   UNL d   1      29.980 -14.141   8.141  0.00  0.00     0.249 C 
ATOM     28  N   UNL d   1      31.350 -14.102   8.103  0.00  0.00    -0.366 N 
ATOM     29  H   UNL d   1      31.922 -13.710   7.372  0.00  0.00     0.159 HD
ATOM     30  H   UNL d   1      31.833 -14.516   8.889  0.00  0.00     0.159 HD
ATOM     31  O   UNL d   1      29.451 -14.666   9.115  0.00  0.00    -0.268 OA
ENDBRANCH  25  27
ENDBRANCH   1  20
TORSDOF 6
ENDMDL
MODEL 4
REMARK VINA RESULT:    -7.842      5.006     10.293
REMARK INTER + INTRA:         -11.658
REMARK INTER:                  -9.632
REMARK INTRA:                  -2.026
REMARK CONF_INDEPENDENT:        1.790
REMARK UNBOUND:                -2.026
REMARK  6 active torsions:
REMARK  status: ('A' for Active; 'I' for Inactive)
REMARK    1  A    between atoms: C_5  and  N_6 
REMARK       I    between atoms: N_6  and  C_7 
REMARK    2  A    between atoms: C_7  and  C_9 
REMARK       I    between atoms: C_9  and  N_11 
REMARK    3  A    between atoms: N_11  and  C_12 
REMARK    4  A    between atoms: C_12  and  C_13 
REMARK    5  A    between atoms: C_13  and  C_14 
REMARK    6  A    between atoms: C_24  and  C_25 
REMARK       I    between atoms: C_25  and  N_26 
ROOT
ATOM      1  N   UNL d   1      25.527 -11.093  -4.928  0.00  0.00    -0.319 N 
ATOM      2  C   UNL d   1      25.829 -11.880  -3.812  0.00  0.00     0.313 C 
ATOM      3  O   UNL d   1      26.284 -11.524  -2.727  0.00  0.00    -0.262 OA
ATOM      4  H   UNL d   1      25.154 -11.579  -5.741  0.00  0.00     0.169 HD
ENDROOT
BRANCH   2   5
ATOM      5  C   UNL d   1      25.561 -13.385  -3.927  0.00  0.00     0.309 C 
ATOM      6  O   UNL d   1      25.306 -13.900  -5.009  0.00  0.00    -0.262 OA
ATOM      7  N   UNL d   1      25.649 -14.030  -2.702  0.00  0.00    -0.352 N 
ATOM      8  H   UNL d   1      25.947 -13.456  -1.917  0.00  0.00     0.162 HD
BRANCH   7   9
ATOM      9  C   UNL d   1      25.529 -15.456  -2.589  0.00  0.00     0.138 C 
BRANCH   9  10
ATOM     10  C   UNL d   1      25.967 -16.143  -1.252  0.00  0.00     0.009 C 
ATOM     11  C   UNL d   1      27.208 -17.068  -1.264  0.00  0.00     0.016 C 
ATOM     12  C   UNL d   1      27.631 -17.150   0.212  0.00  0.00     0.001 C 
ATOM     13  C   UNL d   1      27.287 -15.789   0.807  0.00  0.00     0.001 C 
ATOM     14  C   UNL d   1      26.478 -15.061  -0.266  0.00  0.00     0.016 C 
BRANCH  10  15
ATOM     15  C   UNL d   1      24.703 -16.867  -0.747  0.00  0.00    -0.007 A 
ATOM     16  C   UNL d   1      23.394 -16.435  -0.894  0.00  0.00     0.016 A 
ATOM     17  C   UNL d   1      22.440 -17.421  -0.519  0.00  0.00     0.008 A 
ATOM     18  C   UNL d   1      23.036 -18.573  -0.068  0.00  0.00     0.050 A 
ATOM     19  S   UNL d   1      24.730 -18.486  -0.154  0.00  0.00    -0.106 SA
ENDBRANCH  10  15
ENDBRANCH   9  10
ENDBRANCH   7   9
ENDBRANCH   2   5
BRANCH   1  20
ATOM     20  C   UNL d   1      25.688  -9.680  -4.988  0.00  0.00     0.036 A 
ATOM     21  C   UNL d   1      26.929  -9.091  -5.237  0.00  0.00     0.030 A 
ATOM     22  C   UNL d   1      27.043  -7.687  -5.307  0.00  0.00     0.010 A 
ATOM     23  C   UNL d   1      25.923  -6.845  -5.132  0.00  0.00    -0.046 A 
ATOM     24  C   UNL d   1      26.081  -5.353  -5.236  0.00  0.00     0.049 C 
ATOM     25  C   UNL d   1      24.675  -7.430  -4.873  0.00  0.00     0.039 A 
ATOM     26  C   UNL d   1      24.599  -8.826  -4.804  0.00  0.00     0.047 A 
BRANCH  25  27
ATOM     27  C   UNL d   1      23.422  -6.616  -4.674  0.00  0.00     0.249 C 
ATOM     28  N   UNL d   1      22.212  -7.159  -5.021  0.00  0.00    -0.366 N 
ATOM     29  H   UNL d   1      22.050  -8.075  -5.412  0.00  0.00     0.159 HD
ATOM     30  H   UNL d   1      21.399  -6.577  -4.872  0.00  0.00     0.159 HD
ATOM     31  O   UNL d   1      23.426  -5.479  -4.213  0.00  0.00    -0.268 OA
ENDBRANCH  25  27
ENDBRANCH   1  20
TORSDOF 6
ENDMDL
MODEL 5
REMARK VINA RESULT:    -7.839      1.256      2.597
REMARK INTER + INTRA:         -11.719
REMARK INTER:                  -9.629
REMARK INTRA:                  -2.090
REMARK CONF_INDEPENDENT:        1.790
REMARK UNBOUND:                -2.090
REMARK  6 active torsions:
REMARK  status: ('A' for Active; 'I' for Inactive)
REMARK    1  A    between atoms: C_5  and  N_6 
REMARK       I    between atoms: N_6  and  C_7 
REMARK    2  A    between atoms: C_7  and  C_9 
REMARK       I    between atoms: C_9  and  N_11 
REMARK    3  A    between atoms: N_11  and  C_12 
REMARK    4  A    between atoms: C_12  and  C_13 
REMARK    5  A    between atoms: C_13  and  C_14 
REMARK    6  A    between atoms: C_24  and  C_25 
REMARK       I    between atoms: C_25  and  N_26 
ROOT
ATOM      1  N   UNL d   1      23.062 -18.148  -0.228  0.00  0.00    -0.319 N 
ATOM      2  C   UNL d   1      23.312 -16.872  -0.742  0.00  0.00     0.313 C 
ATOM      3  O   UNL d   1      22.519 -16.089  -1.261  0.00  0.00    -0.262 OA
ATOM      4  H   UNL d   1      23.858 -18.646   0.165  0.00  0.00     0.169 HD
ENDROOT
BRANCH   2   5
ATOM      5  C   UNL d   1      24.753 -16.355  -0.656  0.00  0.00     0.309 C 
ATOM      6  O   UNL d   1      25.569 -16.885   0.088  0.00  0.00    -0.262 OA
ATOM      7  N   UNL d   1      24.974 -15.272  -1.493  0.00  0.00    -0.352 N 
ATOM      8  H   UNL d   1      24.199 -15.012  -2.099  0.00  0.00     0.162 HD
BRANCH   7   9
ATOM      9  C   UNL d   1      26.276 -14.688  -1.645  0.00  0.00     0.138 C 
BRANCH   9  10
ATOM     10  C   UNL d   1      26.780 -14.339  -3.085  0.00  0.00     0.009 C 
ATOM     11  C   UNL d   1      28.250 -14.654  -3.454  0.00  0.00     0.016 C 
ATOM     12  C   UNL d   1      28.258 -14.665  -4.992  0.00  0.00     0.001 C 
ATOM     13  C   UNL d   1      26.889 -15.199  -5.399  0.00  0.00     0.001 C 
ATOM     14  C   UNL d   1      26.067 -15.256  -4.111  0.00  0.00     0.016 C 
BRANCH  10  15
ATOM     15  C   UNL d   1      26.438 -12.848  -3.272  0.00  0.00    -0.007 A 
ATOM     16  C   UNL d   1      26.851 -11.801  -2.463  0.00  0.00     0.016 A 
ATOM     17  C   UNL d   1      26.557 -10.524  -3.016  0.00  0.00     0.008 A 
ATOM     18  C   UNL d   1      25.902 -10.619  -4.219  0.00  0.00     0.050 A 
ATOM     19  S   UNL d   1      25.700 -12.233  -4.705  0.00  0.00    -0.106 SA
ENDBRANCH  10  15
ENDBRANCH   9  10
ENDBRANCH   7   9
ENDBRANCH   2   5
BRANCH   1  20
ATOM     20  C   UNL d   1      21.782 -18.772  -0.202  0.00  0.00     0.036 A 
ATOM     21  C   UNL d   1      21.083 -19.063  -1.375  0.00  0.00     0.030 A 
ATOM     22  C   UNL d   1      19.825 -19.700  -1.307  0.00  0.00     0.010 A 
ATOM     23  C   UNL d   1      19.245 -20.059  -0.072  0.00  0.00    -0.046 A 
ATOM     24  C   UNL d   1      17.913 -20.756  -0.042  0.00  0.00     0.049 C 
ATOM     25  C   UNL d   1      19.938 -19.762   1.111  0.00  0.00     0.039 A 
ATOM     26  C   UNL d   1      21.180 -19.124   1.008  0.00  0.00     0.047 A 
BRANCH  25  27
ATOM     27  C   UNL d   1      19.402 -20.107   2.476  0.00  0.00     0.249 C 
ATOM     28  N   UNL d   1      20.281 -20.451   3.471  0.00  0.00    -0.366 N 
ATOM     29  H   UNL d   1      21.285 -20.506   3.397  0.00  0.00     0.159 HD
ATOM     30  H   UNL d   1      19.877 -20.677   4.370  0.00  0.00     0.159 HD
ATOM     31  O   UNL d   1      18.206 -20.098   2.750  0.00  0.00    -0.268 OA
ENDBRANCH  25  27
ENDBRANCH   1  20
TORSDOF 6
ENDMDL
MODEL 6
REMARK VINA RESULT:    -7.795      1.666      2.389
REMARK INTER + INTRA:         -11.684
REMARK INTER:                  -9.585
REMARK INTRA:                  -2.099
REMARK CONF_INDEPENDENT:        1.790
REMARK UNBOUND:                -2.099
REMARK  6 active torsions:
REMARK  status: ('A' for Active; 'I' for Inactive)
REMARK    1  A    between atoms: C_5  and  N_6 
REMARK       I    between atoms: N_6  and  C_7 
REMARK    2  A    between atoms: C_7  and  C_9 
REMARK       I    between atoms: C_9  and  N_11 
REMARK    3  A    between atoms: N_11  and  C_12 
REMARK    4  A    between atoms: C_12  and  C_13 
REMARK    5  A    between atoms: C_13  and  C_14 
REMARK    6  A    between atoms: C_24  and  C_25 
REMARK       I    between atoms: C_25  and  N_26 
ROOT
ATOM      1  N   UNL d   1      23.013 -18.027  -0.005  0.00  0.00    -0.319 N 
ATOM      2  C   UNL d   1      23.859 -17.834  -1.101  0.00  0.00     0.313 C 
ATOM      3  O   UNL d   1      23.699 -18.201  -2.264  0.00  0.00    -0.262 OA
ATOM      4  H   UNL d   1      23.326 -17.645   0.885  0.00  0.00     0.169 HD
ENDROOT
BRANCH   2   5
ATOM      5  C   UNL d   1      25.161 -17.064  -0.851  0.00  0.00     0.309 C 
ATOM      6  O   UNL d   1      25.623 -16.957   0.278  0.00  0.00    -0.262 OA
ATOM      7  N   UNL d   1      25.698 -16.545  -2.020  0.00  0.00    -0.352 N 
ATOM      8  H   UNL d   1      25.219 -16.798  -2.881  0.00  0.00     0.162 HD
BRANCH   7   9
ATOM      9  C   UNL d   1      26.964 -15.869  -2.034  0.00  0.00     0.138 C 
BRANCH   9  10
ATOM     10  C   UNL d   1      27.039 -14.404  -1.489  0.00  0.00     0.009 C 
ATOM     11  C   UNL d   1      26.434 -14.096  -0.098  0.00  0.00     0.016 C 
ATOM     12  C   UNL d   1      27.100 -12.775   0.319  0.00  0.00     0.001 C 
ATOM     13  C   UNL d   1      28.503 -12.823  -0.277  0.00  0.00     0.001 C 
ATOM     14  C   UNL d   1      28.519 -14.044  -1.197  0.00  0.00     0.016 C 
BRANCH  10  15
ATOM     15  C   UNL d   1      26.419 -13.536  -2.601  0.00  0.00    -0.007 A 
ATOM     16  C   UNL d   1      26.529 -12.160  -2.729  0.00  0.00     0.016 A 
ATOM     17  C   UNL d   1      26.034 -11.678  -3.973  0.00  0.00     0.008 A 
ATOM     18  C   UNL d   1      25.531 -12.687  -4.756  0.00  0.00     0.050 A 
ATOM     19  S   UNL d   1      25.710 -14.208  -4.023  0.00  0.00    -0.106 SA
ENDBRANCH  10  15
ENDBRANCH   9  10
ENDBRANCH   7   9
ENDBRANCH   2   5
BRANCH   1  20
ATOM     20  C   UNL d   1      21.757 -18.696  -0.061  0.00  0.00     0.036 A 
ATOM     21  C   UNL d   1      21.150 -19.018  -1.276  0.00  0.00     0.030 A 
ATOM     22  C   UNL d   1      19.914 -19.699  -1.288  0.00  0.00     0.010 A 
ATOM     23  C   UNL d   1      19.264 -20.071  -0.092  0.00  0.00    -0.046 A 
ATOM     24  C   UNL d   1      17.958 -20.815  -0.147  0.00  0.00     0.049 C 
ATOM     25  C   UNL d   1      19.864 -19.743   1.132  0.00  0.00     0.039 A 
ATOM     26  C   UNL d   1      21.087 -19.062   1.108  0.00  0.00     0.047 A 
BRANCH  25  27
ATOM     27  C   UNL d   1      19.249 -20.099   2.461  0.00  0.00     0.249 C 
ATOM     28  N   UNL d   1      20.067 -20.462   3.499  0.00  0.00    -0.366 N 
ATOM     29  H   UNL d   1      21.073 -20.527   3.481  0.00  0.00     0.159 HD
ATOM     30  H   UNL d   1      19.611 -20.695   4.371  0.00  0.00     0.159 HD
ATOM     31  O   UNL d   1      18.040 -20.081   2.667  0.00  0.00    -0.268 OA
ENDBRANCH  25  27
ENDBRANCH   1  20
TORSDOF 6
ENDMDL
MODEL 7
REMARK VINA RESULT:    -7.677      4.138      9.999
REMARK INTER + INTRA:         -11.817
REMARK INTER:                  -9.467
REMARK INTRA:                  -2.350
REMARK CONF_INDEPENDENT:        1.790
REMARK UNBOUND:                -2.350
REMARK  6 active torsions:
REMARK  status: ('A' for Active; 'I' for Inactive)
REMARK    1  A    between atoms: C_5  and  N_6 
REMARK       I    between atoms: N_6  and  C_7 
REMARK    2  A    between atoms: C_7  and  C_9 
REMARK       I    between atoms: C_9  and  N_11 
REMARK    3  A    between atoms: N_11  and  C_12 
REMARK    4  A    between atoms: C_12  and  C_13 
REMARK    5  A    between atoms: C_13  and  C_14 
REMARK    6  A    between atoms: C_24  and  C_25 
REMARK       I    between atoms: C_25  and  N_26 
ROOT
ATOM      1  N   UNL d   1      27.500 -14.534  -5.761  0.00  0.00    -0.319 N 
ATOM      2  C   UNL d   1      27.219 -15.168  -4.547  0.00  0.00     0.313 C 
ATOM      3  O   UNL d   1      27.971 -15.843  -3.846  0.00  0.00    -0.262 OA
ATOM      4  H   UNL d   1      26.736 -14.018  -6.193  0.00  0.00     0.169 HD
ENDROOT
BRANCH   2   5
ATOM      5  C   UNL d   1      25.798 -15.015  -3.992  0.00  0.00     0.309 C 
ATOM      6  O   UNL d   1      24.923 -14.457  -4.644  0.00  0.00    -0.262 OA
ATOM      7  N   UNL d   1      25.665 -15.568  -2.727  0.00  0.00    -0.352 N 
ATOM      8  H   UNL d   1      26.480 -16.060  -2.368  0.00  0.00     0.162 HD
BRANCH   7   9
ATOM      9  C   UNL d   1      24.397 -15.623  -2.057  0.00  0.00     0.138 C 
BRANCH   9  10
ATOM     10  C   UNL d   1      24.102 -16.829  -1.104  0.00  0.00     0.009 C 
ATOM     11  C   UNL d   1      22.890 -16.739  -0.145  0.00  0.00     0.016 C 
ATOM     12  C   UNL d   1      22.606 -18.200   0.241  0.00  0.00     0.001 C 
ATOM     13  C   UNL d   1      22.967 -19.022  -0.992  0.00  0.00     0.001 C 
ATOM     14  C   UNL d   1      23.655 -18.049  -1.950  0.00  0.00     0.016 C 
BRANCH  10  15
ATOM     15  C   UNL d   1      25.425 -17.072  -0.352  0.00  0.00    -0.007 A 
ATOM     16  C   UNL d   1      26.039 -18.297  -0.142  0.00  0.00     0.016 A 
ATOM     17  C   UNL d   1      27.352 -18.175   0.390  0.00  0.00     0.008 A 
ATOM     18  C   UNL d   1      27.705 -16.865   0.604  0.00  0.00     0.050 A 
ATOM     19  S   UNL d   1      26.486 -15.792   0.108  0.00  0.00    -0.106 SA
ENDBRANCH  10  15
ENDBRANCH   9  10
ENDBRANCH   7   9
ENDBRANCH   2   5
BRANCH   1  20
ATOM     20  C   UNL d   1      28.769 -14.551  -6.407  0.00  0.00     0.036 A 
ATOM     21  C   UNL d   1      29.318 -13.402  -6.979  0.00  0.00     0.030 A 
ATOM     22  C   UNL d   1      30.588 -13.457  -7.592  0.00  0.00     0.010 A 
ATOM     23  C   UNL d   1      31.332 -14.655  -7.645  0.00  0.00    -0.046 A 
ATOM     24  C   UNL d   1      32.691 -14.668  -8.288  0.00  0.00     0.049 C 
ATOM     25  C   UNL d   1      30.782 -15.816  -7.080  0.00  0.00     0.039 A 
ATOM     26  C   UNL d   1      29.518 -15.727  -6.485  0.00  0.00     0.047 A 
BRANCH  25  27
ATOM     27  C   UNL d   1      31.500 -17.141  -7.085  0.00  0.00     0.249 C 
ATOM     28  N   UNL d   1      32.745 -17.227  -6.518  0.00  0.00    -0.366 N 
ATOM     29  H   UNL d   1      33.263 -16.480  -6.083  0.00  0.00     0.159 HD
ATOM     30  H   UNL d   1      33.190 -18.135  -6.547  0.00  0.00     0.159 HD
ATOM     31  O   UNL d   1      31.024 -18.159  -7.575  0.00  0.00    -0.268 OA
ENDBRANCH  25  27
ENDBRANCH   1  20
TORSDOF 6
ENDMDL
MODEL 8
REMARK VINA RESULT:    -7.673      4.731     10.645
REMARK INTER + INTRA:         -11.626
REMARK INTER:                  -9.463
REMARK INTRA:                  -2.162
REMARK CONF_INDEPENDENT:        1.790
REMARK UNBOUND:                -2.162
REMARK  6 active torsions:
REMARK  status: ('A' for Active; 'I' for Inactive)
REMARK    1  A    between atoms: C_5  and  N_6 
REMARK       I    between atoms: N_6  and  C_7 
REMARK    2  A    between atoms: C_7  and  C_9 
REMARK       I    between atoms: C_9  and  N_11 
REMARK    3  A    between atoms: N_11  and  C_12 
REMARK    4  A    between atoms: C_12  and  C_13 
REMARK    5  A    between atoms: C_13  and  C_14 
REMARK    6  A    between atoms: C_24  and  C_25 
REMARK       I    between atoms: C_25  and  N_26 
ROOT
ATOM      1  N   UNL d   1      25.797 -12.134  -5.471  0.00  0.00    -0.319 N 
ATOM      2  C   UNL d   1      26.324 -13.377  -5.105  0.00  0.00     0.313 C 
ATOM      3  O   UNL d   1      27.405 -13.871  -5.420  0.00  0.00    -0.262 OA
ATOM      4  H   UNL d   1      24.876 -11.904  -5.104  0.00  0.00     0.169 HD
ENDROOT
BRANCH   2   5
ATOM      5  C   UNL d   1      25.466 -14.256  -4.189  0.00  0.00     0.309 C 
ATOM      6  O   UNL d   1      24.300 -13.969  -3.949  0.00  0.00    -0.262 OA
ATOM      7  N   UNL d   1      26.165 -15.354  -3.707  0.00  0.00    -0.352 N 
ATOM      8  H   UNL d   1      27.107 -15.477  -4.072  0.00  0.00     0.162 HD
BRANCH   7   9
ATOM      9  C   UNL d   1      25.530 -16.362  -2.907  0.00  0.00     0.138 C 
BRANCH   9  10
ATOM     10  C   UNL d   1      25.812 -16.389  -1.368  0.00  0.00     0.009 C 
ATOM     11  C   UNL d   1      27.106 -17.070  -0.862  0.00  0.00     0.016 C 
ATOM     12  C   UNL d   1      27.308 -16.495   0.550  0.00  0.00     0.001 C 
ATOM     13  C   UNL d   1      26.778 -15.066   0.483  0.00  0.00     0.001 C 
ATOM     14  C   UNL d   1      26.087 -14.945  -0.875  0.00  0.00     0.016 C 
BRANCH  10  15
ATOM     15  C   UNL d   1      24.545 -17.005  -0.744  0.00  0.00    -0.007 A 
ATOM     16  C   UNL d   1      23.251 -16.521  -0.862  0.00  0.00     0.016 A 
ATOM     17  C   UNL d   1      22.274 -17.425  -0.360  0.00  0.00     0.008 A 
ATOM     18  C   UNL d   1      22.839 -18.565   0.155  0.00  0.00     0.050 A 
ATOM     19  S   UNL d   1      24.527 -18.571  -0.022  0.00  0.00    -0.106 SA
ENDBRANCH  10  15
ENDBRANCH   9  10
ENDBRANCH   7   9
ENDBRANCH   2   5
BRANCH   1  20
ATOM     20  C   UNL d   1      26.466 -11.183  -6.293  0.00  0.00     0.036 A 
ATOM     21  C   UNL d   1      26.373  -9.811  -6.054  0.00  0.00     0.030 A 
ATOM     22  C   UNL d   1      27.068  -8.902  -6.880  0.00  0.00     0.010 A 
ATOM     23  C   UNL d   1      27.867  -9.345  -7.956  0.00  0.00    -0.046 A 
ATOM     24  C   UNL d   1      28.609  -8.346  -8.801  0.00  0.00     0.049 C 
ATOM     25  C   UNL d   1      27.957 -10.722  -8.208  0.00  0.00     0.039 A 
ATOM     26  C   UNL d   1      27.251 -11.595  -7.372  0.00  0.00     0.047 A 
BRANCH  25  27
ATOM     27  C   UNL d   1      28.785 -11.291  -9.331  0.00  0.00     0.249 C 
ATOM     28  N   UNL d   1      29.104 -12.624  -9.316  0.00  0.00    -0.366 N 
ATOM     29  H   UNL d   1      28.843 -13.299  -8.614  0.00  0.00     0.159 HD
ATOM     30  H   UNL d   1      29.663 -12.961 -10.087  0.00  0.00     0.159 HD
ATOM     31  O   UNL d   1      29.196 -10.617 -10.270  0.00  0.00    -0.268 OA
ENDBRANCH  25  27
ENDBRANCH   1  20
TORSDOF 6
ENDMDL
MODEL 9
REMARK VINA RESULT:    -7.408      6.737      9.107
REMARK INTER + INTRA:         -11.544
REMARK INTER:                  -9.197
REMARK INTRA:                  -2.347
REMARK CONF_INDEPENDENT:        1.790
REMARK UNBOUND:                -2.347
REMARK  6 active torsions:
REMARK  status: ('A' for Active; 'I' for Inactive)
REMARK    1  A    between atoms: C_5  and  N_6 
REMARK       I    between atoms: N_6  and  C_7 
REMARK    2  A    between atoms: C_7  and  C_9 
REMARK       I    between atoms: C_9  and  N_11 
REMARK    3  A    between atoms: N_11  and  C_12 
REMARK    4  A    between atoms: C_12  and  C_13 
REMARK    5  A    between atoms: C_13  and  C_14 
REMARK    6  A    between atoms: C_24  and  C_25 
REMARK       I    between atoms: C_25  and  N_26 
ROOT
ATOM      1  N   UNL d   1      27.604 -12.831   3.834  0.00  0.00    -0.319 N 
ATOM      2  C   UNL d   1      27.497 -13.674   2.724  0.00  0.00     0.313 C 
ATOM      3  O   UNL d   1      27.981 -14.793   2.565  0.00  0.00    -0.262 OA
ATOM      4  H   UNL d   1      27.125 -11.934   3.773  0.00  0.00     0.169 HD
ENDROOT
BRANCH   2   5
ATOM      5  C   UNL d   1      26.669 -13.165   1.538  0.00  0.00     0.309 C 
ATOM      6  O   UNL d   1      25.909 -12.212   1.662  0.00  0.00    -0.262 OA
ATOM      7  N   UNL d   1      26.898 -13.898   0.383  0.00  0.00    -0.352 N 
ATOM      8  H   UNL d   1      27.622 -14.611   0.444  0.00  0.00     0.162 HD
BRANCH   7   9
ATOM      9  C   UNL d   1      26.302 -13.537  -0.871  0.00  0.00     0.138 C 
BRANCH   9  10
ATOM     10  C   UNL d   1      26.182 -14.627  -1.988  0.00  0.00     0.009 C 
ATOM     11  C   UNL d   1      25.390 -14.289  -3.274  0.00  0.00     0.016 C 
ATOM     12  C   UNL d   1      25.882 -15.321  -4.302  0.00  0.00     0.001 C 
ATOM     13  C   UNL d   1      27.345 -15.575  -3.952  0.00  0.00     0.001 C 
ATOM     14  C   UNL d   1      27.578 -14.870  -2.616  0.00  0.00     0.016 C 
BRANCH  10  15
ATOM     15  C   UNL d   1      25.623 -15.871  -1.268  0.00  0.00    -0.007 A 
ATOM     16  C   UNL d   1      24.331 -16.365  -1.364  0.00  0.00     0.016 A 
ATOM     17  C   UNL d   1      24.181 -17.644  -0.759  0.00  0.00     0.008 A 
ATOM     18  C   UNL d   1      25.350 -18.087  -0.190  0.00  0.00     0.050 A 
ATOM     19  S   UNL d   1      26.629 -16.999  -0.438  0.00  0.00    -0.106 SA
ENDBRANCH  10  15
ENDBRANCH   9  10
ENDBRANCH   7   9
ENDBRANCH   2   5
BRANCH   1  20
ATOM     20  C   UNL d   1      28.310 -13.153   5.028  0.00  0.00     0.036 A 
ATOM     21  C   UNL d   1      29.246 -14.186   5.072  0.00  0.00     0.030 A 
ATOM     22  C   UNL d   1      29.940 -14.460   6.270  0.00  0.00     0.010 A 
ATOM     23  C   UNL d   1      29.712 -13.709   7.443  0.00  0.00    -0.046 A 
ATOM     24  C   UNL d   1      30.486 -14.018   8.695  0.00  0.00     0.049 C 
ATOM     25  C   UNL d   1      28.766 -12.674   7.409  0.00  0.00     0.039 A 
ATOM     26  C   UNL d   1      28.092 -12.433   6.205  0.00  0.00     0.047 A 
BRANCH  25  27
ATOM     27  C   UNL d   1      28.455 -11.816   8.608  0.00  0.00     0.249 C 
ATOM     28  N   UNL d   1      28.905 -10.521   8.635  0.00  0.00    -0.366 N 
ATOM     29  H   UNL d   1      29.444 -10.053   7.923  0.00  0.00     0.159 HD
ATOM     30  H   UNL d   1      28.675  -9.983   9.460  0.00  0.00     0.159 HD
ATOM     31  O   UNL d   1      27.814 -12.218   9.573  0.00  0.00    -0.268 OA
ENDBRANCH  25  27
ENDBRANCH   1  20
TORSDOF 6
ENDMDL
