MODEL 1
REMARK VINA RESULT:    -8.398      0.000      0.000
REMARK INTER + INTRA:         -11.808
REMARK INTER:                 -10.188
REMARK INTRA:                  -1.621
REMARK CONF_INDEPENDENT:        1.790
REMARK UNBOUND:                -1.621
REMARK  6 active torsions:
REMARK  status: ('A' for Active; 'I' for Inactive)
REMARK    1  A    between atoms: O_2  and  C_3 
REMARK    2  A    between atoms: C_6  and  C_7 
REMARK    3  A    between atoms: C_7  and  C_8 
REMARK       I    between atoms: C_8  and  N_10 
REMARK    4  A    between atoms: N_10  and  N_11 
REMARK       I    between atoms: N_11  and  C_12 
REMARK    5  A    between atoms: C_12  and  C_14 
REMARK    6  A    between atoms: C_18  and  O_19 
ROOT
ATOM      1  C   UNL d   1      24.859 -18.102   0.046  0.00  0.00     0.240 C 
ATOM      2  O   UNL d   1      24.768 -18.244   1.269  0.00  0.00    -0.272 OA
ATOM      3  N   UNL d   1      23.745 -18.451  -0.690  0.00  0.00    -0.267 N 
ATOM      4  H   UNL d   1      23.649 -18.440  -1.701  0.00  0.00     0.190 HD
ENDROOT
BRANCH   3   5
ATOM      5  N   UNL d   1      22.625 -18.888   0.079  0.00  0.00    -0.263 N 
ATOM      6  C   UNL d   1      21.470 -19.303  -0.537  0.00  0.00     0.270 C 
ATOM      7  O   UNL d   1      21.343 -19.322  -1.764  0.00  0.00    -0.266 OA
ATOM      8  H   UNL d   1      22.792 -18.950   1.088  0.00  0.00     0.190 HD
BRANCH   6   9
ATOM      9  C   UNL d   1      20.341 -19.735   0.341  0.00  0.00     0.036 A 
ATOM     10  C   UNL d   1      20.436 -19.524   1.725  0.00  0.00     0.017 A 
ATOM     11  C   UNL d   1      19.489 -20.078   2.596  0.00  0.00     0.004 A 
ATOM     12  C   UNL d   1      18.406 -20.797   2.090  0.00  0.00     0.036 A 
ATOM     13  C   UNL d   1      18.303 -20.988   0.715  0.00  0.00     0.066 A 
ATOM     14  C   UNL d   1      19.257 -20.465  -0.163  0.00  0.00     0.053 A 
BRANCH  13  15
ATOM     15  O   UNL d   1      17.288 -21.725   0.178  0.00  0.00    -0.361 OA
ATOM     16  H   UNL d   1      17.367 -22.647   0.475  0.00  0.00     0.217 HD
ENDBRANCH  13  15
ENDBRANCH   6   9
ENDBRANCH   3   5
BRANCH   1  17
ATOM     17  C   UNL d   1      26.106 -17.576  -0.709  0.00  0.00     0.143 C 
BRANCH  17  18
ATOM     18  C   UNL d   1      25.898 -16.378  -1.649  0.00  0.00    -0.049 A 
ATOM     19  C   UNL d   1      24.637 -15.769  -1.790  0.00  0.00     0.010 A 
ATOM     20  C   UNL d   1      24.422 -14.777  -2.769  0.00  0.00     0.037 A 
ATOM     21  C   UNL d   1      25.465 -14.335  -3.584  0.00  0.00     0.068 A 
ATOM     22  C   UNL d   1      26.726 -14.865  -3.400  0.00  0.00     0.037 A 
ATOM     23  C   UNL d   1      26.928 -15.858  -2.444  0.00  0.00     0.010 A 
BRANCH  21  24
ATOM     24  O   UNL d   1      25.202 -13.318  -4.458  0.00  0.00    -0.356 OA
ATOM     25  C   UNL d   1      26.360 -12.760  -5.077  0.00  0.00     0.210 C 
ENDBRANCH  21  24
ENDBRANCH  17  18
ENDBRANCH   1  17
TORSDOF 6
ENDMDL
MODEL 2
REMARK VINA RESULT:    -7.876      2.472      9.026
REMARK INTER + INTRA:         -11.278
REMARK INTER:                  -9.666
REMARK INTRA:                  -1.611
REMARK CONF_INDEPENDENT:        1.790
REMARK UNBOUND:                -1.611
REMARK  6 active torsions:
REMARK  status: ('A' for Active; 'I' for Inactive)
REMARK    1  A    between atoms: O_2  and  C_3 
REMARK    2  A    between atoms: C_6  and  C_7 
REMARK    3  A    between atoms: C_7  and  C_8 
REMARK       I    between atoms: C_8  and  N_10 
REMARK    4  A    between atoms: N_10  and  N_11 
REMARK       I    between atoms: N_11  and  C_12 
REMARK    5  A    between atoms: C_12  and  C_14 
REMARK    6  A    between atoms: C_18  and  O_19 
ROOT
ATOM      1  C   UNL d   1      26.619 -16.732  -1.231  0.00  0.00     0.240 C 
ATOM      2  O   UNL d   1      27.830 -16.493  -1.241  0.00  0.00    -0.272 OA
ATOM      3  N   UNL d   1      25.879 -16.156  -2.243  0.00  0.00    -0.267 N 
ATOM      4  H   UNL d   1      24.872 -16.207  -2.373  0.00  0.00     0.190 HD
ENDROOT
BRANCH   3   5
ATOM      5  N   UNL d   1      26.633 -15.396  -3.186  0.00  0.00    -0.263 N 
ATOM      6  C   UNL d   1      26.004 -14.579  -4.093  0.00  0.00     0.270 C 
ATOM      7  O   UNL d   1      24.777 -14.459  -4.138  0.00  0.00    -0.266 OA
ATOM      8  H   UNL d   1      27.649 -15.443  -3.065  0.00  0.00     0.190 HD
BRANCH   6   9
ATOM      9  C   UNL d   1      26.866 -13.826  -5.053  0.00  0.00     0.036 A 
ATOM     10  C   UNL d   1      26.553 -12.490  -5.345  0.00  0.00     0.017 A 
ATOM     11  C   UNL d   1      27.220 -11.811  -6.374  0.00  0.00     0.004 A 
ATOM     12  C   UNL d   1      28.247 -12.440  -7.079  0.00  0.00     0.036 A 
ATOM     13  C   UNL d   1      28.569 -13.759  -6.773  0.00  0.00     0.066 A 
ATOM     14  C   UNL d   1      27.892 -14.457  -5.769  0.00  0.00     0.053 A 
BRANCH  13  15
ATOM     15  O   UNL d   1      29.533 -14.430  -7.468  0.00  0.00    -0.361 OA
ATOM     16  H   UNL d   1      29.252 -14.531  -8.393  0.00  0.00     0.217 HD
ENDBRANCH  13  15
ENDBRANCH   6   9
ENDBRANCH   3   5
BRANCH   1  17
ATOM     17  C   UNL d   1      25.883 -17.609  -0.187  0.00  0.00     0.143 C 
BRANCH  17  18
ATOM     18  C   UNL d   1      24.360 -17.749  -0.343  0.00  0.00    -0.049 A 
ATOM     19  C   UNL d   1      23.740 -19.011  -0.363  0.00  0.00     0.010 A 
ATOM     20  C   UNL d   1      22.368 -19.135  -0.664  0.00  0.00     0.037 A 
ATOM     21  C   UNL d   1      21.579 -18.008  -0.895  0.00  0.00     0.068 A 
ATOM     22  C   UNL d   1      22.157 -16.758  -0.797  0.00  0.00     0.037 A 
ATOM     23  C   UNL d   1      23.517 -16.643  -0.517  0.00  0.00     0.010 A 
BRANCH  21  24
ATOM     24  O   UNL d   1      20.243 -18.199  -1.106  0.00  0.00    -0.356 OA
ATOM     25  C   UNL d   1      19.701 -19.344  -0.449  0.00  0.00     0.210 C 
ENDBRANCH  21  24
ENDBRANCH  17  18
ENDBRANCH   1  17
TORSDOF 6
ENDMDL
MODEL 3
REMARK VINA RESULT:    -7.814      2.377      3.070
REMARK INTER + INTRA:         -11.120
REMARK INTER:                  -9.604
REMARK INTRA:                  -1.516
REMARK CONF_INDEPENDENT:        1.790
REMARK UNBOUND:                -1.516
REMARK  6 active torsions:
REMARK  status: ('A' for Active; 'I' for Inactive)
REMARK    1  A    between atoms: O_2  and  C_3 
REMARK    2  A    between atoms: C_6  and  C_7 
REMARK    3  A    between atoms: C_7  and  C_8 
REMARK       I    between atoms: C_8  and  N_10 
REMARK    4  A    between atoms: N_10  and  N_11 
REMARK       I    between atoms: N_11  and  C_12 
REMARK    5  A    between atoms: C_12  and  C_14 
REMARK    6  A    between atoms: C_18  and  O_19 
ROOT
ATOM      1  C   UNL d   1      24.485 -17.945  -0.671  0.00  0.00     0.240 C 
ATOM      2  O   UNL d   1      24.710 -18.582   0.362  0.00  0.00    -0.272 OA
ATOM      3  N   UNL d   1      23.190 -17.997  -1.146  0.00  0.00    -0.267 N 
ATOM      4  H   UNL d   1      22.830 -17.572  -1.996  0.00  0.00     0.190 HD
ENDROOT
BRANCH   3   5
ATOM      5  N   UNL d   1      22.282 -18.751  -0.344  0.00  0.00    -0.263 N 
ATOM      6  C   UNL d   1      20.925 -18.581  -0.472  0.00  0.00     0.270 C 
ATOM      7  O   UNL d   1      20.430 -17.784  -1.272  0.00  0.00    -0.266 OA
ATOM      8  H   UNL d   1      22.717 -19.469   0.242  0.00  0.00     0.190 HD
BRANCH   6   9
ATOM      9  C   UNL d   1      20.044 -19.402   0.413  0.00  0.00     0.036 A 
ATOM     10  C   UNL d   1      20.341 -19.484   1.781  0.00  0.00     0.017 A 
ATOM     11  C   UNL d   1      19.655 -20.386   2.605  0.00  0.00     0.004 A 
ATOM     12  C   UNL d   1      18.625 -21.170   2.083  0.00  0.00     0.036 A 
ATOM     13  C   UNL d   1      18.320 -21.071   0.728  0.00  0.00     0.066 A 
ATOM     14  C   UNL d   1      19.016 -20.196  -0.110  0.00  0.00     0.053 A 
BRANCH  13  15
ATOM     15  O   UNL d   1      17.354 -21.853   0.163  0.00  0.00    -0.361 OA
ATOM     16  H   UNL d   1      17.294 -22.692   0.649  0.00  0.00     0.217 HD
ENDBRANCH  13  15
ENDBRANCH   6   9
ENDBRANCH   3   5
BRANCH   1  17
ATOM     17  C   UNL d   1      25.526 -17.111  -1.459  0.00  0.00     0.143 C 
BRANCH  17  18
ATOM     18  C   UNL d   1      26.350 -16.089  -0.660  0.00  0.00    -0.049 A 
ATOM     19  C   UNL d   1      27.039 -16.458   0.509  0.00  0.00     0.010 A 
ATOM     20  C   UNL d   1      27.659 -15.484   1.318  0.00  0.00     0.037 A 
ATOM     21  C   UNL d   1      27.653 -14.137   0.953  0.00  0.00     0.068 A 
ATOM     22  C   UNL d   1      27.051 -13.772  -0.235  0.00  0.00     0.037 A 
ATOM     23  C   UNL d   1      26.425 -14.736  -1.021  0.00  0.00     0.010 A 
BRANCH  21  24
ATOM     24  O   UNL d   1      28.337 -13.260   1.745  0.00  0.00    -0.356 OA
ATOM     25  C   UNL d   1      29.223 -13.877   2.678  0.00  0.00     0.210 C 
ENDBRANCH  21  24
ENDBRANCH  17  18
ENDBRANCH   1  17
TORSDOF 6
ENDMDL
MODEL 4
REMARK VINA RESULT:    -7.701      1.708      2.113
REMARK INTER + INTRA:         -10.919
REMARK INTER:                  -9.491
REMARK INTRA:                  -1.428
REMARK CONF_INDEPENDENT:        1.790
REMARK UNBOUND:                -1.428
REMARK  6 active torsions:
REMARK  status: ('A' for Active; 'I' for Inactive)
REMARK    1  A    between atoms: O_2  and  C_3 
REMARK    2  A    between atoms: C_6  and  C_7 
REMARK    3  A    between atoms: C_7  and  C_8 
REMARK       I    between atoms: C_8  and  N_10 
REMARK    4  A    between atoms: N_10  and  N_11 
REMARK       I    between atoms: N_11  and  C_12 
REMARK    5  A    between atoms: C_12  and  C_14 
REMARK    6  A    between atoms: C_18  and  O_19 
ROOT
ATOM      1  C   UNL d   1      25.615 -17.574   0.014  0.00  0.00     0.240 C 
ATOM      2  O   UNL d   1      25.670 -18.558   0.757  0.00  0.00    -0.272 OA
ATOM      3  N   UNL d   1      24.391 -17.323  -0.571  0.00  0.00    -0.267 N 
ATOM      4  H   UNL d   1      24.167 -16.588  -1.236  0.00  0.00     0.190 HD
ENDROOT
BRANCH   3   5
ATOM      5  N   UNL d   1      23.346 -18.219  -0.195  0.00  0.00    -0.263 N 
ATOM      6  C   UNL d   1      22.033 -17.913  -0.452  0.00  0.00     0.270 C 
ATOM      7  O   UNL d   1      21.693 -16.868  -1.013  0.00  0.00    -0.266 OA
ATOM      8  H   UNL d   1      23.663 -19.117   0.182  0.00  0.00     0.190 HD
BRANCH   6   9
ATOM      9  C   UNL d   1      20.999 -18.901  -0.017  0.00  0.00     0.036 A 
ATOM     10  C   UNL d   1      20.017 -19.306  -0.933  0.00  0.00     0.017 A 
ATOM     11  C   UNL d   1      18.928 -20.082  -0.513  0.00  0.00     0.004 A 
ATOM     12  C   UNL d   1      18.843 -20.511   0.812  0.00  0.00     0.036 A 
ATOM     13  C   UNL d   1      19.830 -20.124   1.714  0.00  0.00     0.066 A 
ATOM     14  C   UNL d   1      20.906 -19.326   1.314  0.00  0.00     0.053 A 
BRANCH  13  15
ATOM     15  O   UNL d   1      19.762 -20.479   3.030  0.00  0.00    -0.361 OA
ATOM     16  H   UNL d   1      20.401 -21.191   3.205  0.00  0.00     0.217 HD
ENDBRANCH  13  15
ENDBRANCH   6   9
ENDBRANCH   3   5
BRANCH   1  17
ATOM     17  C   UNL d   1      26.794 -16.622  -0.307  0.00  0.00     0.143 C 
BRANCH  17  18
ATOM     18  C   UNL d   1      26.918 -16.128  -1.758  0.00  0.00    -0.049 A 
ATOM     19  C   UNL d   1      25.779 -15.863  -2.540  0.00  0.00     0.010 A 
ATOM     20  C   UNL d   1      25.901 -15.565  -3.912  0.00  0.00     0.037 A 
ATOM     21  C   UNL d   1      27.154 -15.471  -4.518  0.00  0.00     0.068 A 
ATOM     22  C   UNL d   1      28.283 -15.647  -3.743  0.00  0.00     0.037 A 
ATOM     23  C   UNL d   1      28.156 -15.959  -2.392  0.00  0.00     0.010 A 
BRANCH  21  24
ATOM     24  O   UNL d   1      27.200 -15.104  -5.833  0.00  0.00    -0.356 OA
ATOM     25  C   UNL d   1      28.513 -14.841  -6.326  0.00  0.00     0.210 C 
ENDBRANCH  21  24
ENDBRANCH  17  18
ENDBRANCH   1  17
TORSDOF 6
ENDMDL
MODEL 5
REMARK VINA RESULT:    -7.638      5.138      8.936
REMARK INTER + INTRA:         -10.911
REMARK INTER:                  -9.428
REMARK INTRA:                  -1.483
REMARK CONF_INDEPENDENT:        1.790
REMARK UNBOUND:                -1.483
REMARK  6 active torsions:
REMARK  status: ('A' for Active; 'I' for Inactive)
REMARK    1  A    between atoms: O_2  and  C_3 
REMARK    2  A    between atoms: C_6  and  C_7 
REMARK    3  A    between atoms: C_7  and  C_8 
REMARK       I    between atoms: C_8  and  N_10 
REMARK    4  A    between atoms: N_10  and  N_11 
REMARK       I    between atoms: N_11  and  C_12 
REMARK    5  A    between atoms: C_12  and  C_14 
REMARK    6  A    between atoms: C_18  and  O_19 
ROOT
ATOM      1  C   UNL d   1      26.811 -16.758   0.225  0.00  0.00     0.240 C 
ATOM      2  O   UNL d   1      27.298 -17.618   0.964  0.00  0.00    -0.272 OA
ATOM      3  N   UNL d   1      27.007 -15.447   0.609  0.00  0.00    -0.267 N 
ATOM      4  H   UNL d   1      26.650 -14.613   0.152  0.00  0.00     0.190 HD
ENDROOT
BRANCH   3   5
ATOM      5  N   UNL d   1      27.787 -15.273   1.791  0.00  0.00    -0.263 N 
ATOM      6  C   UNL d   1      27.601 -14.180   2.600  0.00  0.00     0.270 C 
ATOM      7  O   UNL d   1      26.764 -13.308   2.355  0.00  0.00    -0.266 OA
ATOM      8  H   UNL d   1      28.406 -16.057   2.018  0.00  0.00     0.190 HD
BRANCH   6   9
ATOM      9  C   UNL d   1      28.466 -14.069   3.814  0.00  0.00     0.036 A 
ATOM     10  C   UNL d   1      28.040 -14.664   5.010  0.00  0.00     0.017 A 
ATOM     11  C   UNL d   1      28.726 -14.425   6.208  0.00  0.00     0.004 A 
ATOM     12  C   UNL d   1      29.880 -13.639   6.211  0.00  0.00     0.036 A 
ATOM     13  C   UNL d   1      30.311 -13.066   5.018  0.00  0.00     0.066 A 
ATOM     14  C   UNL d   1      29.619 -13.273   3.822  0.00  0.00     0.053 A 
BRANCH  13  15
ATOM     15  O   UNL d   1      31.405 -12.251   4.982  0.00  0.00    -0.361 OA
ATOM     16  H   UNL d   1      32.209 -12.793   4.913  0.00  0.00     0.217 HD
ENDBRANCH  13  15
ENDBRANCH   6   9
ENDBRANCH   3   5
BRANCH   1  17
ATOM     17  C   UNL d   1      26.010 -17.033  -1.072  0.00  0.00     0.143 C 
BRANCH  17  18
ATOM     18  C   UNL d   1      24.510 -17.329  -0.917  0.00  0.00    -0.049 A 
ATOM     19  C   UNL d   1      24.029 -18.648  -0.832  0.00  0.00     0.010 A 
ATOM     20  C   UNL d   1      22.644 -18.913  -0.849  0.00  0.00     0.037 A 
ATOM     21  C   UNL d   1      21.715 -17.873  -0.895  0.00  0.00     0.068 A 
ATOM     22  C   UNL d   1      22.172 -16.570  -0.895  0.00  0.00     0.037 A 
ATOM     23  C   UNL d   1      23.541 -16.315  -0.896  0.00  0.00     0.010 A 
BRANCH  21  24
ATOM     24  O   UNL d   1      20.391 -18.200  -0.832  0.00  0.00    -0.356 OA
ATOM     25  C   UNL d   1      20.129 -19.603  -0.840  0.00  0.00     0.210 C 
ENDBRANCH  21  24
ENDBRANCH  17  18
ENDBRANCH   1  17
TORSDOF 6
ENDMDL
MODEL 6
REMARK VINA RESULT:    -7.206      2.584      9.105
REMARK INTER + INTRA:         -10.632
REMARK INTER:                  -8.996
REMARK INTRA:                  -1.636
REMARK CONF_INDEPENDENT:        1.790
REMARK UNBOUND:                -1.636
REMARK  6 active torsions:
REMARK  status: ('A' for Active; 'I' for Inactive)
REMARK    1  A    between atoms: O_2  and  C_3 
REMARK    2  A    between atoms: C_6  and  C_7 
REMARK    3  A    between atoms: C_7  and  C_8 
REMARK       I    between atoms: C_8  and  N_10 
REMARK    4  A    between atoms: N_10  and  N_11 
REMARK       I    between atoms: N_11  and  C_12 
REMARK    5  A    between atoms: C_12  and  C_14 
REMARK    6  A    between atoms: C_18  and  O_19 
ROOT
ATOM      1  C   UNL d   1      26.812 -16.820  -1.276  0.00  0.00     0.240 C 
ATOM      2  O   UNL d   1      28.042 -16.766  -1.377  0.00  0.00    -0.272 OA
ATOM      3  N   UNL d   1      26.094 -16.178  -2.265  0.00  0.00    -0.267 N 
ATOM      4  H   UNL d   1      25.085 -16.082  -2.327  0.00  0.00     0.190 HD
ENDROOT
BRANCH   3   5
ATOM      5  N   UNL d   1      26.883 -15.576  -3.290  0.00  0.00    -0.263 N 
ATOM      6  C   UNL d   1      26.287 -14.918  -4.338  0.00  0.00     0.270 C 
ATOM      7  O   UNL d   1      25.063 -14.812  -4.444  0.00  0.00    -0.266 OA
ATOM      8  H   UNL d   1      27.894 -15.599  -3.128  0.00  0.00     0.190 HD
BRANCH   6   9
ATOM      9  C   UNL d   1      27.184 -14.325  -5.376  0.00  0.00     0.036 A 
ATOM     10  C   UNL d   1      28.251 -15.090  -5.870  0.00  0.00     0.017 A 
ATOM     11  C   UNL d   1      29.219 -14.509  -6.700  0.00  0.00     0.004 A 
ATOM     12  C   UNL d   1      29.097 -13.175  -7.092  0.00  0.00     0.036 A 
ATOM     13  C   UNL d   1      28.027 -12.424  -6.616  0.00  0.00     0.066 A 
ATOM     14  C   UNL d   1      27.070 -12.984  -5.764  0.00  0.00     0.053 A 
BRANCH  13  15
ATOM     15  O   UNL d   1      27.893 -11.103  -6.934  0.00  0.00    -0.361 OA
ATOM     16  H   UNL d   1      28.747 -10.760  -7.247  0.00  0.00     0.217 HD
ENDBRANCH  13  15
ENDBRANCH   6   9
ENDBRANCH   3   5
BRANCH   1  17
ATOM     17  C   UNL d   1      26.032 -17.537  -0.147  0.00  0.00     0.143 C 
BRANCH  17  18
ATOM     18  C   UNL d   1      24.509 -17.655  -0.317  0.00  0.00    -0.049 A 
ATOM     19  C   UNL d   1      23.868 -18.908  -0.316  0.00  0.00     0.010 A 
ATOM     20  C   UNL d   1      22.498 -19.016  -0.630  0.00  0.00     0.037 A 
ATOM     21  C   UNL d   1      21.731 -17.881  -0.895  0.00  0.00     0.068 A 
ATOM     22  C   UNL d   1      22.328 -16.639  -0.817  0.00  0.00     0.037 A 
ATOM     23  C   UNL d   1      23.686 -16.540  -0.525  0.00  0.00     0.010 A 
BRANCH  21  24
ATOM     24  O   UNL d   1      20.394 -18.054  -1.117  0.00  0.00    -0.356 OA
ATOM     25  C   UNL d   1      19.889 -19.325  -0.708  0.00  0.00     0.210 C 
ENDBRANCH  21  24
ENDBRANCH  17  18
ENDBRANCH   1  17
TORSDOF 6
ENDMDL
MODEL 7
REMARK VINA RESULT:    -7.195      2.639      9.129
REMARK INTER + INTRA:         -10.625
REMARK INTER:                  -8.985
REMARK INTRA:                  -1.640
REMARK CONF_INDEPENDENT:        1.790
REMARK UNBOUND:                -1.640
REMARK  6 active torsions:
REMARK  status: ('A' for Active; 'I' for Inactive)
REMARK    1  A    between atoms: O_2  and  C_3 
REMARK    2  A    between atoms: C_6  and  C_7 
REMARK    3  A    between atoms: C_7  and  C_8 
REMARK       I    between atoms: C_8  and  N_10 
REMARK    4  A    between atoms: N_10  and  N_11 
REMARK       I    between atoms: N_11  and  C_12 
REMARK    5  A    between atoms: C_12  and  C_14 
REMARK    6  A    between atoms: C_18  and  O_19 
ROOT
ATOM      1  C   UNL d   1      26.179 -15.245  -0.730  0.00  0.00     0.240 C 
ATOM      2  O   UNL d   1      26.716 -14.278  -0.182  0.00  0.00    -0.272 OA
ATOM      3  N   UNL d   1      25.709 -15.033  -2.011  0.00  0.00    -0.267 N 
ATOM      4  H   UNL d   1      25.208 -15.693  -2.598  0.00  0.00     0.190 HD
ENDROOT
BRANCH   3   5
ATOM      5  N   UNL d   1      25.953 -13.728  -2.535  0.00  0.00    -0.263 N 
ATOM      6  C   UNL d   1      25.438 -13.354  -3.752  0.00  0.00     0.270 C 
ATOM      7  O   UNL d   1      24.750 -14.110  -4.442  0.00  0.00    -0.266 OA
ATOM      8  H   UNL d   1      26.446 -13.093  -1.901  0.00  0.00     0.190 HD
BRANCH   6   9
ATOM      9  C   UNL d   1      25.749 -11.974  -4.234  0.00  0.00     0.036 A 
ATOM     10  C   UNL d   1      26.415 -11.815  -5.458  0.00  0.00     0.017 A 
ATOM     11  C   UNL d   1      26.887 -10.556  -5.853  0.00  0.00     0.004 A 
ATOM     12  C   UNL d   1      26.645  -9.435  -5.058  0.00  0.00     0.036 A 
ATOM     13  C   UNL d   1      25.966  -9.593  -3.854  0.00  0.00     0.066 A 
ATOM     14  C   UNL d   1      25.516 -10.848  -3.434  0.00  0.00     0.053 A 
BRANCH  13  15
ATOM     15  O   UNL d   1      25.749  -8.534  -3.021  0.00  0.00    -0.361 OA
ATOM     16  H   UNL d   1      24.796  -8.452  -2.846  0.00  0.00     0.217 HD
ENDBRANCH  13  15
ENDBRANCH   6   9
ENDBRANCH   3   5
BRANCH   1  17
ATOM     17  C   UNL d   1      25.994 -16.648  -0.101  0.00  0.00     0.143 C 
BRANCH  17  18
ATOM     18  C   UNL d   1      24.622 -17.318  -0.279  0.00  0.00    -0.049 A 
ATOM     19  C   UNL d   1      24.471 -18.713  -0.183  0.00  0.00     0.010 A 
ATOM     20  C   UNL d   1      23.243 -19.328  -0.504  0.00  0.00     0.037 A 
ATOM     21  C   UNL d   1      22.133 -18.567  -0.870  0.00  0.00     0.068 A 
ATOM     22  C   UNL d   1      22.244 -17.191  -0.888  0.00  0.00     0.037 A 
ATOM     23  C   UNL d   1      23.464 -16.590  -0.588  0.00  0.00     0.010 A 
BRANCH  21  24
ATOM     24  O   UNL d   1      20.956 -19.224  -1.093  0.00  0.00    -0.356 OA
ATOM     25  C   UNL d   1      20.200 -19.496   0.086  0.00  0.00     0.210 C 
ENDBRANCH  21  24
ENDBRANCH  17  18
ENDBRANCH   1  17
TORSDOF 6
ENDMDL
MODEL 8
REMARK VINA RESULT:    -7.051      2.930      5.437
REMARK INTER + INTRA:         -10.406
REMARK INTER:                  -8.841
REMARK INTRA:                  -1.565
REMARK CONF_INDEPENDENT:        1.790
REMARK UNBOUND:                -1.565
REMARK  6 active torsions:
REMARK  status: ('A' for Active; 'I' for Inactive)
REMARK    1  A    between atoms: O_2  and  C_3 
REMARK    2  A    between atoms: C_6  and  C_7 
REMARK    3  A    between atoms: C_7  and  C_8 
REMARK       I    between atoms: C_8  and  N_10 
REMARK    4  A    between atoms: N_10  and  N_11 
REMARK       I    between atoms: N_11  and  C_12 
REMARK    5  A    between atoms: C_12  and  C_14 
REMARK    6  A    between atoms: C_18  and  O_19 
ROOT
ATOM      1  C   UNL d   1      25.866 -14.163  -4.043  0.00  0.00     0.240 C 
ATOM      2  O   UNL d   1      25.105 -14.800  -4.777  0.00  0.00    -0.272 OA
ATOM      3  N   UNL d   1      25.833 -14.493  -2.703  0.00  0.00    -0.267 N 
ATOM      4  H   UNL d   1      26.355 -14.055  -1.950  0.00  0.00     0.190 HD
ENDROOT
BRANCH   3   5
ATOM      5  N   UNL d   1      24.947 -15.559  -2.365  0.00  0.00    -0.263 N 
ATOM      6  C   UNL d   1      24.792 -15.955  -1.059  0.00  0.00     0.270 C 
ATOM      7  O   UNL d   1      25.396 -15.417  -0.127  0.00  0.00    -0.266 OA
ATOM      8  H   UNL d   1      24.391 -15.922  -3.144  0.00  0.00     0.190 HD
BRANCH   6   9
ATOM      9  C   UNL d   1      23.853 -17.086  -0.791  0.00  0.00     0.036 A 
ATOM     10  C   UNL d   1      24.377 -18.372  -0.590  0.00  0.00     0.017 A 
ATOM     11  C   UNL d   1      23.528 -19.484  -0.523  0.00  0.00     0.004 A 
ATOM     12  C   UNL d   1      22.144 -19.315  -0.593  0.00  0.00     0.036 A 
ATOM     13  C   UNL d   1      21.626 -18.036  -0.772  0.00  0.00     0.066 A 
ATOM     14  C   UNL d   1      22.465 -16.921  -0.871  0.00  0.00     0.053 A 
BRANCH  13  15
ATOM     15  O   UNL d   1      20.283 -17.828  -0.896  0.00  0.00    -0.361 OA
ATOM     16  H   UNL d   1      20.071 -17.633  -1.824  0.00  0.00     0.217 HD
ENDBRANCH  13  15
ENDBRANCH   6   9
ENDBRANCH   3   5
BRANCH   1  17
ATOM     17  C   UNL d   1      26.834 -13.044  -4.502  0.00  0.00     0.143 C 
BRANCH  17  18
ATOM     18  C   UNL d   1      26.238 -11.639  -4.688  0.00  0.00    -0.049 A 
ATOM     19  C   UNL d   1      25.915 -11.145  -5.964  0.00  0.00     0.010 A 
ATOM     20  C   UNL d   1      25.519  -9.802  -6.138  0.00  0.00     0.037 A 
ATOM     21  C   UNL d   1      25.385  -8.947  -5.044  0.00  0.00     0.068 A 
ATOM     22  C   UNL d   1      25.618  -9.443  -3.777  0.00  0.00     0.037 A 
ATOM     23  C   UNL d   1      26.027 -10.764  -3.614  0.00  0.00     0.010 A 
BRANCH  21  24
ATOM     24  O   UNL d   1      24.925  -7.682  -5.278  0.00  0.00    -0.356 OA
ATOM     25  C   UNL d   1      23.647  -7.628  -5.911  0.00  0.00     0.210 C 
ENDBRANCH  21  24
ENDBRANCH  17  18
ENDBRANCH   1  17
TORSDOF 6
ENDMDL
MODEL 9
REMARK VINA RESULT:    -6.871      3.658     10.022
REMARK INTER + INTRA:         -10.198
REMARK INTER:                  -8.661
REMARK INTRA:                  -1.537
REMARK CONF_INDEPENDENT:        1.790
REMARK UNBOUND:                -1.537
REMARK  6 active torsions:
REMARK  status: ('A' for Active; 'I' for Inactive)
REMARK    1  A    between atoms: O_2  and  C_3 
REMARK    2  A    between atoms: C_6  and  C_7 
REMARK    3  A    between atoms: C_7  and  C_8 
REMARK       I    between atoms: C_8  and  N_10 
REMARK    4  A    between atoms: N_10  and  N_11 
REMARK       I    between atoms: N_11  and  C_12 
REMARK    5  A    between atoms: C_12  and  C_14 
REMARK    6  A    between atoms: C_18  and  O_19 
ROOT
ATOM      1  C   UNL d   1      25.531 -14.522  -3.178  0.00  0.00     0.240 C 
ATOM      2  O   UNL d   1      24.813 -14.519  -4.183  0.00  0.00    -0.272 OA
ATOM      3  N   UNL d   1      25.970 -13.288  -2.743  0.00  0.00    -0.267 N 
ATOM      4  H   UNL d   1      26.594 -13.098  -1.965  0.00  0.00     0.190 HD
ENDROOT
BRANCH   3   5
ATOM      5  N   UNL d   1      25.493 -12.176  -3.498  0.00  0.00    -0.263 N 
ATOM      6  C   UNL d   1      26.115 -10.955  -3.419  0.00  0.00     0.270 C 
ATOM      7  O   UNL d   1      27.103 -10.759  -2.706  0.00  0.00    -0.266 OA
ATOM      8  H   UNL d   1      24.732 -12.391  -4.150  0.00  0.00     0.190 HD
BRANCH   6   9
ATOM      9  C   UNL d   1      25.546  -9.839  -4.234  0.00  0.00     0.036 A 
ATOM     10  C   UNL d   1      25.531  -9.957  -5.632  0.00  0.00     0.017 A 
ATOM     11  C   UNL d   1      25.181  -8.863  -6.434  0.00  0.00     0.004 A 
ATOM     12  C   UNL d   1      24.783  -7.661  -5.848  0.00  0.00     0.036 A 
ATOM     13  C   UNL d   1      24.780  -7.553  -4.460  0.00  0.00     0.066 A 
ATOM     14  C   UNL d   1      25.156  -8.628  -3.648  0.00  0.00     0.053 A 
BRANCH  13  15
ATOM     15  O   UNL d   1      24.446  -6.383  -3.843  0.00  0.00    -0.361 OA
ATOM     16  H   UNL d   1      23.797  -6.563  -3.142  0.00  0.00     0.217 HD
ENDBRANCH  13  15
ENDBRANCH   6   9
ENDBRANCH   3   5
BRANCH   1  17
ATOM     17  C   UNL d   1      25.968 -15.781  -2.388  0.00  0.00     0.143 C 
BRANCH  17  18
ATOM     18  C   UNL d   1      24.897 -16.473  -1.531  0.00  0.00    -0.049 A 
ATOM     19  C   UNL d   1      25.151 -17.702  -0.894  0.00  0.00     0.010 A 
ATOM     20  C   UNL d   1      24.115 -18.404  -0.244  0.00  0.00     0.037 A 
ATOM     21  C   UNL d   1      22.827 -17.873  -0.166  0.00  0.00     0.068 A 
ATOM     22  C   UNL d   1      22.584 -16.630  -0.714  0.00  0.00     0.037 A 
ATOM     23  C   UNL d   1      23.606 -15.950  -1.371  0.00  0.00     0.010 A 
BRANCH  21  24
ATOM     24  O   UNL d   1      21.893 -18.572   0.544  0.00  0.00    -0.356 OA
ATOM     25  C   UNL d   1      20.948 -19.278  -0.259  0.00  0.00     0.210 C 
ENDBRANCH  21  24
ENDBRANCH  17  18
ENDBRANCH   1  17
TORSDOF 6
ENDMDL
