MODEL 1
REMARK VINA RESULT:    -7.181      0.000      0.000
REMARK INTER + INTRA:         -10.801
REMARK INTER:                 -10.164
REMARK INTRA:                  -0.636
REMARK CONF_INDEPENDENT:        2.983
REMARK UNBOUND:                -0.636
REMARK  10 active torsions:
REMARK  status: ('A' for Active; 'I' for Inactive)
REMARK       I    between atoms: C_2  and  N_3 
REMARK       I    between atoms: C_2  and  N_14 
REMARK    1  A    between atoms: N_3  and  C_4 
REMARK    2  A    between atoms: C_4  and  C_5 
REMARK    3  A    between atoms: C_5  and  C_6 
REMARK    4  A    between atoms: C_6  and  O_7 
REMARK    5  A    between atoms: O_7  and  C_8 
REMARK    6  A    between atoms: C_8  and  C_9 
REMARK    7  A    between atoms: N_14  and  N_15 
REMARK    8  A    between atoms: N_15  and  C_16 
REMARK    9  A    between atoms: C_19  and  O_20 
REMARK   10  A    between atoms: O_20  and  C_21 
ROOT
ATOM      1  O   UNL d   1      26.357 -14.627  -0.144  0.00  0.00    -0.246 OA
ATOM      2  C   UNL d   1      27.124 -15.004   0.745  0.00  0.00     0.330 C 
ATOM      3  N   UNL d   1      27.675 -16.260   0.758  0.00  0.00    -0.342 N 
ATOM      4  N   UNL d   1      27.419 -14.171   1.814  0.00  0.00    -0.269 N 
ATOM      5  H   UNL d   1      28.318 -16.508   1.487  0.00  0.00     0.164 HD
ATOM      6  H   UNL d   1      27.135 -13.207   1.648  0.00  0.00     0.185 HD
ENDROOT
BRANCH   4   7
ATOM      7  N   UNL d   1      28.603 -14.315   2.563  0.00  0.00    -0.202 NA
ATOM      8  H   UNL d   1      29.057 -15.215   2.426  0.00  0.00     0.153 HD
BRANCH   7   9
ATOM      9  C   UNL d   1      28.541 -14.056   3.964  0.00  0.00     0.028 A 
ATOM     10  C   UNL d   1      27.936 -12.848   4.343  0.00  0.00     0.028 A 
ATOM     11  C   UNL d   1      27.866 -12.438   5.682  0.00  0.00     0.039 A 
ATOM     12  C   UNL d   1      28.342 -13.261   6.701  0.00  0.00     0.078 A 
ATOM     13  C   UNL d   1      28.948 -14.468   6.344  0.00  0.00     0.039 A 
ATOM     14  C   UNL d   1      29.047 -14.863   4.990  0.00  0.00     0.028 A 
BRANCH  12  15
ATOM     15  O   UNL d   1      28.146 -12.789   7.970  0.00  0.00    -0.255 OA
BRANCH  15  16
ATOM     16  C   UNL d   1      29.201 -12.052   8.570  0.00  0.00     0.530 C 
ATOM     17  F   UNL d   1      28.759 -11.314   9.610  0.00  0.00    -0.144 F 
ATOM     18  F   UNL d   1      30.183 -12.880   8.990  0.00  0.00    -0.144 F 
ATOM     19  F   UNL d   1      29.729 -11.207   7.656  0.00  0.00    -0.144 F 
ENDBRANCH  15  16
ENDBRANCH  12  15
ENDBRANCH   7   9
ENDBRANCH   4   7
BRANCH   3  20
ATOM     20  C   UNL d   1      27.342 -17.255  -0.255  0.00  0.00     0.126 C 
BRANCH  20  21
ATOM     21  C   UNL d   1      26.070 -18.042   0.066  0.00  0.00     0.046 C 
BRANCH  21  22
ATOM     22  C   UNL d   1      24.898 -17.577  -0.798  0.00  0.00     0.169 C 
BRANCH  22  23
ATOM     23  O   UNL d   1      23.673 -17.769  -0.086  0.00  0.00    -0.389 OA
BRANCH  23  24
ATOM     24  C   UNL d   1      22.730 -18.518  -0.873  0.00  0.00     0.199 C 
BRANCH  24  25
ATOM     25  C   UNL d   1      21.380 -18.586  -0.147  0.00  0.00     0.145 C 
ATOM     26  C   UNL d   1      21.041 -19.983   0.354  0.00  0.00     0.036 C 
ATOM     27  C   UNL d   1      19.535 -19.999   0.309  0.00  0.00     0.029 C 
ATOM     28  C   UNL d   1      19.230 -19.144  -0.899  0.00  0.00     0.168 C 
ATOM     29  O   UNL d   1      20.312 -18.215  -1.047  0.00  0.00    -0.384 OA
ENDBRANCH  24  25
ENDBRANCH  23  24
ENDBRANCH  22  23
ENDBRANCH  21  22
ENDBRANCH  20  21
ENDBRANCH   3  20
TORSDOF 10
ENDMDL
MODEL 2
REMARK VINA RESULT:    -6.779      2.492      3.504
REMARK INTER + INTRA:         -10.458
REMARK INTER:                  -9.762
REMARK INTRA:                  -0.697
REMARK CONF_INDEPENDENT:        2.983
REMARK UNBOUND:                -0.697
REMARK  10 active torsions:
REMARK  status: ('A' for Active; 'I' for Inactive)
REMARK       I    between atoms: C_2  and  N_3 
REMARK       I    between atoms: C_2  and  N_14 
REMARK    1  A    between atoms: N_3  and  C_4 
REMARK    2  A    between atoms: C_4  and  C_5 
REMARK    3  A    between atoms: C_5  and  C_6 
REMARK    4  A    between atoms: C_6  and  O_7 
REMARK    5  A    between atoms: O_7  and  C_8 
REMARK    6  A    between atoms: C_8  and  C_9 
REMARK    7  A    between atoms: N_14  and  N_15 
REMARK    8  A    between atoms: N_15  and  C_16 
REMARK    9  A    between atoms: C_19  and  O_20 
REMARK   10  A    between atoms: O_20  and  C_21 
ROOT
ATOM      1  O   UNL d   1      24.919 -14.816  -3.357  0.00  0.00    -0.246 OA
ATOM      2  C   UNL d   1      25.559 -15.048  -2.328  0.00  0.00     0.330 C 
ATOM      3  N   UNL d   1      25.114 -15.916  -1.364  0.00  0.00    -0.342 N 
ATOM      4  N   UNL d   1      26.752 -14.383  -2.081  0.00  0.00    -0.269 N 
ATOM      5  H   UNL d   1      25.686 -16.095  -0.560  0.00  0.00     0.164 HD
ATOM      6  H   UNL d   1      27.111 -13.907  -2.906  0.00  0.00     0.185 HD
ENDROOT
BRANCH   4   7
ATOM      7  N   UNL d   1      27.740 -14.921  -1.234  0.00  0.00    -0.202 NA
ATOM      8  H   UNL d   1      27.790 -15.937  -1.271  0.00  0.00     0.153 HD
BRANCH   7   9
ATOM      9  C   UNL d   1      27.731 -14.525   0.136  0.00  0.00     0.028 A 
ATOM     10  C   UNL d   1      26.744 -13.600   0.506  0.00  0.00     0.028 A 
ATOM     11  C   UNL d   1      26.662 -13.078   1.804  0.00  0.00     0.039 A 
ATOM     12  C   UNL d   1      27.530 -13.518   2.802  0.00  0.00     0.078 A 
ATOM     13  C   UNL d   1      28.520 -14.440   2.454  0.00  0.00     0.039 A 
ATOM     14  C   UNL d   1      28.621 -14.939   1.134  0.00  0.00     0.028 A 
BRANCH  12  15
ATOM     15  O   UNL d   1      27.300 -12.996   4.045  0.00  0.00    -0.255 OA
BRANCH  15  16
ATOM     16  C   UNL d   1      27.823 -13.701   5.162  0.00  0.00     0.530 C 
ATOM     17  F   UNL d   1      27.410 -14.986   5.174  0.00  0.00    -0.144 F 
ATOM     18  F   UNL d   1      29.174 -13.662   5.162  0.00  0.00    -0.144 F 
ATOM     19  F   UNL d   1      27.389 -13.114   6.300  0.00  0.00    -0.144 F 
ENDBRANCH  15  16
ENDBRANCH  12  15
ENDBRANCH   7   9
ENDBRANCH   4   7
BRANCH   3  20
ATOM     20  C   UNL d   1      23.820 -16.581  -1.469  0.00  0.00     0.126 C 
BRANCH  20  21
ATOM     21  C   UNL d   1      23.809 -17.982  -0.854  0.00  0.00     0.046 C 
BRANCH  21  22
ATOM     22  C   UNL d   1      22.530 -18.228  -0.056  0.00  0.00     0.169 C 
BRANCH  22  23
ATOM     23  O   UNL d   1      21.394 -18.032  -0.901  0.00  0.00    -0.389 OA
BRANCH  23  24
ATOM     24  C   UNL d   1      20.679 -19.265  -1.100  0.00  0.00     0.199 C 
BRANCH  24  25
ATOM     25  C   UNL d   1      19.519 -19.364  -0.100  0.00  0.00     0.145 C 
ATOM     26  C   UNL d   1      19.971 -19.744   1.304  0.00  0.00     0.036 C 
ATOM     27  C   UNL d   1      18.780 -20.488   1.849  0.00  0.00     0.029 C 
ATOM     28  C   UNL d   1      18.237 -21.188   0.626  0.00  0.00     0.168 C 
ATOM     29  O   UNL d   1      18.593 -20.393  -0.512  0.00  0.00    -0.384 OA
ENDBRANCH  24  25
ENDBRANCH  23  24
ENDBRANCH  22  23
ENDBRANCH  21  22
ENDBRANCH  20  21
ENDBRANCH   3  20
TORSDOF 10
ENDMDL
MODEL 3
REMARK VINA RESULT:    -6.682      6.375      8.427
REMARK INTER + INTRA:         -11.064
REMARK INTER:                  -9.665
REMARK INTRA:                  -1.399
REMARK CONF_INDEPENDENT:        2.983
REMARK UNBOUND:                -1.399
REMARK  10 active torsions:
REMARK  status: ('A' for Active; 'I' for Inactive)
REMARK       I    between atoms: C_2  and  N_3 
REMARK       I    between atoms: C_2  and  N_14 
REMARK    1  A    between atoms: N_3  and  C_4 
REMARK    2  A    between atoms: C_4  and  C_5 
REMARK    3  A    between atoms: C_5  and  C_6 
REMARK    4  A    between atoms: C_6  and  O_7 
REMARK    5  A    between atoms: O_7  and  C_8 
REMARK    6  A    between atoms: C_8  and  C_9 
REMARK    7  A    between atoms: N_14  and  N_15 
REMARK    8  A    between atoms: N_15  and  C_16 
REMARK    9  A    between atoms: C_19  and  O_20 
REMARK   10  A    between atoms: O_20  and  C_21 
ROOT
ATOM      1  O   UNL d   1      30.934 -18.288  -2.305  0.00  0.00    -0.246 OA
ATOM      2  C   UNL d   1      30.333 -17.342  -1.789  0.00  0.00     0.330 C 
ATOM      3  N   UNL d   1      30.094 -16.169  -2.458  0.00  0.00    -0.342 N 
ATOM      4  N   UNL d   1      29.918 -17.415  -0.467  0.00  0.00    -0.269 N 
ATOM      5  H   UNL d   1      29.573 -15.441  -2.005  0.00  0.00     0.164 HD
ATOM      6  H   UNL d   1      29.957 -18.363  -0.097  0.00  0.00     0.185 HD
ENDROOT
BRANCH   4   7
ATOM      7  N   UNL d   1      28.849 -16.637   0.019  0.00  0.00    -0.202 NA
ATOM      8  H   UNL d   1      28.941 -16.401   1.004  0.00  0.00     0.153 HD
BRANCH   7   9
ATOM      9  C   UNL d   1      27.523 -17.113  -0.204  0.00  0.00     0.028 A 
ATOM     10  C   UNL d   1      26.796 -16.466  -1.215  0.00  0.00     0.028 A 
ATOM     11  C   UNL d   1      25.462 -16.790  -1.496  0.00  0.00     0.039 A 
ATOM     12  C   UNL d   1      24.825 -17.825  -0.815  0.00  0.00     0.078 A 
ATOM     13  C   UNL d   1      25.532 -18.482   0.195  0.00  0.00     0.039 A 
ATOM     14  C   UNL d   1      26.868 -18.131   0.499  0.00  0.00     0.028 A 
BRANCH  12  15
ATOM     15  O   UNL d   1      23.551 -18.100  -1.232  0.00  0.00    -0.255 OA
BRANCH  15  16
ATOM     16  C   UNL d   1      22.480 -17.499  -0.519  0.00  0.00     0.530 C 
ATOM     17  F   UNL d   1      22.774 -16.231  -0.162  0.00  0.00    -0.144 F 
ATOM     18  F   UNL d   1      21.349 -17.508  -1.258  0.00  0.00    -0.144 F 
ATOM     19  F   UNL d   1      22.247 -18.205   0.611  0.00  0.00    -0.144 F 
ENDBRANCH  15  16
ENDBRANCH  12  15
ENDBRANCH   7   9
ENDBRANCH   4   7
BRANCH   3  20
ATOM     20  C   UNL d   1      30.588 -15.943  -3.811  0.00  0.00     0.126 C 
BRANCH  20  21
ATOM     21  C   UNL d   1      29.792 -16.697  -4.878  0.00  0.00     0.046 C 
BRANCH  21  22
ATOM     22  C   UNL d   1      29.444 -15.788  -6.057  0.00  0.00     0.169 C 
BRANCH  22  23
ATOM     23  O   UNL d   1      28.036 -15.544  -6.073  0.00  0.00    -0.389 OA
BRANCH  23  24
ATOM     24  C   UNL d   1      27.537 -15.307  -4.745  0.00  0.00     0.199 C 
BRANCH  24  25
ATOM     25  C   UNL d   1      26.359 -14.325  -4.795  0.00  0.00     0.145 C 
ATOM     26  C   UNL d   1      26.563 -13.100  -3.914  0.00  0.00     0.036 C 
ATOM     27  C   UNL d   1      25.156 -12.730  -3.523  0.00  0.00     0.029 C 
ATOM     28  C   UNL d   1      24.476 -14.075  -3.421  0.00  0.00     0.168 C 
ATOM     29  O   UNL d   1      25.156 -14.965  -4.314  0.00  0.00    -0.384 OA
ENDBRANCH  24  25
ENDBRANCH  23  24
ENDBRANCH  22  23
ENDBRANCH  21  22
ENDBRANCH  20  21
ENDBRANCH   3  20
TORSDOF 10
ENDMDL
MODEL 4
REMARK VINA RESULT:    -5.504      6.556      9.386
REMARK INTER + INTRA:         -10.621
REMARK INTER:                  -8.487
REMARK INTRA:                  -2.134
REMARK CONF_INDEPENDENT:        2.983
REMARK UNBOUND:                -2.134
REMARK  10 active torsions:
REMARK  status: ('A' for Active; 'I' for Inactive)
REMARK       I    between atoms: C_2  and  N_3 
REMARK       I    between atoms: C_2  and  N_14 
REMARK    1  A    between atoms: N_3  and  C_4 
REMARK    2  A    between atoms: C_4  and  C_5 
REMARK    3  A    between atoms: C_5  and  C_6 
REMARK    4  A    between atoms: C_6  and  O_7 
REMARK    5  A    between atoms: O_7  and  C_8 
REMARK    6  A    between atoms: C_8  and  C_9 
REMARK    7  A    between atoms: N_14  and  N_15 
REMARK    8  A    between atoms: N_15  and  C_16 
REMARK    9  A    between atoms: C_19  and  O_20 
REMARK   10  A    between atoms: O_20  and  C_21 
ROOT
ATOM      1  O   UNL d   1      26.654 -13.366  -0.900  0.00  0.00    -0.246 OA
ATOM      2  C   UNL d   1      26.121 -14.450  -1.149  0.00  0.00     0.330 C 
ATOM      3  N   UNL d   1      25.427 -14.679  -2.310  0.00  0.00    -0.342 N 
ATOM      4  N   UNL d   1      26.161 -15.480  -0.220  0.00  0.00    -0.269 N 
ATOM      5  H   UNL d   1      25.039 -15.588  -2.480  0.00  0.00     0.164 HD
ATOM      6  H   UNL d   1      26.839 -15.311   0.520  0.00  0.00     0.185 HD
ENDROOT
BRANCH   4   7
ATOM      7  N   UNL d   1      26.029 -16.829  -0.601  0.00  0.00    -0.202 NA
ATOM      8  H   UNL d   1      26.500 -17.046  -1.477  0.00  0.00     0.153 HD
BRANCH   7   9
ATOM      9  C   UNL d   1      24.715 -17.381  -0.653  0.00  0.00     0.028 A 
ATOM     10  C   UNL d   1      23.665 -16.466  -0.818  0.00  0.00     0.028 A 
ATOM     11  C   UNL d   1      22.322 -16.865  -0.821  0.00  0.00     0.039 A 
ATOM     12  C   UNL d   1      21.983 -18.214  -0.727  0.00  0.00     0.078 A 
ATOM     13  C   UNL d   1      23.014 -19.142  -0.563  0.00  0.00     0.039 A 
ATOM     14  C   UNL d   1      24.368 -18.731  -0.526  0.00  0.00     0.028 A 
BRANCH  12  15
ATOM     15  O   UNL d   1      20.646 -18.486  -0.822  0.00  0.00    -0.255 OA
BRANCH  15  16
ATOM     16  C   UNL d   1      20.098 -19.425   0.092  0.00  0.00     0.530 C 
ATOM     17  F   UNL d   1      19.873 -20.618  -0.499  0.00  0.00    -0.144 F 
ATOM     18  F   UNL d   1      20.919 -19.596   1.152  0.00  0.00    -0.144 F 
ATOM     19  F   UNL d   1      18.915 -18.959   0.551  0.00  0.00    -0.144 F 
ENDBRANCH  15  16
ENDBRANCH  12  15
ENDBRANCH   7   9
ENDBRANCH   4   7
BRANCH   3  20
ATOM     20  C   UNL d   1      25.225 -13.630  -3.303  0.00  0.00     0.126 C 
BRANCH  20  21
ATOM     21  C   UNL d   1      25.744 -14.007  -4.692  0.00  0.00     0.046 C 
BRANCH  21  22
ATOM     22  C   UNL d   1      27.259 -14.204  -4.684  0.00  0.00     0.169 C 
BRANCH  22  23
ATOM     23  O   UNL d   1      27.568 -15.555  -5.036  0.00  0.00    -0.389 OA
BRANCH  23  24
ATOM     24  C   UNL d   1      28.850 -15.945  -4.511  0.00  0.00     0.199 C 
BRANCH  24  25
ATOM     25  C   UNL d   1      28.910 -15.656  -3.006  0.00  0.00     0.145 C 
ATOM     26  C   UNL d   1      30.331 -15.614  -2.461  0.00  0.00     0.036 C 
ATOM     27  C   UNL d   1      30.157 -16.073  -1.037  0.00  0.00     0.029 C 
ATOM     28  C   UNL d   1      29.036 -17.079  -1.147  0.00  0.00     0.168 C 
ATOM     29  O   UNL d   1      28.232 -16.699  -2.271  0.00  0.00    -0.384 OA
ENDBRANCH  24  25
ENDBRANCH  23  24
ENDBRANCH  22  23
ENDBRANCH  21  22
ENDBRANCH  20  21
ENDBRANCH   3  20
TORSDOF 10
ENDMDL
MODEL 5
REMARK VINA RESULT:    -5.386      6.850      8.998
REMARK INTER + INTRA:         -11.535
REMARK INTER:                  -8.369
REMARK INTRA:                  -3.166
REMARK CONF_INDEPENDENT:        2.983
REMARK UNBOUND:                -3.166
REMARK  10 active torsions:
REMARK  status: ('A' for Active; 'I' for Inactive)
REMARK       I    between atoms: C_2  and  N_3 
REMARK       I    between atoms: C_2  and  N_14 
REMARK    1  A    between atoms: N_3  and  C_4 
REMARK    2  A    between atoms: C_4  and  C_5 
REMARK    3  A    between atoms: C_5  and  C_6 
REMARK    4  A    between atoms: C_6  and  O_7 
REMARK    5  A    between atoms: O_7  and  C_8 
REMARK    6  A    between atoms: C_8  and  C_9 
REMARK    7  A    between atoms: N_14  and  N_15 
REMARK    8  A    between atoms: N_15  and  C_16 
REMARK    9  A    between atoms: C_19  and  O_20 
REMARK   10  A    between atoms: O_20  and  C_21 
ROOT
ATOM      1  O   UNL d   1      30.531 -17.403  -3.204  0.00  0.00    -0.246 OA
ATOM      2  C   UNL d   1      29.643 -16.559  -3.059  0.00  0.00     0.330 C 
ATOM      3  N   UNL d   1      29.419 -15.561  -3.973  0.00  0.00    -0.342 N 
ATOM      4  N   UNL d   1      28.860 -16.557  -1.914  0.00  0.00    -0.269 N 
ATOM      5  H   UNL d   1      28.664 -14.918  -3.825  0.00  0.00     0.164 HD
ATOM      6  H   UNL d   1      28.949 -17.419  -1.378  0.00  0.00     0.185 HD
ENDROOT
BRANCH   4   7
ATOM      7  N   UNL d   1      27.574 -15.984  -1.895  0.00  0.00    -0.202 NA
ATOM      8  H   UNL d   1      27.566 -15.027  -1.549  0.00  0.00     0.153 HD
BRANCH   7   9
ATOM      9  C   UNL d   1      26.533 -16.703  -1.238  0.00  0.00     0.028 A 
ATOM     10  C   UNL d   1      25.232 -16.483  -1.715  0.00  0.00     0.028 A 
ATOM     11  C   UNL d   1      24.109 -17.075  -1.120  0.00  0.00     0.039 A 
ATOM     12  C   UNL d   1      24.257 -17.969  -0.062  0.00  0.00     0.078 A 
ATOM     13  C   UNL d   1      25.544 -18.203   0.428  0.00  0.00     0.039 A 
ATOM     14  C   UNL d   1      26.672 -17.577  -0.153  0.00  0.00     0.028 A 
BRANCH  12  15
ATOM     15  O   UNL d   1      23.097 -18.543   0.382  0.00  0.00    -0.255 OA
BRANCH  15  16
ATOM     16  C   UNL d   1      22.093 -18.828  -0.581  0.00  0.00     0.530 C 
ATOM     17  F   UNL d   1      22.625 -19.326  -1.718  0.00  0.00    -0.144 F 
ATOM     18  F   UNL d   1      21.191 -19.704  -0.086  0.00  0.00    -0.144 F 
ATOM     19  F   UNL d   1      21.440 -17.686  -0.893  0.00  0.00    -0.144 F 
ENDBRANCH  15  16
ENDBRANCH  12  15
ENDBRANCH   7   9
ENDBRANCH   4   7
BRANCH   3  20
ATOM     20  C   UNL d   1      30.258 -15.401  -5.155  0.00  0.00     0.126 C 
BRANCH  20  21
ATOM     21  C   UNL d   1      29.458 -15.129  -6.431  0.00  0.00     0.046 C 
BRANCH  21  22
ATOM     22  C   UNL d   1      28.065 -14.591  -6.108  0.00  0.00     0.169 C 
BRANCH  22  23
ATOM     23  O   UNL d   1      27.330 -15.575  -5.376  0.00  0.00    -0.389 OA
BRANCH  23  24
ATOM     24  C   UNL d   1      25.956 -15.182  -5.217  0.00  0.00     0.199 C 
BRANCH  24  25
ATOM     25  C   UNL d   1      25.837 -14.130  -4.106  0.00  0.00     0.145 C 
ATOM     26  C   UNL d   1      25.528 -12.735  -4.633  0.00  0.00     0.036 C 
ATOM     27  C   UNL d   1      26.178 -11.839  -3.612  0.00  0.00     0.029 C 
ATOM     28  C   UNL d   1      27.398 -12.630  -3.204  0.00  0.00     0.168 C 
ATOM     29  O   UNL d   1      27.089 -14.017  -3.392  0.00  0.00    -0.384 OA
ENDBRANCH  24  25
ENDBRANCH  23  24
ENDBRANCH  22  23
ENDBRANCH  21  22
ENDBRANCH  20  21
ENDBRANCH   3  20
TORSDOF 10
ENDMDL
MODEL 6
REMARK VINA RESULT:    -5.328      6.033      8.874
REMARK INTER + INTRA:         -11.898
REMARK INTER:                  -8.311
REMARK INTRA:                  -3.587
REMARK CONF_INDEPENDENT:        2.983
REMARK UNBOUND:                -3.587
REMARK  10 active torsions:
REMARK  status: ('A' for Active; 'I' for Inactive)
REMARK       I    between atoms: C_2  and  N_3 
REMARK       I    between atoms: C_2  and  N_14 
REMARK    1  A    between atoms: N_3  and  C_4 
REMARK    2  A    between atoms: C_4  and  C_5 
REMARK    3  A    between atoms: C_5  and  C_6 
REMARK    4  A    between atoms: C_6  and  O_7 
REMARK    5  A    between atoms: O_7  and  C_8 
REMARK    6  A    between atoms: C_8  and  C_9 
REMARK    7  A    between atoms: N_14  and  N_15 
REMARK    8  A    between atoms: N_15  and  C_16 
REMARK    9  A    between atoms: C_19  and  O_20 
REMARK   10  A    between atoms: O_20  and  C_21 
ROOT
ATOM      1  O   UNL d   1      27.030 -12.126   0.003  0.00  0.00    -0.246 OA
ATOM      2  C   UNL d   1      26.835 -13.207  -0.559  0.00  0.00     0.330 C 
ATOM      3  N   UNL d   1      26.492 -13.296  -1.884  0.00  0.00    -0.342 N 
ATOM      4  N   UNL d   1      26.903 -14.391   0.160  0.00  0.00    -0.269 N 
ATOM      5  H   UNL d   1      26.375 -14.200  -2.303  0.00  0.00     0.164 HD
ATOM      6  H   UNL d   1      27.339 -14.270   1.072  0.00  0.00     0.185 HD
ENDROOT
BRANCH   4   7
ATOM      7  N   UNL d   1      27.178 -15.623  -0.464  0.00  0.00    -0.202 NA
ATOM      8  H   UNL d   1      27.589 -15.521  -1.389  0.00  0.00     0.153 HD
BRANCH   7   9
ATOM      9  C   UNL d   1      26.122 -16.578  -0.548  0.00  0.00     0.028 A 
ATOM     10  C   UNL d   1      25.126 -16.315  -1.500  0.00  0.00     0.028 A 
ATOM     11  C   UNL d   1      23.999 -17.136  -1.645  0.00  0.00     0.039 A 
ATOM     12  C   UNL d   1      23.863 -18.295  -0.883  0.00  0.00     0.078 A 
ATOM     13  C   UNL d   1      24.846 -18.575   0.070  0.00  0.00     0.039 A 
ATOM     14  C   UNL d   1      25.965 -17.726   0.237  0.00  0.00     0.028 A 
BRANCH  12  15
ATOM     15  O   UNL d   1      22.764 -19.056  -1.170  0.00  0.00    -0.255 OA
BRANCH  15  16
ATOM     16  C   UNL d   1      21.600 -18.856  -0.381  0.00  0.00     0.530 C 
ATOM     17  F   UNL d   1      20.864 -19.985  -0.290  0.00  0.00    -0.144 F 
ATOM     18  F   UNL d   1      21.930 -18.433   0.859  0.00  0.00    -0.144 F 
ATOM     19  F   UNL d   1      20.830 -17.905  -0.957  0.00  0.00    -0.144 F 
ENDBRANCH  15  16
ENDBRANCH  12  15
ENDBRANCH   7   9
ENDBRANCH   4   7
BRANCH   3  20
ATOM     20  C   UNL d   1      26.281 -12.109  -2.704  0.00  0.00     0.126 C 
BRANCH  20  21
ATOM     21  C   UNL d   1      25.956 -12.433  -4.164  0.00  0.00     0.046 C 
BRANCH  21  22
ATOM     22  C   UNL d   1      24.752 -13.368  -4.269  0.00  0.00     0.169 C 
BRANCH  22  23
ATOM     23  O   UNL d   1      25.156 -14.705  -3.963  0.00  0.00    -0.389 OA
BRANCH  23  24
ATOM     24  C   UNL d   1      26.086 -15.201  -4.941  0.00  0.00     0.199 C 
BRANCH  24  25
ATOM     25  C   UNL d   1      27.525 -14.977  -4.456  0.00  0.00     0.145 C 
ATOM     26  C   UNL d   1      28.571 -15.564  -5.395  0.00  0.00     0.036 C 
ATOM     27  C   UNL d   1      29.701 -15.912  -4.461  0.00  0.00     0.029 C 
ATOM     28  C   UNL d   1      28.976 -16.326  -3.202  0.00  0.00     0.168 C 
ATOM     29  O   UNL d   1      27.726 -15.625  -3.180  0.00  0.00    -0.384 OA
ENDBRANCH  24  25
ENDBRANCH  23  24
ENDBRANCH  22  23
ENDBRANCH  21  22
ENDBRANCH  20  21
ENDBRANCH   3  20
TORSDOF 10
ENDMDL
MODEL 7
REMARK VINA RESULT:    -5.156      6.621      8.882
REMARK INTER + INTRA:         -10.889
REMARK INTER:                  -8.139
REMARK INTRA:                  -2.750
REMARK CONF_INDEPENDENT:        2.983
REMARK UNBOUND:                -2.750
REMARK  10 active torsions:
REMARK  status: ('A' for Active; 'I' for Inactive)
REMARK       I    between atoms: C_2  and  N_3 
REMARK       I    between atoms: C_2  and  N_14 
REMARK    1  A    between atoms: N_3  and  C_4 
REMARK    2  A    between atoms: C_4  and  C_5 
REMARK    3  A    between atoms: C_5  and  C_6 
REMARK    4  A    between atoms: C_6  and  O_7 
REMARK    5  A    between atoms: O_7  and  C_8 
REMARK    6  A    between atoms: C_8  and  C_9 
REMARK    7  A    between atoms: N_14  and  N_15 
REMARK    8  A    between atoms: N_15  and  C_16 
REMARK    9  A    between atoms: C_19  and  O_20 
REMARK   10  A    between atoms: O_20  and  C_21 
ROOT
ATOM      1  O   UNL d   1      30.031 -14.716  -0.548  0.00  0.00    -0.246 OA
ATOM      2  C   UNL d   1      29.111 -15.389  -1.021  0.00  0.00     0.330 C 
ATOM      3  N   UNL d   1      28.718 -15.281  -2.331  0.00  0.00    -0.342 N 
ATOM      4  N   UNL d   1      28.393 -16.258  -0.212  0.00  0.00    -0.269 N 
ATOM      5  H   UNL d   1      27.985 -15.873  -2.675  0.00  0.00     0.164 HD
ATOM      6  H   UNL d   1      28.850 -16.427   0.681  0.00  0.00     0.185 HD
ENDROOT
BRANCH   4   7
ATOM      7  N   UNL d   1      27.706 -17.367  -0.741  0.00  0.00    -0.202 NA
ATOM      8  H   UNL d   1      28.011 -17.617  -1.680  0.00  0.00     0.153 HD
BRANCH   7   9
ATOM      9  C   UNL d   1      26.281 -17.337  -0.729  0.00  0.00     0.028 A 
ATOM     10  C   UNL d   1      25.655 -18.089   0.276  0.00  0.00     0.028 A 
ATOM     11  C   UNL d   1      24.260 -18.200   0.366  0.00  0.00     0.039 A 
ATOM     12  C   UNL d   1      23.436 -17.500  -0.514  0.00  0.00     0.078 A 
ATOM     13  C   UNL d   1      24.040 -16.744  -1.522  0.00  0.00     0.039 A 
ATOM     14  C   UNL d   1      25.448 -16.663  -1.630  0.00  0.00     0.028 A 
BRANCH  12  15
ATOM     15  O   UNL d   1      22.095 -17.623  -0.277  0.00  0.00    -0.255 OA
BRANCH  15  16
ATOM     16  C   UNL d   1      21.435 -18.765  -0.804  0.00  0.00     0.530 C 
ATOM     17  F   UNL d   1      20.206 -18.455  -1.270  0.00  0.00    -0.144 F 
ATOM     18  F   UNL d   1      22.164 -19.325  -1.794  0.00  0.00    -0.144 F 
ATOM     19  F   UNL d   1      21.286 -19.684   0.177  0.00  0.00    -0.144 F 
ENDBRANCH  15  16
ENDBRANCH  12  15
ENDBRANCH   7   9
ENDBRANCH   4   7
BRANCH   3  20
ATOM     20  C   UNL d   1      29.328 -14.316  -3.238  0.00  0.00     0.126 C 
BRANCH  20  21
ATOM     21  C   UNL d   1      29.874 -14.952  -4.517  0.00  0.00     0.046 C 
BRANCH  21  22
ATOM     22  C   UNL d   1      28.754 -15.241  -5.515  0.00  0.00     0.169 C 
BRANCH  22  23
ATOM     23  O   UNL d   1      27.606 -15.730  -4.817  0.00  0.00    -0.389 OA
BRANCH  23  24
ATOM     24  C   UNL d   1      26.393 -15.200  -5.382  0.00  0.00     0.199 C 
BRANCH  24  25
ATOM     25  C   UNL d   1      25.638 -14.383  -4.325  0.00  0.00     0.145 C 
ATOM     26  C   UNL d   1      25.583 -12.895  -4.646  0.00  0.00     0.036 C 
ATOM     27  C   UNL d   1      25.530 -12.261  -3.281  0.00  0.00     0.029 C 
ATOM     28  C   UNL d   1      26.382 -13.190  -2.449  0.00  0.00     0.168 C 
ATOM     29  O   UNL d   1      26.300 -14.491  -3.045  0.00  0.00    -0.384 OA
ENDBRANCH  24  25
ENDBRANCH  23  24
ENDBRANCH  22  23
ENDBRANCH  21  22
ENDBRANCH  20  21
ENDBRANCH   3  20
TORSDOF 10
ENDMDL
MODEL 8
REMARK VINA RESULT:    -4.735      6.181      8.989
REMARK INTER + INTRA:         -11.214
REMARK INTER:                  -7.718
REMARK INTRA:                  -3.496
REMARK CONF_INDEPENDENT:        2.983
REMARK UNBOUND:                -3.496
REMARK  10 active torsions:
REMARK  status: ('A' for Active; 'I' for Inactive)
REMARK       I    between atoms: C_2  and  N_3 
REMARK       I    between atoms: C_2  and  N_14 
REMARK    1  A    between atoms: N_3  and  C_4 
REMARK    2  A    between atoms: C_4  and  C_5 
REMARK    3  A    between atoms: C_5  and  C_6 
REMARK    4  A    between atoms: C_6  and  O_7 
REMARK    5  A    between atoms: O_7  and  C_8 
REMARK    6  A    between atoms: C_8  and  C_9 
REMARK    7  A    between atoms: N_14  and  N_15 
REMARK    8  A    between atoms: N_15  and  C_16 
REMARK    9  A    between atoms: C_19  and  O_20 
REMARK   10  A    between atoms: O_20  and  C_21 
ROOT
ATOM      1  O   UNL d   1      29.509 -14.379   0.655  0.00  0.00    -0.246 OA
ATOM      2  C   UNL d   1      28.603 -14.957   0.049  0.00  0.00     0.330 C 
ATOM      3  N   UNL d   1      27.887 -14.354  -0.953  0.00  0.00    -0.342 N 
ATOM      4  N   UNL d   1      28.233 -16.245   0.406  0.00  0.00    -0.269 N 
ATOM      5  H   UNL d   1      27.180 -14.876  -1.437  0.00  0.00     0.164 HD
ATOM      6  H   UNL d   1      28.916 -16.693   1.015  0.00  0.00     0.185 HD
ENDROOT
BRANCH   4   7
ATOM      7  N   UNL d   1      27.595 -17.113  -0.501  0.00  0.00    -0.202 NA
ATOM      8  H   UNL d   1      27.936 -17.016  -1.455  0.00  0.00     0.153 HD
BRANCH   7   9
ATOM      9  C   UNL d   1      26.170 -17.111  -0.536  0.00  0.00     0.028 A 
ATOM     10  C   UNL d   1      25.532 -18.116   0.207  0.00  0.00     0.028 A 
ATOM     11  C   UNL d   1      24.139 -18.270   0.210  0.00  0.00     0.039 A 
ATOM     12  C   UNL d   1      23.325 -17.374  -0.481  0.00  0.00     0.078 A 
ATOM     13  C   UNL d   1      23.941 -16.366  -1.226  0.00  0.00     0.039 A 
ATOM     14  C   UNL d   1      25.349 -16.234  -1.254  0.00  0.00     0.028 A 
BRANCH  12  15
ATOM     15  O   UNL d   1      21.981 -17.579  -0.338  0.00  0.00    -0.255 OA
BRANCH  15  16
ATOM     16  C   UNL d   1      21.447 -18.808  -0.809  0.00  0.00     0.530 C 
ATOM     17  F   UNL d   1      20.187 -18.655  -1.270  0.00  0.00    -0.144 F 
ATOM     18  F   UNL d   1      22.224 -19.323  -1.787  0.00  0.00    -0.144 F 
ATOM     19  F   UNL d   1      21.412 -19.697   0.209  0.00  0.00    -0.144 F 
ENDBRANCH  15  16
ENDBRANCH  12  15
ENDBRANCH   7   9
ENDBRANCH   4   7
BRANCH   3  20
ATOM     20  C   UNL d   1      28.115 -12.963  -1.331  0.00  0.00     0.126 C 
BRANCH  20  21
ATOM     21  C   UNL d   1      26.843 -12.244  -1.784  0.00  0.00     0.046 C 
BRANCH  21  22
ATOM     22  C   UNL d   1      26.397 -12.725  -3.164  0.00  0.00     0.169 C 
BRANCH  22  23
ATOM     23  O   UNL d   1      25.918 -14.069  -3.070  0.00  0.00    -0.389 OA
BRANCH  23  24
ATOM     24  C   UNL d   1      26.397 -14.865  -4.168  0.00  0.00     0.199 C 
BRANCH  24  25
ATOM     25  C   UNL d   1      27.927 -14.956  -4.121  0.00  0.00     0.145 C 
ATOM     26  C   UNL d   1      28.530 -15.563  -5.381  0.00  0.00     0.036 C 
ATOM     27  C   UNL d   1      29.782 -16.225  -4.867  0.00  0.00     0.029 C 
ATOM     28  C   UNL d   1      29.369 -16.695  -3.492  0.00  0.00     0.168 C 
ATOM     29  O   UNL d   1      28.342 -15.809  -3.030  0.00  0.00    -0.384 OA
ENDBRANCH  24  25
ENDBRANCH  23  24
ENDBRANCH  22  23
ENDBRANCH  21  22
ENDBRANCH  20  21
ENDBRANCH   3  20
TORSDOF 10
ENDMDL
