MODEL 1
REMARK VINA RESULT:    -7.968      0.000      0.000
REMARK INTER + INTRA:         -13.715
REMARK INTER:                 -11.249
REMARK INTRA:                  -2.466
REMARK CONF_INDEPENDENT:        3.281
REMARK UNBOUND:                -2.466
REMARK  11 active torsions:
REMARK  status: ('A' for Active; 'I' for Inactive)
REMARK    1  A    between atoms: C_2  and  O_3 
REMARK    2  A    between atoms: O_3  and  C_4 
REMARK    3  A    between atoms: C_4  and  C_5 
REMARK    4  A    between atoms: C_5  and  C_6 
REMARK       I    between atoms: C_6  and  N_8 
REMARK    5  A    between atoms: N_8  and  N_9 
REMARK    6  A    between atoms: N_9  and  C_10 
REMARK    7  A    between atoms: C_10  and  N_12 
REMARK       I    between atoms: N_12  and  C_13 
REMARK    8  A    between atoms: C_13  and  C_15 
REMARK    9  A    between atoms: C_18  and  O_19 
REMARK   10  A    between atoms: C_20  and  O_19 
REMARK   11  A    between atoms: C_20  and  C_22 
ROOT
ATOM      1  N   UNL d   1      25.913 -15.656  -0.586  0.00  0.00    -0.298 N 
ATOM      2  C   UNL d   1      25.570 -16.946  -0.153  0.00  0.00     0.257 C 
ATOM      3  O   UNL d   1      26.353 -17.758   0.350  0.00  0.00    -0.267 OA
ATOM      4  H   UNL d   1      25.154 -15.082  -0.926  0.00  0.00     0.171 HD
ENDROOT
BRANCH   1   5
ATOM      5  C   UNL d   1      27.203 -15.081  -0.522  0.00  0.00     0.193 C 
ATOM      6  S   UNL d   1      28.434 -15.556   0.534  0.00  0.00    -0.039 SA
BRANCH   5   7
ATOM      7  N   UNL d   1      27.444 -14.040  -1.432  0.00  0.00    -0.273 N 
ATOM      8  H   UNL d   1      27.904 -13.155  -1.222  0.00  0.00     0.189 HD
BRANCH   7   9
ATOM      9  N   UNL d   1      27.033 -14.202  -2.814  0.00  0.00    -0.268 N 
ATOM     10  C   UNL d   1      25.719 -14.007  -3.202  0.00  0.00     0.238 C 
ATOM     11  O   UNL d   1      24.850 -13.686  -2.390  0.00  0.00    -0.272 OA
ATOM     12  H   UNL d   1      27.773 -14.469  -3.464  0.00  0.00     0.190 HD
BRANCH  10  13
ATOM     13  C   UNL d   1      25.429 -14.219  -4.695  0.00  0.00     0.130 C 
BRANCH  13  14
ATOM     14  C   UNL d   1      25.958 -15.582  -5.155  0.00  0.00     0.176 C 
BRANCH  14  15
ATOM     15  O   UNL d   1      27.385 -15.575  -5.314  0.00  0.00    -0.391 OA
BRANCH  15  16
ATOM     16  C   UNL d   1      27.814 -14.357  -5.943  0.00  0.00     0.163 C 
ATOM     17  C   UNL d   1      29.124 -14.578  -6.678  0.00  0.00     0.033 C 
ENDBRANCH  15  16
ENDBRANCH  14  15
ENDBRANCH  13  14
ENDBRANCH  10  13
ENDBRANCH   7   9
ENDBRANCH   5   7
ENDBRANCH   1   5
BRANCH   2  18
ATOM     18  C   UNL d   1      24.178 -17.454  -0.270  0.00  0.00     0.032 C 
ATOM     19  C   UNL d   1      24.040 -18.844  -0.330  0.00  0.00     0.020 C 
ATOM     20  C   UNL d   1      22.859 -19.414  -0.781  0.00  0.00     0.038 C 
ATOM     21  C   UNL d   1      21.708 -18.659  -0.921  0.00  0.00     0.069 C 
ATOM     22  C   UNL d   1      21.836 -17.266  -0.894  0.00  0.00     0.038 C 
ATOM     23  C   UNL d   1      23.078 -16.660  -0.602  0.00  0.00     0.020 C 
BRANCH  21  24
ATOM     24  O   UNL d   1      20.452 -19.177  -1.054  0.00  0.00    -0.346 OA
BRANCH  24  25
ATOM     25  C   UNL d   1      19.592 -19.332   0.102  0.00  0.00     0.124 C 
ATOM     26  C   UNL d   1      20.300 -19.422   1.467  0.00  0.00     0.040 C 
BRANCH  25  27
ATOM     27  C   UNL d   1      18.557 -20.442  -0.141  0.00  0.00     0.027 C 
ATOM     28  C   UNL d   1      18.292 -21.247   1.126  0.00  0.00     0.007 C 
ENDBRANCH  25  27
ENDBRANCH  24  25
ENDBRANCH  21  24
ENDBRANCH   2  18
TORSDOF 11
ENDMDL
MODEL 2
REMARK VINA RESULT:    -7.834      3.052      5.230
REMARK INTER + INTRA:         -13.097
REMARK INTER:                 -11.115
REMARK INTRA:                  -1.981
REMARK CONF_INDEPENDENT:        3.281
REMARK UNBOUND:                -1.981
REMARK  11 active torsions:
REMARK  status: ('A' for Active; 'I' for Inactive)
REMARK    1  A    between atoms: C_2  and  O_3 
REMARK    2  A    between atoms: O_3  and  C_4 
REMARK    3  A    between atoms: C_4  and  C_5 
REMARK    4  A    between atoms: C_5  and  C_6 
REMARK       I    between atoms: C_6  and  N_8 
REMARK    5  A    between atoms: N_8  and  N_9 
REMARK    6  A    between atoms: N_9  and  C_10 
REMARK    7  A    between atoms: C_10  and  N_12 
REMARK       I    between atoms: N_12  and  C_13 
REMARK    8  A    between atoms: C_13  and  C_15 
REMARK    9  A    between atoms: C_18  and  O_19 
REMARK   10  A    between atoms: C_20  and  O_19 
REMARK   11  A    between atoms: C_20  and  C_22 
ROOT
ATOM      1  N   UNL d   1      26.711 -16.115  -0.419  0.00  0.00    -0.298 N 
ATOM      2  C   UNL d   1      26.135 -17.385  -0.269  0.00  0.00     0.257 C 
ATOM      3  O   UNL d   1      26.765 -18.440  -0.137  0.00  0.00    -0.267 OA
ATOM      4  H   UNL d   1      26.069 -15.335  -0.460  0.00  0.00     0.171 HD
ENDROOT
BRANCH   1   5
ATOM      5  C   UNL d   1      28.097 -15.836  -0.448  0.00  0.00     0.193 C 
ATOM      6  S   UNL d   1      28.990 -15.466  -1.835  0.00  0.00    -0.039 SA
BRANCH   5   7
ATOM      7  N   UNL d   1      28.745 -15.871   0.796  0.00  0.00    -0.273 N 
ATOM      8  H   UNL d   1      29.623 -16.346   1.002  0.00  0.00     0.189 HD
BRANCH   7   9
ATOM      9  N   UNL d   1      28.155 -15.165   1.918  0.00  0.00    -0.268 N 
ATOM     10  C   UNL d   1      27.379 -14.035   1.730  0.00  0.00     0.238 C 
ATOM     11  O   UNL d   1      27.156 -13.588   0.605  0.00  0.00    -0.272 OA
ATOM     12  H   UNL d   1      28.356 -15.557   2.839  0.00  0.00     0.190 HD
BRANCH  10  13
ATOM     13  C   UNL d   1      26.825 -13.390   3.009  0.00  0.00     0.130 C 
BRANCH  13  14
ATOM     14  C   UNL d   1      27.943 -13.202   4.041  0.00  0.00     0.176 C 
BRANCH  14  15
ATOM     15  O   UNL d   1      28.323 -14.446   4.649  0.00  0.00    -0.391 OA
BRANCH  15  16
ATOM     16  C   UNL d   1      28.982 -14.210   5.903  0.00  0.00     0.163 C 
ATOM     17  C   UNL d   1      28.360 -13.017   6.607  0.00  0.00     0.033 C 
ENDBRANCH  15  16
ENDBRANCH  14  15
ENDBRANCH  13  14
ENDBRANCH  10  13
ENDBRANCH   7   9
ENDBRANCH   5   7
ENDBRANCH   1   5
BRANCH   2  18
ATOM     18  C   UNL d   1      24.660 -17.566  -0.254  0.00  0.00     0.032 C 
ATOM     19  C   UNL d   1      24.209 -18.884  -0.136  0.00  0.00     0.020 C 
ATOM     20  C   UNL d   1      22.899 -19.210  -0.455  0.00  0.00     0.038 C 
ATOM     21  C   UNL d   1      21.940 -18.229  -0.630  0.00  0.00     0.069 C 
ATOM     22  C   UNL d   1      22.379 -16.909  -0.781  0.00  0.00     0.038 C 
ATOM     23  C   UNL d   1      23.744 -16.580  -0.627  0.00  0.00     0.020 C 
BRANCH  21  24
ATOM     24  O   UNL d   1      20.594 -18.453  -0.637  0.00  0.00    -0.346 OA
BRANCH  24  25
ATOM     25  C   UNL d   1      20.057 -19.729  -0.212  0.00  0.00     0.124 C 
ATOM     26  C   UNL d   1      18.629 -20.059  -0.689  0.00  0.00     0.040 C 
BRANCH  25  27
ATOM     27  C   UNL d   1      20.274 -19.930   1.296  0.00  0.00     0.027 C 
ATOM     28  C   UNL d   1      18.968 -19.804   2.072  0.00  0.00     0.007 C 
ENDBRANCH  25  27
ENDBRANCH  24  25
ENDBRANCH  21  24
ENDBRANCH   2  18
TORSDOF 11
ENDMDL
MODEL 3
REMARK VINA RESULT:    -7.790      1.159      1.854
REMARK INTER + INTRA:         -13.249
REMARK INTER:                 -11.071
REMARK INTRA:                  -2.179
REMARK CONF_INDEPENDENT:        3.281
REMARK UNBOUND:                -2.179
REMARK  11 active torsions:
REMARK  status: ('A' for Active; 'I' for Inactive)
REMARK    1  A    between atoms: C_2  and  O_3 
REMARK    2  A    between atoms: O_3  and  C_4 
REMARK    3  A    between atoms: C_4  and  C_5 
REMARK    4  A    between atoms: C_5  and  C_6 
REMARK       I    between atoms: C_6  and  N_8 
REMARK    5  A    between atoms: N_8  and  N_9 
REMARK    6  A    between atoms: N_9  and  C_10 
REMARK    7  A    between atoms: C_10  and  N_12 
REMARK       I    between atoms: N_12  and  C_13 
REMARK    8  A    between atoms: C_13  and  C_15 
REMARK    9  A    between atoms: C_18  and  O_19 
REMARK   10  A    between atoms: C_20  and  O_19 
REMARK   11  A    between atoms: C_20  and  C_22 
ROOT
ATOM      1  N   UNL d   1      25.902 -15.577  -0.560  0.00  0.00    -0.298 N 
ATOM      2  C   UNL d   1      25.714 -16.961  -0.421  0.00  0.00     0.257 C 
ATOM      3  O   UNL d   1      26.592 -17.767  -0.092  0.00  0.00    -0.267 OA
ATOM      4  H   UNL d   1      25.077 -15.035  -0.780  0.00  0.00     0.171 HD
ENDROOT
BRANCH   1   5
ATOM      5  C   UNL d   1      27.117 -14.884  -0.352  0.00  0.00     0.193 C 
ATOM      6  S   UNL d   1      28.485 -15.518   0.410  0.00  0.00    -0.039 SA
BRANCH   5   7
ATOM      7  N   UNL d   1      27.151 -13.570  -0.841  0.00  0.00    -0.273 N 
ATOM      8  H   UNL d   1      27.704 -12.803  -0.460  0.00  0.00     0.189 HD
BRANCH   7   9
ATOM      9  N   UNL d   1      26.354 -13.229  -2.005  0.00  0.00    -0.268 N 
ATOM     10  C   UNL d   1      26.451 -11.986  -2.605  0.00  0.00     0.238 C 
ATOM     11  O   UNL d   1      27.218 -11.123  -2.176  0.00  0.00    -0.272 OA
ATOM     12  H   UNL d   1      25.727 -13.962  -2.338  0.00  0.00     0.190 HD
BRANCH  10  13
ATOM     13  C   UNL d   1      25.544 -11.764  -3.824  0.00  0.00     0.130 C 
BRANCH  13  14
ATOM     14  C   UNL d   1      25.545 -13.006  -4.724  0.00  0.00     0.176 C 
BRANCH  14  15
ATOM     15  O   UNL d   1      24.772 -14.076  -4.158  0.00  0.00    -0.391 OA
BRANCH  15  16
ATOM     16  C   UNL d   1      25.531 -15.296  -4.160  0.00  0.00     0.163 C 
ATOM     17  C   UNL d   1      26.681 -15.199  -5.146  0.00  0.00     0.033 C 
ENDBRANCH  15  16
ENDBRANCH  14  15
ENDBRANCH  13  14
ENDBRANCH  10  13
ENDBRANCH   7   9
ENDBRANCH   5   7
ENDBRANCH   1   5
BRANCH   2  18
ATOM     18  C   UNL d   1      24.390 -17.589  -0.667  0.00  0.00     0.032 C 
ATOM     19  C   UNL d   1      23.326 -16.706  -0.874  0.00  0.00     0.020 C 
ATOM     20  C   UNL d   1      22.015 -17.146  -0.766  0.00  0.00     0.038 C 
ATOM     21  C   UNL d   1      21.716 -18.497  -0.727  0.00  0.00     0.069 C 
ATOM     22  C   UNL d   1      22.767 -19.390  -0.489  0.00  0.00     0.038 C 
ATOM     23  C   UNL d   1      24.102 -18.933  -0.424  0.00  0.00     0.020 C 
BRANCH  21  24
ATOM     24  O   UNL d   1      20.473 -19.022  -0.932  0.00  0.00    -0.346 OA
BRANCH  24  25
ATOM     25  C   UNL d   1      19.597 -19.302   0.188  0.00  0.00     0.124 C 
ATOM     26  C   UNL d   1      20.276 -19.434   1.565  0.00  0.00     0.040 C 
BRANCH  25  27
ATOM     27  C   UNL d   1      18.641 -20.456  -0.150  0.00  0.00     0.027 C 
ATOM     28  C   UNL d   1      18.336 -21.309   1.075  0.00  0.00     0.007 C 
ENDBRANCH  25  27
ENDBRANCH  24  25
ENDBRANCH  21  24
ENDBRANCH   2  18
TORSDOF 11
ENDMDL
MODEL 4
REMARK VINA RESULT:    -7.527      3.008      3.304
REMARK INTER + INTRA:         -12.655
REMARK INTER:                 -10.809
REMARK INTRA:                  -1.846
REMARK CONF_INDEPENDENT:        3.281
REMARK UNBOUND:                -1.846
REMARK  11 active torsions:
REMARK  status: ('A' for Active; 'I' for Inactive)
REMARK    1  A    between atoms: C_2  and  O_3 
REMARK    2  A    between atoms: O_3  and  C_4 
REMARK    3  A    between atoms: C_4  and  C_5 
REMARK    4  A    between atoms: C_5  and  C_6 
REMARK       I    between atoms: C_6  and  N_8 
REMARK    5  A    between atoms: N_8  and  N_9 
REMARK    6  A    between atoms: N_9  and  C_10 
REMARK    7  A    between atoms: C_10  and  N_12 
REMARK       I    between atoms: N_12  and  C_13 
REMARK    8  A    between atoms: C_13  and  C_15 
REMARK    9  A    between atoms: C_18  and  O_19 
REMARK   10  A    between atoms: C_20  and  O_19 
REMARK   11  A    between atoms: C_20  and  C_22 
ROOT
ATOM      1  N   UNL d   1      25.064 -14.784  -2.946  0.00  0.00    -0.298 N 
ATOM      2  C   UNL d   1      25.434 -15.869  -2.137  0.00  0.00     0.257 C 
ATOM      3  O   UNL d   1      26.574 -16.341  -2.060  0.00  0.00    -0.267 OA
ATOM      4  H   UNL d   1      24.106 -14.472  -2.864  0.00  0.00     0.171 HD
ENDROOT
BRANCH   1   5
ATOM      5  C   UNL d   1      25.927 -14.061  -3.802  0.00  0.00     0.193 C 
ATOM      6  S   UNL d   1      26.633 -14.664  -5.214  0.00  0.00    -0.039 SA
BRANCH   5   7
ATOM      7  N   UNL d   1      26.185 -12.737  -3.417  0.00  0.00    -0.273 N 
ATOM      8  H   UNL d   1      26.754 -12.443  -2.623  0.00  0.00     0.189 HD
BRANCH   7   9
ATOM      9  N   UNL d   1      25.628 -11.652  -4.203  0.00  0.00    -0.268 N 
ATOM     10  C   UNL d   1      25.811 -10.330  -3.838  0.00  0.00     0.238 C 
ATOM     11  O   UNL d   1      26.456 -10.024  -2.835  0.00  0.00    -0.272 OA
ATOM     12  H   UNL d   1      25.098 -11.935  -5.029  0.00  0.00     0.190 HD
BRANCH  10  13
ATOM     13  C   UNL d   1      25.159  -9.290  -4.761  0.00  0.00     0.130 C 
BRANCH  13  14
ATOM     14  C   UNL d   1      25.753  -9.379  -6.171  0.00  0.00     0.176 C 
BRANCH  14  15
ATOM     15  O   UNL d   1      25.639 -10.702  -6.717  0.00  0.00    -0.391 OA
BRANCH  15  16
ATOM     16  C   UNL d   1      26.856 -11.076  -7.383  0.00  0.00     0.163 C 
ATOM     17  C   UNL d   1      26.652 -11.074  -8.888  0.00  0.00     0.033 C 
ENDBRANCH  15  16
ENDBRANCH  14  15
ENDBRANCH  13  14
ENDBRANCH  10  13
ENDBRANCH   7   9
ENDBRANCH   5   7
ENDBRANCH   1   5
BRANCH   2  18
ATOM     18  C   UNL d   1      24.443 -16.562  -1.274  0.00  0.00     0.032 C 
ATOM     19  C   UNL d   1      24.806 -17.837  -0.831  0.00  0.00     0.020 C 
ATOM     20  C   UNL d   1      23.849 -18.705  -0.326  0.00  0.00     0.038 C 
ATOM     21  C   UNL d   1      22.584 -18.258   0.009  0.00  0.00     0.069 C 
ATOM     22  C   UNL d   1      22.196 -16.996  -0.454  0.00  0.00     0.038 C 
ATOM     23  C   UNL d   1      23.114 -16.160  -1.127  0.00  0.00     0.020 C 
BRANCH  21  24
ATOM     24  O   UNL d   1      21.697 -18.948   0.784  0.00  0.00    -0.346 OA
BRANCH  24  25
ATOM     25  C   UNL d   1      20.623 -19.707   0.177  0.00  0.00     0.124 C 
ATOM     26  C   UNL d   1      20.256 -19.326  -1.270  0.00  0.00     0.040 C 
BRANCH  25  27
ATOM     27  C   UNL d   1      19.418 -19.791   1.127  0.00  0.00     0.027 C 
ATOM     28  C   UNL d   1      18.460 -20.905   0.721  0.00  0.00     0.007 C 
ENDBRANCH  25  27
ENDBRANCH  24  25
ENDBRANCH  21  24
ENDBRANCH   2  18
TORSDOF 11
ENDMDL
MODEL 5
REMARK VINA RESULT:    -7.413      2.026      2.901
REMARK INTER + INTRA:         -13.078
REMARK INTER:                 -10.694
REMARK INTRA:                  -2.384
REMARK CONF_INDEPENDENT:        3.281
REMARK UNBOUND:                -2.384
REMARK  11 active torsions:
REMARK  status: ('A' for Active; 'I' for Inactive)
REMARK    1  A    between atoms: C_2  and  O_3 
REMARK    2  A    between atoms: O_3  and  C_4 
REMARK    3  A    between atoms: C_4  and  C_5 
REMARK    4  A    between atoms: C_5  and  C_6 
REMARK       I    between atoms: C_6  and  N_8 
REMARK    5  A    between atoms: N_8  and  N_9 
REMARK    6  A    between atoms: N_9  and  C_10 
REMARK    7  A    between atoms: C_10  and  N_12 
REMARK       I    between atoms: N_12  and  C_13 
REMARK    8  A    between atoms: C_13  and  C_15 
REMARK    9  A    between atoms: C_18  and  O_19 
REMARK   10  A    between atoms: C_20  and  O_19 
REMARK   11  A    between atoms: C_20  and  C_22 
ROOT
ATOM      1  N   UNL d   1      26.997 -16.333  -1.487  0.00  0.00    -0.298 N 
ATOM      2  C   UNL d   1      25.688 -16.389  -1.989  0.00  0.00     0.257 C 
ATOM      3  O   UNL d   1      25.345 -16.022  -3.118  0.00  0.00    -0.267 OA
ATOM      4  H   UNL d   1      27.138 -16.722  -0.565  0.00  0.00     0.171 HD
ENDROOT
BRANCH   1   5
ATOM      5  C   UNL d   1      28.128 -15.848  -2.184  0.00  0.00     0.193 C 
ATOM      6  S   UNL d   1      29.728 -15.965  -1.651  0.00  0.00    -0.039 SA
BRANCH   5   7
ATOM      7  N   UNL d   1      27.858 -15.234  -3.416  0.00  0.00    -0.273 N 
ATOM      8  H   UNL d   1      26.995 -14.753  -3.670  0.00  0.00     0.189 HD
BRANCH   7   9
ATOM      9  N   UNL d   1      28.878 -15.244  -4.447  0.00  0.00    -0.268 N 
ATOM     10  C   UNL d   1      28.545 -15.207  -5.790  0.00  0.00     0.238 C 
ATOM     11  O   UNL d   1      27.372 -15.161  -6.160  0.00  0.00    -0.272 OA
ATOM     12  H   UNL d   1      29.842 -15.282  -4.112  0.00  0.00     0.190 HD
BRANCH  10  13
ATOM     13  C   UNL d   1      29.729 -15.228  -6.769  0.00  0.00     0.130 C 
BRANCH  13  14
ATOM     14  C   UNL d   1      30.994 -15.736  -6.068  0.00  0.00     0.176 C 
BRANCH  14  15
ATOM     15  O   UNL d   1      30.728 -16.890  -5.256  0.00  0.00    -0.391 OA
BRANCH  15  16
ATOM     16  C   UNL d   1      30.415 -18.023  -6.083  0.00  0.00     0.163 C 
ATOM     17  C   UNL d   1      31.634 -18.440  -6.885  0.00  0.00     0.033 C 
ENDBRANCH  15  16
ENDBRANCH  14  15
ENDBRANCH  13  14
ENDBRANCH  10  13
ENDBRANCH   7   9
ENDBRANCH   5   7
ENDBRANCH   1   5
BRANCH   2  18
ATOM     18  C   UNL d   1      24.569 -16.918  -1.168  0.00  0.00     0.032 C 
ATOM     19  C   UNL d   1      24.757 -18.196  -0.631  0.00  0.00     0.020 C 
ATOM     20  C   UNL d   1      23.677 -18.924  -0.155  0.00  0.00     0.038 C 
ATOM     21  C   UNL d   1      22.449 -18.325   0.059  0.00  0.00     0.069 C 
ATOM     22  C   UNL d   1      22.236 -17.059  -0.498  0.00  0.00     0.038 C 
ATOM     23  C   UNL d   1      23.285 -16.368  -1.143  0.00  0.00     0.020 C 
BRANCH  21  24
ATOM     24  O   UNL d   1      21.440 -18.868   0.801  0.00  0.00    -0.346 OA
BRANCH  24  25
ATOM     25  C   UNL d   1      20.444 -19.717   0.180  0.00  0.00     0.124 C 
ATOM     26  C   UNL d   1      20.053 -19.360  -1.267  0.00  0.00     0.040 C 
BRANCH  25  27
ATOM     27  C   UNL d   1      19.245 -19.919   1.120  0.00  0.00     0.027 C 
ATOM     28  C   UNL d   1      18.459 -21.176   0.765  0.00  0.00     0.007 C 
ENDBRANCH  25  27
ENDBRANCH  24  25
ENDBRANCH  21  24
ENDBRANCH   2  18
TORSDOF 11
ENDMDL
MODEL 6
REMARK VINA RESULT:    -7.367      1.867      2.667
REMARK INTER + INTRA:         -13.415
REMARK INTER:                 -10.648
REMARK INTRA:                  -2.767
REMARK CONF_INDEPENDENT:        3.281
REMARK UNBOUND:                -2.767
REMARK  11 active torsions:
REMARK  status: ('A' for Active; 'I' for Inactive)
REMARK    1  A    between atoms: C_2  and  O_3 
REMARK    2  A    between atoms: O_3  and  C_4 
REMARK    3  A    between atoms: C_4  and  C_5 
REMARK    4  A    between atoms: C_5  and  C_6 
REMARK       I    between atoms: C_6  and  N_8 
REMARK    5  A    between atoms: N_8  and  N_9 
REMARK    6  A    between atoms: N_9  and  C_10 
REMARK    7  A    between atoms: C_10  and  N_12 
REMARK       I    between atoms: N_12  and  C_13 
REMARK    8  A    between atoms: C_13  and  C_15 
REMARK    9  A    between atoms: C_18  and  O_19 
REMARK   10  A    between atoms: C_20  and  O_19 
REMARK   11  A    between atoms: C_20  and  C_22 
ROOT
ATOM      1  N   UNL d   1      26.571 -16.732   0.016  0.00  0.00    -0.298 N 
ATOM      2  C   UNL d   1      25.666 -16.816  -1.054  0.00  0.00     0.257 C 
ATOM      3  O   UNL d   1      25.942 -16.586  -2.236  0.00  0.00    -0.267 OA
ATOM      4  H   UNL d   1      26.216 -17.005   0.922  0.00  0.00     0.171 HD
ENDROOT
BRANCH   1   5
ATOM      5  C   UNL d   1      27.933 -16.368  -0.083  0.00  0.00     0.193 C 
ATOM      6  S   UNL d   1      28.689 -15.158   0.824  0.00  0.00    -0.039 SA
BRANCH   5   7
ATOM      7  N   UNL d   1      28.686 -17.100  -1.013  0.00  0.00    -0.273 N 
ATOM      8  H   UNL d   1      29.261 -17.917  -0.809  0.00  0.00     0.189 HD
BRANCH   7   9
ATOM      9  N   UNL d   1      28.660 -16.705  -2.409  0.00  0.00    -0.268 N 
ATOM     10  C   UNL d   1      29.810 -16.704  -3.179  0.00  0.00     0.238 C 
ATOM     11  O   UNL d   1      30.898 -17.041  -2.709  0.00  0.00    -0.272 OA
ATOM     12  H   UNL d   1      27.746 -16.430  -2.771  0.00  0.00     0.190 HD
BRANCH  10  13
ATOM     13  C   UNL d   1      29.633 -16.257  -4.637  0.00  0.00     0.130 C 
BRANCH  13  14
ATOM     14  C   UNL d   1      28.575 -15.152  -4.734  0.00  0.00     0.176 C 
BRANCH  14  15
ATOM     15  O   UNL d   1      27.242 -15.687  -4.734  0.00  0.00    -0.391 OA
BRANCH  15  16
ATOM     16  C   UNL d   1      26.286 -14.649  -5.000  0.00  0.00     0.163 C 
ATOM     17  C   UNL d   1      25.913 -13.936  -3.713  0.00  0.00     0.033 C 
ENDBRANCH  15  16
ENDBRANCH  14  15
ENDBRANCH  13  14
ENDBRANCH  10  13
ENDBRANCH   7   9
ENDBRANCH   5   7
ENDBRANCH   1   5
BRANCH   2  18
ATOM     18  C   UNL d   1      24.249 -17.208  -0.837  0.00  0.00     0.032 C 
ATOM     19  C   UNL d   1      23.987 -18.582  -0.856  0.00  0.00     0.020 C 
ATOM     20  C   UNL d   1      22.691 -19.048  -1.014  0.00  0.00     0.038 C 
ATOM     21  C   UNL d   1      21.605 -18.200  -0.884  0.00  0.00     0.069 C 
ATOM     22  C   UNL d   1      21.850 -16.822  -0.895  0.00  0.00     0.038 C 
ATOM     23  C   UNL d   1      23.171 -16.324  -0.907  0.00  0.00     0.020 C 
BRANCH  21  24
ATOM     24  O   UNL d   1      20.315 -18.613  -0.715  0.00  0.00    -0.346 OA
BRANCH  24  25
ATOM     25  C   UNL d   1      20.012 -19.770   0.102  0.00  0.00     0.124 C 
ATOM     26  C   UNL d   1      18.654 -20.449  -0.159  0.00  0.00     0.040 C 
BRANCH  25  27
ATOM     27  C   UNL d   1      20.286 -19.469   1.584  0.00  0.00     0.027 C 
ATOM     28  C   UNL d   1      19.511 -20.410   2.499  0.00  0.00     0.007 C 
ENDBRANCH  25  27
ENDBRANCH  24  25
ENDBRANCH  21  24
ENDBRANCH   2  18
TORSDOF 11
ENDMDL
MODEL 7
REMARK VINA RESULT:    -6.821      2.297      3.406
REMARK INTER + INTRA:         -12.861
REMARK INTER:                 -10.102
REMARK INTRA:                  -2.759
REMARK CONF_INDEPENDENT:        3.281
REMARK UNBOUND:                -2.759
REMARK  11 active torsions:
REMARK  status: ('A' for Active; 'I' for Inactive)
REMARK    1  A    between atoms: C_2  and  O_3 
REMARK    2  A    between atoms: O_3  and  C_4 
REMARK    3  A    between atoms: C_4  and  C_5 
REMARK    4  A    between atoms: C_5  and  C_6 
REMARK       I    between atoms: C_6  and  N_8 
REMARK    5  A    between atoms: N_8  and  N_9 
REMARK    6  A    between atoms: N_9  and  C_10 
REMARK    7  A    between atoms: C_10  and  N_12 
REMARK       I    between atoms: N_12  and  C_13 
REMARK    8  A    between atoms: C_13  and  C_15 
REMARK    9  A    between atoms: C_18  and  O_19 
REMARK   10  A    between atoms: C_20  and  O_19 
REMARK   11  A    between atoms: C_20  and  C_22 
ROOT
ATOM      1  N   UNL d   1      24.836 -14.610  -2.895  0.00  0.00    -0.298 N 
ATOM      2  C   UNL d   1      25.286 -15.664  -2.086  0.00  0.00     0.257 C 
ATOM      3  O   UNL d   1      26.465 -16.013  -1.966  0.00  0.00    -0.267 OA
ATOM      4  H   UNL d   1      23.847 -14.403  -2.850  0.00  0.00     0.171 HD
ENDROOT
BRANCH   1   5
ATOM      5  C   UNL d   1      25.651 -13.783  -3.702  0.00  0.00     0.193 C 
ATOM      6  S   UNL d   1      25.829 -12.112  -3.523  0.00  0.00    -0.039 SA
BRANCH   5   7
ATOM      7  N   UNL d   1      26.360 -14.444  -4.717  0.00  0.00    -0.273 N 
ATOM      8  H   UNL d   1      26.085 -14.506  -5.697  0.00  0.00     0.189 HD
BRANCH   7   9
ATOM      9  N   UNL d   1      27.613 -15.098  -4.392  0.00  0.00    -0.268 N 
ATOM     10  C   UNL d   1      28.524 -15.440  -5.376  0.00  0.00     0.238 C 
ATOM     11  O   UNL d   1      28.306 -15.201  -6.564  0.00  0.00    -0.272 OA
ATOM     12  H   UNL d   1      27.767 -15.284  -3.400  0.00  0.00     0.190 HD
BRANCH  10  13
ATOM     13  C   UNL d   1      29.804 -16.131  -4.885  0.00  0.00     0.130 C 
BRANCH  13  14
ATOM     14  C   UNL d   1      30.017 -15.864  -3.390  0.00  0.00     0.176 C 
BRANCH  14  15
ATOM     15  O   UNL d   1      29.035 -16.532  -2.583  0.00  0.00    -0.391 OA
BRANCH  15  16
ATOM     16  C   UNL d   1      29.674 -17.318  -1.564  0.00  0.00     0.163 C 
ATOM     17  C   UNL d   1      29.074 -17.004  -0.206  0.00  0.00     0.033 C 
ENDBRANCH  15  16
ENDBRANCH  14  15
ENDBRANCH  13  14
ENDBRANCH  10  13
ENDBRANCH   7   9
ENDBRANCH   5   7
ENDBRANCH   1   5
BRANCH   2  18
ATOM     18  C   UNL d   1      24.339 -16.474  -1.277  0.00  0.00     0.032 C 
ATOM     19  C   UNL d   1      24.664 -17.826  -1.130  0.00  0.00     0.020 C 
ATOM     20  C   UNL d   1      23.709 -18.738  -0.707  0.00  0.00     0.038 C 
ATOM     21  C   UNL d   1      22.509 -18.315  -0.163  0.00  0.00     0.069 C 
ATOM     22  C   UNL d   1      22.156 -16.971  -0.330  0.00  0.00     0.038 C 
ATOM     23  C   UNL d   1      23.056 -16.056  -0.918  0.00  0.00     0.020 C 
BRANCH  21  24
ATOM     24  O   UNL d   1      21.658 -19.109   0.550  0.00  0.00    -0.346 OA
BRANCH  24  25
ATOM     25  C   UNL d   1      20.582 -19.818  -0.112  0.00  0.00     0.124 C 
ATOM     26  C   UNL d   1      19.576 -18.949  -0.891  0.00  0.00     0.040 C 
BRANCH  25  27
ATOM     27  C   UNL d   1      19.927 -20.823   0.848  0.00  0.00     0.027 C 
ATOM     28  C   UNL d   1      18.988 -20.132   1.829  0.00  0.00     0.007 C 
ENDBRANCH  25  27
ENDBRANCH  24  25
ENDBRANCH  21  24
ENDBRANCH   2  18
TORSDOF 11
ENDMDL
MODEL 8
REMARK VINA RESULT:    -6.811      1.741      2.607
REMARK INTER + INTRA:         -12.747
REMARK INTER:                 -10.092
REMARK INTRA:                  -2.654
REMARK CONF_INDEPENDENT:        3.281
REMARK UNBOUND:                -2.654
REMARK  11 active torsions:
REMARK  status: ('A' for Active; 'I' for Inactive)
REMARK    1  A    between atoms: C_2  and  O_3 
REMARK    2  A    between atoms: O_3  and  C_4 
REMARK    3  A    between atoms: C_4  and  C_5 
REMARK    4  A    between atoms: C_5  and  C_6 
REMARK       I    between atoms: C_6  and  N_8 
REMARK    5  A    between atoms: N_8  and  N_9 
REMARK    6  A    between atoms: N_9  and  C_10 
REMARK    7  A    between atoms: C_10  and  N_12 
REMARK       I    between atoms: N_12  and  C_13 
REMARK    8  A    between atoms: C_13  and  C_15 
REMARK    9  A    between atoms: C_18  and  O_19 
REMARK   10  A    between atoms: C_20  and  O_19 
REMARK   11  A    between atoms: C_20  and  C_22 
ROOT
ATOM      1  N   UNL d   1      26.930 -16.212  -2.390  0.00  0.00    -0.298 N 
ATOM      2  C   UNL d   1      26.630 -16.998  -1.267  0.00  0.00     0.257 C 
ATOM      3  O   UNL d   1      27.465 -17.580  -0.565  0.00  0.00    -0.267 OA
ATOM      4  H   UNL d   1      26.147 -15.751  -2.834  0.00  0.00     0.171 HD
ENDROOT
BRANCH   1   5
ATOM      5  C   UNL d   1      28.225 -15.961  -2.901  0.00  0.00     0.193 C 
ATOM      6  S   UNL d   1      29.674 -16.363  -2.129  0.00  0.00    -0.039 SA
BRANCH   5   7
ATOM      7  N   UNL d   1      28.266 -15.335  -4.155  0.00  0.00    -0.273 N 
ATOM      8  H   UNL d   1      28.760 -15.676  -4.979  0.00  0.00     0.189 HD
BRANCH   7   9
ATOM      9  N   UNL d   1      27.538 -14.096  -4.350  0.00  0.00    -0.268 N 
ATOM     10  C   UNL d   1      26.175 -14.091  -4.592  0.00  0.00     0.238 C 
ATOM     11  O   UNL d   1      25.529 -15.138  -4.650  0.00  0.00    -0.272 OA
ATOM     12  H   UNL d   1      28.098 -13.244  -4.297  0.00  0.00     0.190 HD
BRANCH  10  13
ATOM     13  C   UNL d   1      25.539 -12.706  -4.784  0.00  0.00     0.130 C 
BRANCH  13  14
ATOM     14  C   UNL d   1      25.704 -11.862  -3.514  0.00  0.00     0.176 C 
BRANCH  14  15
ATOM     15  O   UNL d   1      26.924 -12.168  -2.823  0.00  0.00    -0.391 OA
BRANCH  15  16
ATOM     16  C   UNL d   1      26.642 -12.745  -1.539  0.00  0.00     0.163 C 
ATOM     17  C   UNL d   1      27.912 -13.302  -0.922  0.00  0.00     0.033 C 
ENDBRANCH  15  16
ENDBRANCH  14  15
ENDBRANCH  13  14
ENDBRANCH  10  13
ENDBRANCH   7   9
ENDBRANCH   5   7
ENDBRANCH   1   5
BRANCH   2  18
ATOM     18  C   UNL d   1      25.229 -17.199  -0.817  0.00  0.00     0.032 C 
ATOM     19  C   UNL d   1      24.936 -18.454  -0.276  0.00  0.00     0.020 C 
ATOM     20  C   UNL d   1      23.621 -18.876  -0.148  0.00  0.00     0.038 C 
ATOM     21  C   UNL d   1      22.569 -17.987  -0.286  0.00  0.00     0.069 C 
ATOM     22  C   UNL d   1      22.842 -16.738  -0.855  0.00  0.00     0.038 C 
ATOM     23  C   UNL d   1      24.168 -16.355  -1.153  0.00  0.00     0.020 C 
BRANCH  21  24
ATOM     24  O   UNL d   1      21.289 -18.232   0.119  0.00  0.00    -0.346 OA
BRANCH  24  25
ATOM     25  C   UNL d   1      20.696 -19.541  -0.063  0.00  0.00     0.124 C 
ATOM     26  C   UNL d   1      19.752 -19.697  -1.270  0.00  0.00     0.040 C 
BRANCH  25  27
ATOM     27  C   UNL d   1      20.108 -20.056   1.261  0.00  0.00     0.027 C 
ATOM     28  C   UNL d   1      18.701 -20.609   1.071  0.00  0.00     0.007 C 
ENDBRANCH  25  27
ENDBRANCH  24  25
ENDBRANCH  21  24
ENDBRANCH   2  18
TORSDOF 11
ENDMDL
MODEL 9
REMARK VINA RESULT:    -6.705      2.269      3.226
REMARK INTER + INTRA:         -12.598
REMARK INTER:                  -9.986
REMARK INTRA:                  -2.611
REMARK CONF_INDEPENDENT:        3.281
REMARK UNBOUND:                -2.611
REMARK  11 active torsions:
REMARK  status: ('A' for Active; 'I' for Inactive)
REMARK    1  A    between atoms: C_2  and  O_3 
REMARK    2  A    between atoms: O_3  and  C_4 
REMARK    3  A    between atoms: C_4  and  C_5 
REMARK    4  A    between atoms: C_5  and  C_6 
REMARK       I    between atoms: C_6  and  N_8 
REMARK    5  A    between atoms: N_8  and  N_9 
REMARK    6  A    between atoms: N_9  and  C_10 
REMARK    7  A    between atoms: C_10  and  N_12 
REMARK       I    between atoms: N_12  and  C_13 
REMARK    8  A    between atoms: C_13  and  C_15 
REMARK    9  A    between atoms: C_18  and  O_19 
REMARK   10  A    between atoms: C_20  and  O_19 
REMARK   11  A    between atoms: C_20  and  C_22 
ROOT
ATOM      1  N   UNL d   1      25.773 -15.625  -2.998  0.00  0.00    -0.298 N 
ATOM      2  C   UNL d   1      25.932 -16.467  -1.887  0.00  0.00     0.257 C 
ATOM      3  O   UNL d   1      27.014 -16.894  -1.469  0.00  0.00    -0.267 OA
ATOM      4  H   UNL d   1      24.832 -15.310  -3.189  0.00  0.00     0.171 HD
ENDROOT
BRANCH   1   5
ATOM      5  C   UNL d   1      26.816 -15.134  -3.818  0.00  0.00     0.193 C 
ATOM      6  S   UNL d   1      26.712 -13.783  -4.827  0.00  0.00    -0.039 SA
BRANCH   5   7
ATOM      7  N   UNL d   1      28.021 -15.850  -3.752  0.00  0.00    -0.273 N 
ATOM      8  H   UNL d   1      28.408 -16.297  -2.921  0.00  0.00     0.189 HD
BRANCH   7   9
ATOM      9  N   UNL d   1      28.813 -16.011  -4.956  0.00  0.00    -0.268 N 
ATOM     10  C   UNL d   1      30.007 -16.710  -4.945  0.00  0.00     0.238 C 
ATOM     11  O   UNL d   1      30.440 -17.225  -3.914  0.00  0.00    -0.272 OA
ATOM     12  H   UNL d   1      28.430 -15.573  -5.796  0.00  0.00     0.190 HD
BRANCH  10  13
ATOM     13  C   UNL d   1      30.740 -16.794  -6.292  0.00  0.00     0.130 C 
BRANCH  13  14
ATOM     14  C   UNL d   1      30.802 -15.412  -6.954  0.00  0.00     0.176 C 
BRANCH  14  15
ATOM     15  O   UNL d   1      29.493 -14.900  -7.244  0.00  0.00    -0.391 OA
BRANCH  15  16
ATOM     16  C   UNL d   1      29.447 -13.483  -7.012  0.00  0.00     0.163 C 
ATOM     17  C   UNL d   1      28.585 -12.806  -8.063  0.00  0.00     0.033 C 
ENDBRANCH  15  16
ENDBRANCH  14  15
ENDBRANCH  13  14
ENDBRANCH  10  13
ENDBRANCH   7   9
ENDBRANCH   5   7
ENDBRANCH   1   5
BRANCH   2  18
ATOM     18  C   UNL d   1      24.763 -16.927  -1.094  0.00  0.00     0.032 C 
ATOM     19  C   UNL d   1      24.869 -18.205  -0.536  0.00  0.00     0.020 C 
ATOM     20  C   UNL d   1      23.740 -18.871  -0.084  0.00  0.00     0.038 C 
ATOM     21  C   UNL d   1      22.538 -18.207   0.085  0.00  0.00     0.069 C 
ATOM     22  C   UNL d   1      22.407 -16.940  -0.495  0.00  0.00     0.038 C 
ATOM     23  C   UNL d   1      23.509 -16.312  -1.115  0.00  0.00     0.020 C 
BRANCH  21  24
ATOM     24  O   UNL d   1      21.481 -18.688   0.802  0.00  0.00    -0.346 OA
BRANCH  24  25
ATOM     25  C   UNL d   1      20.549 -19.623   0.204  0.00  0.00     0.124 C 
ATOM     26  C   UNL d   1      20.174 -19.360  -1.267  0.00  0.00     0.040 C 
BRANCH  25  27
ATOM     27  C   UNL d   1      19.341 -19.845   1.127  0.00  0.00     0.027 C 
ATOM     28  C   UNL d   1      18.644 -21.167   0.830  0.00  0.00     0.007 C 
ENDBRANCH  25  27
ENDBRANCH  24  25
ENDBRANCH  21  24
ENDBRANCH   2  18
TORSDOF 11
ENDMDL
