MODEL 1
REMARK VINA RESULT:    -9.364      0.000      0.000
REMARK INTER + INTRA:         -15.243
REMARK INTER:                 -13.540
REMARK INTRA:                  -1.703
REMARK CONF_INDEPENDENT:        4.176
REMARK UNBOUND:                -1.703
REMARK  14 active torsions:
REMARK  status: ('A' for Active; 'I' for Inactive)
REMARK    1  A    between atoms: C_2  and  C_3 
REMARK    2  A    between atoms: C_3  and  C_4 
REMARK    3  A    between atoms: C_4  and  C_5 
REMARK    4  A    between atoms: C_8  and  O_9 
REMARK    5  A    between atoms: O_9  and  C_10 
REMARK    6  A    between atoms: C_10  and  C_11 
REMARK       I    between atoms: C_11  and  N_13 
REMARK    7  A    between atoms: N_13  and  N_14 
REMARK    8  A    between atoms: C_15  and  C_16 
REMARK    9  A    between atoms: C_19  and  O_20 
REMARK   10  A    between atoms: O_20  and  C_21 
REMARK   11  A    between atoms: C_21  and  C_23 
REMARK   12  A    between atoms: C_26  and  O_27 
REMARK   13  A    between atoms: C_31  and  O_32 
REMARK   14  A    between atoms: O_32  and  C_33 
ROOT
ATOM      1  C   UNL d   1      25.535  -9.550  -4.191  0.00  0.00    -0.014 A 
ATOM      2  C   UNL d   1      25.137  -9.552  -5.533  0.00  0.00     0.016 A 
ATOM      3  C   UNL d   1      24.737  -8.344  -6.158  0.00  0.00     0.041 A 
ATOM      4  C   UNL d   1      24.717  -7.142  -5.427  0.00  0.00     0.112 A 
ATOM      5  C   UNL d   1      25.181  -7.153  -4.101  0.00  0.00     0.103 A 
ATOM      6  C   UNL d   1      25.534  -8.353  -3.482  0.00  0.00     0.052 A 
ENDROOT
BRANCH   1   7
ATOM      7  C   UNL d   1      26.084 -10.750  -3.494  0.00  0.00     0.150 C 
ATOM      8  N   UNL d   1      25.543 -11.915  -3.674  0.00  0.00    -0.184 NA
BRANCH   8   9
ATOM      9  N   UNL d   1      26.038 -13.013  -3.001  0.00  0.00    -0.246 N 
ATOM     10  C   UNL d   1      25.597 -14.282  -3.410  0.00  0.00     0.261 C 
ATOM     11  O   UNL d   1      24.788 -14.446  -4.326  0.00  0.00    -0.269 OA
ATOM     12  H   UNL d   1      26.701 -12.879  -2.247  0.00  0.00     0.192 HD
BRANCH  10  13
ATOM     13  C   UNL d   1      26.194 -15.481  -2.643  0.00  0.00     0.280 C 
BRANCH  13  14
ATOM     14  O   UNL d   1      25.657 -15.530  -1.308  0.00  0.00    -0.342 OA
BRANCH  14  15
ATOM     15  C   UNL d   1      24.763 -16.519  -1.007  0.00  0.00     0.069 A 
ATOM     16  C   UNL d   1      23.406 -16.248  -1.244  0.00  0.00     0.037 A 
ATOM     17  C   UNL d   1      22.409 -17.173  -0.895  0.00  0.00     0.010 A 
ATOM     18  C   UNL d   1      22.766 -18.425  -0.387  0.00  0.00    -0.058 A 
ATOM     19  C   UNL d   1      24.128 -18.682  -0.173  0.00  0.00     0.010 A 
ATOM     20  C   UNL d   1      25.113 -17.751  -0.480  0.00  0.00     0.037 A 
BRANCH  18  21
ATOM     21  C   UNL d   1      21.713 -19.486  -0.145  0.00  0.00     0.038 C 
BRANCH  21  22
ATOM     22  C   UNL d   1      20.386 -19.151  -0.831  0.00  0.00     0.004 C 
BRANCH  22  23
ATOM     23  C   UNL d   1      19.172 -19.451   0.023  0.00  0.00    -0.004 C 
ATOM     24  C   UNL d   1      19.613 -20.189   1.278  0.00  0.00     0.005 C 
ENDBRANCH  22  23
ENDBRANCH  21  22
ENDBRANCH  18  21
ENDBRANCH  14  15
ENDBRANCH  13  14
ENDBRANCH  10  13
ENDBRANCH   8   9
ENDBRANCH   1   7
BRANCH   5  25
ATOM     25  O   UNL d   1      25.408  -5.961  -3.503  0.00  0.00    -0.349 OA
BRANCH  25  26
ATOM     26  C   UNL d   1      24.551  -5.483  -2.483  0.00  0.00     0.171 C 
ATOM     27  C   UNL d   1      24.958  -6.149  -1.180  0.00  0.00     0.034 C 
ENDBRANCH  25  26
ENDBRANCH   5  25
BRANCH   4  28
ATOM     28  O   UNL d   1      24.237  -5.952  -6.103  0.00  0.00    -0.272 OA
BRANCH  28  29
ATOM     29  C   UNL d   1      23.851  -5.879  -7.446  0.00  0.00     0.298 C 
ATOM     30  O   UNL d   1      24.534  -5.782  -8.465  0.00  0.00    -0.259 OA
BRANCH  29  31
ATOM     31  C   UNL d   1      22.420  -5.831  -7.727  0.00  0.00     0.040 A 
ATOM     32  C   UNL d   1      21.558  -5.826  -6.614  0.00  0.00     0.020 A 
ATOM     33  C   UNL d   1      20.224  -6.198  -6.758  0.00  0.00     0.038 A 
ATOM     34  C   UNL d   1      19.726  -6.505  -8.024  0.00  0.00     0.068 A 
ATOM     35  C   UNL d   1      20.598  -6.540  -9.121  0.00  0.00     0.038 A 
ATOM     36  C   UNL d   1      21.950  -6.216  -8.977  0.00  0.00     0.020 A 
BRANCH  34  37
ATOM     37  O   UNL d   1      18.382  -6.754  -8.075  0.00  0.00    -0.356 OA
ATOM     38  C   UNL d   1      17.965  -8.002  -7.531  0.00  0.00     0.210 C 
ENDBRANCH  34  37
ENDBRANCH  29  31
ENDBRANCH  28  29
ENDBRANCH   4  28
TORSDOF 14
ENDMDL
MODEL 2
REMARK VINA RESULT:    -9.364      2.017     11.389
REMARK INTER + INTRA:         -16.109
REMARK INTER:                 -13.540
REMARK INTRA:                  -2.569
REMARK CONF_INDEPENDENT:        4.176
REMARK UNBOUND:                -2.569
REMARK  14 active torsions:
REMARK  status: ('A' for Active; 'I' for Inactive)
REMARK    1  A    between atoms: C_2  and  C_3 
REMARK    2  A    between atoms: C_3  and  C_4 
REMARK    3  A    between atoms: C_4  and  C_5 
REMARK    4  A    between atoms: C_8  and  O_9 
REMARK    5  A    between atoms: O_9  and  C_10 
REMARK    6  A    between atoms: C_10  and  C_11 
REMARK       I    between atoms: C_11  and  N_13 
REMARK    7  A    between atoms: N_13  and  N_14 
REMARK    8  A    between atoms: C_15  and  C_16 
REMARK    9  A    between atoms: C_19  and  O_20 
REMARK   10  A    between atoms: O_20  and  C_21 
REMARK   11  A    between atoms: C_21  and  C_23 
REMARK   12  A    between atoms: C_26  and  O_27 
REMARK   13  A    between atoms: C_31  and  O_32 
REMARK   14  A    between atoms: O_32  and  C_33 
ROOT
ATOM      1  C   UNL d   1      25.889 -13.558  -3.563  0.00  0.00    -0.014 A 
ATOM      2  C   UNL d   1      25.530 -14.826  -4.038  0.00  0.00     0.016 A 
ATOM      3  C   UNL d   1      25.780 -15.978  -3.251  0.00  0.00     0.041 A 
ATOM      4  C   UNL d   1      26.409 -15.855  -1.998  0.00  0.00     0.112 A 
ATOM      5  C   UNL d   1      26.703 -14.570  -1.516  0.00  0.00     0.103 A 
ATOM      6  C   UNL d   1      26.490 -13.445  -2.315  0.00  0.00     0.052 A 
ENDROOT
BRANCH   1   7
ATOM      7  C   UNL d   1      25.553 -12.289  -4.272  0.00  0.00     0.150 C 
ATOM      8  N   UNL d   1      25.497 -11.170  -3.619  0.00  0.00    -0.184 NA
BRANCH   8   9
ATOM      9  N   UNL d   1      25.155 -10.007  -4.278  0.00  0.00    -0.246 N 
ATOM     10  C   UNL d   1      25.300  -8.796  -3.582  0.00  0.00     0.261 C 
ATOM     11  O   UNL d   1      25.702  -8.737  -2.418  0.00  0.00    -0.269 OA
ATOM     12  H   UNL d   1      24.822 -10.055  -5.233  0.00  0.00     0.192 HD
BRANCH  10  13
ATOM     13  C   UNL d   1      24.926  -7.520  -4.366  0.00  0.00     0.280 C 
BRANCH  13  14
ATOM     14  O   UNL d   1      24.489  -7.866  -5.694  0.00  0.00    -0.342 OA
BRANCH  14  15
ATOM     15  C   UNL d   1      23.435  -7.179  -6.227  0.00  0.00     0.069 A 
ATOM     16  C   UNL d   1      22.390  -6.835  -5.355  0.00  0.00     0.037 A 
ATOM     17  C   UNL d   1      21.231  -6.198  -5.826  0.00  0.00     0.010 A 
ATOM     18  C   UNL d   1      21.143  -5.811  -7.166  0.00  0.00    -0.058 A 
ATOM     19  C   UNL d   1      22.205  -6.150  -8.018  0.00  0.00     0.010 A 
ATOM     20  C   UNL d   1      23.335  -6.818  -7.560  0.00  0.00     0.037 A 
BRANCH  18  21
ATOM     21  C   UNL d   1      19.966  -4.994  -7.656  0.00  0.00     0.038 C 
BRANCH  21  22
ATOM     22  C   UNL d   1      19.062  -5.790  -8.601  0.00  0.00     0.004 C 
BRANCH  22  23
ATOM     23  C   UNL d   1      19.161  -7.289  -8.410  0.00  0.00    -0.004 C 
ATOM     24  C   UNL d   1      18.170  -7.723  -7.341  0.00  0.00     0.005 C 
ENDBRANCH  22  23
ENDBRANCH  21  22
ENDBRANCH  18  21
ENDBRANCH  14  15
ENDBRANCH  13  14
ENDBRANCH  10  13
ENDBRANCH   8   9
ENDBRANCH   1   7
BRANCH   5  25
ATOM     25  O   UNL d   1      27.056 -14.450  -0.215  0.00  0.00    -0.349 OA
BRANCH  25  26
ATOM     26  C   UNL d   1      27.250 -13.177   0.372  0.00  0.00     0.171 C 
ATOM     27  C   UNL d   1      26.447 -13.131   1.661  0.00  0.00     0.034 C 
ENDBRANCH  25  26
ENDBRANCH   5  25
BRANCH   4  28
ATOM     28  O   UNL d   1      26.697 -17.076  -1.269  0.00  0.00    -0.272 OA
BRANCH  28  29
ATOM     29  C   UNL d   1      26.071 -17.482  -0.086  0.00  0.00     0.298 C 
ATOM     30  O   UNL d   1      26.557 -17.851   0.984  0.00  0.00    -0.259 OA
BRANCH  29  31
ATOM     31  C   UNL d   1      24.616 -17.573  -0.098  0.00  0.00     0.040 A 
ATOM     32  C   UNL d   1      24.065 -18.865  -0.189  0.00  0.00     0.020 A 
ATOM     33  C   UNL d   1      22.752 -19.040  -0.621  0.00  0.00     0.038 A 
ATOM     34  C   UNL d   1      21.962 -17.924  -0.895  0.00  0.00     0.068 A 
ATOM     35  C   UNL d   1      22.528 -16.643  -0.834  0.00  0.00     0.038 A 
ATOM     36  C   UNL d   1      23.858 -16.461  -0.448  0.00  0.00     0.020 A 
BRANCH  34  37
ATOM     37  O   UNL d   1      20.659 -18.198  -1.209  0.00  0.00    -0.356 OA
ATOM     38  C   UNL d   1      20.078 -19.302  -0.523  0.00  0.00     0.210 C 
ENDBRANCH  34  37
ENDBRANCH  29  31
ENDBRANCH  28  29
ENDBRANCH   4  28
TORSDOF 14
ENDMDL
MODEL 3
REMARK VINA RESULT:    -8.906      8.833     13.534
REMARK INTER + INTRA:         -15.408
REMARK INTER:                 -13.082
REMARK INTRA:                  -2.326
REMARK CONF_INDEPENDENT:        4.176
REMARK UNBOUND:                -2.326
REMARK  14 active torsions:
REMARK  status: ('A' for Active; 'I' for Inactive)
REMARK    1  A    between atoms: C_2  and  C_3 
REMARK    2  A    between atoms: C_3  and  C_4 
REMARK    3  A    between atoms: C_4  and  C_5 
REMARK    4  A    between atoms: C_8  and  O_9 
REMARK    5  A    between atoms: O_9  and  C_10 
REMARK    6  A    between atoms: C_10  and  C_11 
REMARK       I    between atoms: C_11  and  N_13 
REMARK    7  A    between atoms: N_13  and  N_14 
REMARK    8  A    between atoms: C_15  and  C_16 
REMARK    9  A    between atoms: C_19  and  O_20 
REMARK   10  A    between atoms: O_20  and  C_21 
REMARK   11  A    between atoms: C_21  and  C_23 
REMARK   12  A    between atoms: C_26  and  O_27 
REMARK   13  A    between atoms: C_31  and  O_32 
REMARK   14  A    between atoms: O_32  and  C_33 
ROOT
ATOM      1  C   UNL d   1      28.406 -13.720   5.155  0.00  0.00    -0.014 A 
ATOM      2  C   UNL d   1      28.080 -12.362   5.046  0.00  0.00     0.016 A 
ATOM      3  C   UNL d   1      28.157 -11.518   6.182  0.00  0.00     0.041 A 
ATOM      4  C   UNL d   1      28.541 -12.044   7.429  0.00  0.00     0.112 A 
ATOM      5  C   UNL d   1      28.923 -13.393   7.502  0.00  0.00     0.103 A 
ATOM      6  C   UNL d   1      28.806 -14.226   6.387  0.00  0.00     0.052 A 
ENDROOT
BRANCH   1   7
ATOM      7  C   UNL d   1      28.467 -14.648   3.988  0.00  0.00     0.150 C 
ATOM      8  N   UNL d   1      27.932 -14.311   2.857  0.00  0.00    -0.184 NA
BRANCH   8   9
ATOM      9  N   UNL d   1      27.966 -15.189   1.793  0.00  0.00    -0.246 N 
ATOM     10  C   UNL d   1      27.087 -14.954   0.724  0.00  0.00     0.261 C 
ATOM     11  O   UNL d   1      26.289 -14.013   0.708  0.00  0.00    -0.269 OA
ATOM     12  H   UNL d   1      28.619 -15.963   1.806  0.00  0.00     0.192 HD
BRANCH  10  13
ATOM     13  C   UNL d   1      27.176 -15.949  -0.453  0.00  0.00     0.280 C 
BRANCH  13  14
ATOM     14  O   UNL d   1      25.969 -15.897  -1.236  0.00  0.00    -0.342 OA
BRANCH  14  15
ATOM     15  C   UNL d   1      24.962 -16.769  -0.930  0.00  0.00     0.069 A 
ATOM     16  C   UNL d   1      23.646 -16.309  -1.093  0.00  0.00     0.037 A 
ATOM     17  C   UNL d   1      22.548 -17.106  -0.730  0.00  0.00     0.010 A 
ATOM     18  C   UNL d   1      22.752 -18.414  -0.285  0.00  0.00    -0.058 A 
ATOM     19  C   UNL d   1      24.074 -18.861  -0.145  0.00  0.00     0.010 A 
ATOM     20  C   UNL d   1      25.163 -18.058  -0.465  0.00  0.00     0.037 A 
BRANCH  18  21
ATOM     21  C   UNL d   1      21.575 -19.334  -0.032  0.00  0.00     0.038 C 
BRANCH  21  22
ATOM     22  C   UNL d   1      20.364 -18.973  -0.896  0.00  0.00     0.004 C 
BRANCH  22  23
ATOM     23  C   UNL d   1      19.097 -19.700  -0.492  0.00  0.00    -0.004 C 
ATOM     24  C   UNL d   1      19.430 -20.724   0.583  0.00  0.00     0.005 C 
ENDBRANCH  22  23
ENDBRANCH  21  22
ENDBRANCH  18  21
ENDBRANCH  14  15
ENDBRANCH  13  14
ENDBRANCH  10  13
ENDBRANCH   8   9
ENDBRANCH   1   7
BRANCH   5  25
ATOM     25  O   UNL d   1      29.538 -13.815   8.631  0.00  0.00    -0.349 OA
BRANCH  25  26
ATOM     26  C   UNL d   1      28.910 -14.738   9.501  0.00  0.00     0.171 C 
ATOM     27  C   UNL d   1      27.963 -13.962  10.399  0.00  0.00     0.034 C 
ENDBRANCH  25  26
ENDBRANCH   5  25
BRANCH   4  28
ATOM     28  O   UNL d   1      28.538 -11.145   8.567  0.00  0.00    -0.272 OA
BRANCH  28  29
ATOM     29  C   UNL d   1      29.642 -10.426   9.038  0.00  0.00     0.298 C 
ATOM     30  O   UNL d   1      29.827  -9.211   9.112  0.00  0.00    -0.259 OA
BRANCH  29  31
ATOM     31  C   UNL d   1      30.814 -11.194   9.445  0.00  0.00     0.040 A 
ATOM     32  C   UNL d   1      31.660 -11.647   8.415  0.00  0.00     0.020 A 
ATOM     33  C   UNL d   1      32.536 -12.705   8.641  0.00  0.00     0.038 A 
ATOM     34  C   UNL d   1      32.625 -13.268   9.914  0.00  0.00     0.068 A 
ATOM     35  C   UNL d   1      31.756 -12.833  10.925  0.00  0.00     0.038 A 
ATOM     36  C   UNL d   1      30.839 -11.805  10.693  0.00  0.00     0.020 A 
BRANCH  34  37
ATOM     37  O   UNL d   1      33.588 -14.228  10.059  0.00  0.00    -0.356 OA
ATOM     38  C   UNL d   1      33.126 -15.574  10.038  0.00  0.00     0.210 C 
ENDBRANCH  34  37
ENDBRANCH  29  31
ENDBRANCH  28  29
ENDBRANCH   4  28
TORSDOF 14
ENDMDL
MODEL 4
REMARK VINA RESULT:    -8.879      9.200     13.784
REMARK INTER + INTRA:         -14.959
REMARK INTER:                 -13.055
REMARK INTRA:                  -1.904
REMARK CONF_INDEPENDENT:        4.176
REMARK UNBOUND:                -1.904
REMARK  14 active torsions:
REMARK  status: ('A' for Active; 'I' for Inactive)
REMARK    1  A    between atoms: C_2  and  C_3 
REMARK    2  A    between atoms: C_3  and  C_4 
REMARK    3  A    between atoms: C_4  and  C_5 
REMARK    4  A    between atoms: C_8  and  O_9 
REMARK    5  A    between atoms: O_9  and  C_10 
REMARK    6  A    between atoms: C_10  and  C_11 
REMARK       I    between atoms: C_11  and  N_13 
REMARK    7  A    between atoms: N_13  and  N_14 
REMARK    8  A    between atoms: C_15  and  C_16 
REMARK    9  A    between atoms: C_19  and  O_20 
REMARK   10  A    between atoms: O_20  and  C_21 
REMARK   11  A    between atoms: C_21  and  C_23 
REMARK   12  A    between atoms: C_26  and  O_27 
REMARK   13  A    between atoms: C_31  and  O_32 
REMARK   14  A    between atoms: O_32  and  C_33 
ROOT
ATOM      1  C   UNL d   1      28.371 -14.030   5.021  0.00  0.00    -0.014 A 
ATOM      2  C   UNL d   1      27.853 -12.729   5.038  0.00  0.00     0.016 A 
ATOM      3  C   UNL d   1      27.817 -11.993   6.249  0.00  0.00     0.041 A 
ATOM      4  C   UNL d   1      28.281 -12.573   7.444  0.00  0.00     0.112 A 
ATOM      5  C   UNL d   1      28.853 -13.855   7.391  0.00  0.00     0.103 A 
ATOM      6  C   UNL d   1      28.848 -14.587   6.203  0.00  0.00     0.052 A 
ENDROOT
BRANCH   1   7
ATOM      7  C   UNL d   1      28.556 -14.825   3.772  0.00  0.00     0.150 C 
ATOM      8  N   UNL d   1      28.110 -14.378   2.640  0.00  0.00    -0.184 NA
BRANCH   8   9
ATOM      9  N   UNL d   1      28.258 -15.136   1.497  0.00  0.00    -0.246 N 
ATOM     10  C   UNL d   1      27.287 -14.996   0.491  0.00  0.00     0.261 C 
ATOM     11  O   UNL d   1      26.317 -14.243   0.598  0.00  0.00    -0.269 OA
ATOM     12  H   UNL d   1      29.053 -15.757   1.409  0.00  0.00     0.192 HD
BRANCH  10  13
ATOM     13  C   UNL d   1      27.506 -15.847  -0.778  0.00  0.00     0.280 C 
BRANCH  13  14
ATOM     14  O   UNL d   1      26.298 -15.887  -1.560  0.00  0.00    -0.342 OA
BRANCH  14  15
ATOM     15  C   UNL d   1      25.261 -16.656  -1.109  0.00  0.00     0.069 A 
ATOM     16  C   UNL d   1      23.963 -16.167  -1.323  0.00  0.00     0.037 A 
ATOM     17  C   UNL d   1      22.840 -16.849  -0.826  0.00  0.00     0.010 A 
ATOM     18  C   UNL d   1      22.997 -18.081  -0.187  0.00  0.00    -0.058 A 
ATOM     19  C   UNL d   1      24.302 -18.559   0.003  0.00  0.00     0.010 A 
ATOM     20  C   UNL d   1      25.417 -17.865  -0.452  0.00  0.00     0.037 A 
BRANCH  18  21
ATOM     21  C   UNL d   1      21.789 -18.897   0.221  0.00  0.00     0.038 C 
BRANCH  21  22
ATOM     22  C   UNL d   1      20.774 -19.036  -0.916  0.00  0.00     0.004 C 
BRANCH  22  23
ATOM     23  C   UNL d   1      19.475 -19.688  -0.490  0.00  0.00    -0.004 C 
ATOM     24  C   UNL d   1      19.603 -20.162   0.949  0.00  0.00     0.005 C 
ENDBRANCH  22  23
ENDBRANCH  21  22
ENDBRANCH  18  21
ENDBRANCH  14  15
ENDBRANCH  13  14
ENDBRANCH  10  13
ENDBRANCH   8   9
ENDBRANCH   1   7
BRANCH   5  25
ATOM     25  O   UNL d   1      29.531 -14.288   8.479  0.00  0.00    -0.349 OA
BRANCH  25  26
ATOM     26  C   UNL d   1      30.940 -14.411   8.458  0.00  0.00     0.171 C 
ATOM     27  C   UNL d   1      31.373 -15.058   9.762  0.00  0.00     0.034 C 
ENDBRANCH  25  26
ENDBRANCH   5  25
BRANCH   4  28
ATOM     28  O   UNL d   1      28.158 -11.795   8.661  0.00  0.00    -0.272 OA
BRANCH  28  29
ATOM     29  C   UNL d   1      28.555 -12.211   9.937  0.00  0.00     0.298 C 
ATOM     30  O   UNL d   1      27.940 -12.847  10.792  0.00  0.00    -0.259 OA
BRANCH  29  31
ATOM     31  C   UNL d   1      29.870 -11.781  10.399  0.00  0.00     0.040 A 
ATOM     32  C   UNL d   1      29.991 -11.489  11.771  0.00  0.00     0.020 A 
ATOM     33  C   UNL d   1      31.039 -10.694  12.230  0.00  0.00     0.038 A 
ATOM     34  C   UNL d   1      32.010 -10.248  11.333  0.00  0.00     0.068 A 
ATOM     35  C   UNL d   1      31.863 -10.515   9.964  0.00  0.00     0.038 A 
ATOM     36  C   UNL d   1      30.788 -11.270   9.489  0.00  0.00     0.020 A 
BRANCH  34  37
ATOM     37  O   UNL d   1      33.051  -9.565  11.898  0.00  0.00    -0.356 OA
ATOM     38  C   UNL d   1      34.195  -9.386  11.068  0.00  0.00     0.210 C 
ENDBRANCH  34  37
ENDBRANCH  29  31
ENDBRANCH  28  29
ENDBRANCH   4  28
TORSDOF 14
ENDMDL
MODEL 5
REMARK VINA RESULT:    -8.794      8.957     14.052
REMARK INTER + INTRA:         -15.678
REMARK INTER:                 -12.971
REMARK INTRA:                  -2.708
REMARK CONF_INDEPENDENT:        4.176
REMARK UNBOUND:                -2.708
REMARK  14 active torsions:
REMARK  status: ('A' for Active; 'I' for Inactive)
REMARK    1  A    between atoms: C_2  and  C_3 
REMARK    2  A    between atoms: C_3  and  C_4 
REMARK    3  A    between atoms: C_4  and  C_5 
REMARK    4  A    between atoms: C_8  and  O_9 
REMARK    5  A    between atoms: O_9  and  C_10 
REMARK    6  A    between atoms: C_10  and  C_11 
REMARK       I    between atoms: C_11  and  N_13 
REMARK    7  A    between atoms: N_13  and  N_14 
REMARK    8  A    between atoms: C_15  and  C_16 
REMARK    9  A    between atoms: C_19  and  O_20 
REMARK   10  A    between atoms: O_20  and  C_21 
REMARK   11  A    between atoms: C_21  and  C_23 
REMARK   12  A    between atoms: C_26  and  O_27 
REMARK   13  A    between atoms: C_31  and  O_32 
REMARK   14  A    between atoms: O_32  and  C_33 
ROOT
ATOM      1  C   UNL d   1      28.811 -13.819   5.093  0.00  0.00    -0.014 A 
ATOM      2  C   UNL d   1      27.786 -12.916   5.404  0.00  0.00     0.016 A 
ATOM      3  C   UNL d   1      27.768 -12.267   6.664  0.00  0.00     0.041 A 
ATOM      4  C   UNL d   1      28.766 -12.542   7.616  0.00  0.00     0.112 A 
ATOM      5  C   UNL d   1      29.818 -13.402   7.260  0.00  0.00     0.103 A 
ATOM      6  C   UNL d   1      29.806 -14.068   6.032  0.00  0.00     0.052 A 
ENDROOT
BRANCH   1   7
ATOM      7  C   UNL d   1      28.972 -14.451   3.751  0.00  0.00     0.150 C 
ATOM      8  N   UNL d   1      28.004 -14.411   2.889  0.00  0.00    -0.184 NA
BRANCH   8   9
ATOM      9  N   UNL d   1      28.151 -15.026   1.663  0.00  0.00    -0.246 N 
ATOM     10  C   UNL d   1      27.835 -14.279   0.516  0.00  0.00     0.261 C 
ATOM     11  O   UNL d   1      27.425 -13.117   0.566  0.00  0.00    -0.269 OA
ATOM     12  H   UNL d   1      28.485 -15.981   1.621  0.00  0.00     0.192 HD
BRANCH  10  13
ATOM     13  C   UNL d   1      28.036 -15.001  -0.834  0.00  0.00     0.280 C 
BRANCH  13  14
ATOM     14  O   UNL d   1      27.678 -16.390  -0.709  0.00  0.00    -0.342 OA
BRANCH  14  15
ATOM     15  C   UNL d   1      26.352 -16.710  -0.622  0.00  0.00     0.069 A 
ATOM     16  C   UNL d   1      26.011 -17.808   0.184  0.00  0.00     0.037 A 
ATOM     17  C   UNL d   1      24.684 -18.259   0.273  0.00  0.00     0.010 A 
ATOM     18  C   UNL d   1      23.664 -17.556  -0.372  0.00  0.00    -0.058 A 
ATOM     19  C   UNL d   1      24.023 -16.452  -1.159  0.00  0.00     0.010 A 
ATOM     20  C   UNL d   1      25.342 -16.029  -1.281  0.00  0.00     0.037 A 
BRANCH  18  21
ATOM     21  C   UNL d   1      22.214 -17.942  -0.165  0.00  0.00     0.038 C 
BRANCH  21  22
ATOM     22  C   UNL d   1      21.726 -18.942  -1.216  0.00  0.00     0.004 C 
BRANCH  22  23
ATOM     23  C   UNL d   1      20.267 -19.318  -1.061  0.00  0.00    -0.004 C 
ATOM     24  C   UNL d   1      20.000 -19.697   0.387  0.00  0.00     0.005 C 
ENDBRANCH  22  23
ENDBRANCH  21  22
ENDBRANCH  18  21
ENDBRANCH  14  15
ENDBRANCH  13  14
ENDBRANCH  10  13
ENDBRANCH   8   9
ENDBRANCH   1   7
BRANCH   5  25
ATOM     25  O   UNL d   1      30.898 -13.448   8.073  0.00  0.00    -0.349 OA
BRANCH  25  26
ATOM     26  C   UNL d   1      32.001 -12.586   7.867  0.00  0.00     0.171 C 
ATOM     27  C   UNL d   1      32.152 -11.717   9.105  0.00  0.00     0.034 C 
ENDBRANCH  25  26
ENDBRANCH   5  25
BRANCH   4  28
ATOM     28  O   UNL d   1      28.656 -11.896   8.910  0.00  0.00    -0.272 OA
BRANCH  28  29
ATOM     29  C   UNL d   1      28.148 -12.486  10.073  0.00  0.00     0.298 C 
ATOM     30  O   UNL d   1      27.148 -12.206  10.733  0.00  0.00    -0.259 OA
BRANCH  29  31
ATOM     31  C   UNL d   1      28.935 -13.554  10.678  0.00  0.00     0.040 A 
ATOM     32  C   UNL d   1      29.928 -13.164  11.597  0.00  0.00     0.020 A 
ATOM     33  C   UNL d   1      30.980 -14.024  11.901  0.00  0.00     0.038 A 
ATOM     34  C   UNL d   1      31.007 -15.304  11.346  0.00  0.00     0.068 A 
ATOM     35  C   UNL d   1      30.034 -15.672  10.406  0.00  0.00     0.038 A 
ATOM     36  C   UNL d   1      29.002 -14.797  10.058  0.00  0.00     0.020 A 
BRANCH  34  37
ATOM     37  O   UNL d   1      32.022 -16.107  11.788  0.00  0.00    -0.356 OA
ATOM     38  C   UNL d   1      33.334 -15.716  11.397  0.00  0.00     0.210 C 
ENDBRANCH  34  37
ENDBRANCH  29  31
ENDBRANCH  28  29
ENDBRANCH   4  28
TORSDOF 14
ENDMDL
MODEL 6
REMARK VINA RESULT:    -8.771      8.015     12.993
REMARK INTER + INTRA:         -15.374
REMARK INTER:                 -12.947
REMARK INTRA:                  -2.427
REMARK CONF_INDEPENDENT:        4.176
REMARK UNBOUND:                -2.427
REMARK  14 active torsions:
REMARK  status: ('A' for Active; 'I' for Inactive)
REMARK    1  A    between atoms: C_2  and  C_3 
REMARK    2  A    between atoms: C_3  and  C_4 
REMARK    3  A    between atoms: C_4  and  C_5 
REMARK    4  A    between atoms: C_8  and  O_9 
REMARK    5  A    between atoms: O_9  and  C_10 
REMARK    6  A    between atoms: C_10  and  C_11 
REMARK       I    between atoms: C_11  and  N_13 
REMARK    7  A    between atoms: N_13  and  N_14 
REMARK    8  A    between atoms: C_15  and  C_16 
REMARK    9  A    between atoms: C_19  and  O_20 
REMARK   10  A    between atoms: O_20  and  C_21 
REMARK   11  A    between atoms: C_21  and  C_23 
REMARK   12  A    between atoms: C_26  and  O_27 
REMARK   13  A    between atoms: C_31  and  O_32 
REMARK   14  A    between atoms: O_32  and  C_33 
ROOT
ATOM      1  C   UNL d   1      28.685 -13.794   4.163  0.00  0.00    -0.014 A 
ATOM      2  C   UNL d   1      28.733 -14.498   5.373  0.00  0.00     0.016 A 
ATOM      3  C   UNL d   1      28.517 -13.821   6.599  0.00  0.00     0.041 A 
ATOM      4  C   UNL d   1      28.275 -12.435   6.609  0.00  0.00     0.112 A 
ATOM      5  C   UNL d   1      28.169 -11.762   5.381  0.00  0.00     0.103 A 
ATOM      6  C   UNL d   1      28.423 -12.428   4.181  0.00  0.00     0.052 A 
ENDROOT
BRANCH   1   7
ATOM      7  C   UNL d   1      28.781 -14.449   2.826  0.00  0.00     0.150 C 
ATOM      8  N   UNL d   1      27.809 -14.343   1.975  0.00  0.00    -0.184 NA
BRANCH   8   9
ATOM      9  N   UNL d   1      27.894 -14.979   0.754  0.00  0.00    -0.246 N 
ATOM     10  C   UNL d   1      27.343 -14.327  -0.362  0.00  0.00     0.261 C 
ATOM     11  O   UNL d   1      26.784 -13.231  -0.287  0.00  0.00    -0.269 OA
ATOM     12  H   UNL d   1      28.350 -15.881   0.691  0.00  0.00     0.192 HD
BRANCH  10  13
ATOM     13  C   UNL d   1      27.481 -15.066  -1.710  0.00  0.00     0.280 C 
BRANCH  13  14
ATOM     14  O   UNL d   1      27.343 -16.485  -1.512  0.00  0.00    -0.342 OA
BRANCH  14  15
ATOM     15  C   UNL d   1      26.148 -16.960  -1.047  0.00  0.00     0.069 A 
ATOM     16  C   UNL d   1      24.991 -16.554  -1.729  0.00  0.00     0.037 A 
ATOM     17  C   UNL d   1      23.714 -16.927  -1.278  0.00  0.00     0.010 A 
ATOM     18  C   UNL d   1      23.584 -17.792  -0.188  0.00  0.00    -0.058 A 
ATOM     19  C   UNL d   1      24.754 -18.198   0.470  0.00  0.00     0.010 A 
ATOM     20  C   UNL d   1      26.016 -17.796   0.049  0.00  0.00     0.037 A 
BRANCH  18  21
ATOM     21  C   UNL d   1      22.224 -18.320   0.217  0.00  0.00     0.038 C 
BRANCH  21  22
ATOM     22  C   UNL d   1      21.493 -18.990  -0.949  0.00  0.00     0.004 C 
BRANCH  22  23
ATOM     23  C   UNL d   1      20.171 -19.615  -0.554  0.00  0.00    -0.004 C 
ATOM     24  C   UNL d   1      20.089 -19.694   0.963  0.00  0.00     0.005 C 
ENDBRANCH  22  23
ENDBRANCH  21  22
ENDBRANCH  18  21
ENDBRANCH  14  15
ENDBRANCH  13  14
ENDBRANCH  10  13
ENDBRANCH   8   9
ENDBRANCH   1   7
BRANCH   5  25
ATOM     25  O   UNL d   1      27.676 -10.502   5.393  0.00  0.00    -0.349 OA
BRANCH  25  26
ATOM     26  C   UNL d   1      28.514  -9.390   5.135  0.00  0.00     0.171 C 
ATOM     27  C   UNL d   1      29.273  -9.070   6.410  0.00  0.00     0.034 C 
ENDBRANCH  25  26
ENDBRANCH   5  25
BRANCH   4  28
ATOM     28  O   UNL d   1      28.126 -11.788   7.899  0.00  0.00    -0.272 OA
BRANCH  28  29
ATOM     29  C   UNL d   1      29.141 -11.623   8.848  0.00  0.00     0.298 C 
ATOM     30  O   UNL d   1      29.814 -10.631   9.128  0.00  0.00    -0.259 OA
BRANCH  29  31
ATOM     31  C   UNL d   1      29.554 -12.806   9.594  0.00  0.00     0.040 A 
ATOM     32  C   UNL d   1      30.735 -13.442   9.166  0.00  0.00     0.020 A 
ATOM     33  C   UNL d   1      30.985 -14.767   9.515  0.00  0.00     0.038 A 
ATOM     34  C   UNL d   1      30.095 -15.439  10.354  0.00  0.00     0.068 A 
ATOM     35  C   UNL d   1      28.906 -14.810  10.748  0.00  0.00     0.038 A 
ATOM     36  C   UNL d   1      28.624 -13.497  10.362  0.00  0.00     0.020 A 
BRANCH  34  37
ATOM     37  O   UNL d   1      30.484 -16.697  10.723  0.00  0.00    -0.356 OA
ATOM     38  C   UNL d   1      31.155 -16.794  11.975  0.00  0.00     0.210 C 
ENDBRANCH  34  37
ENDBRANCH  29  31
ENDBRANCH  28  29
ENDBRANCH   4  28
TORSDOF 14
ENDMDL
MODEL 7
REMARK VINA RESULT:    -8.614      8.400     12.587
REMARK INTER + INTRA:         -14.945
REMARK INTER:                 -12.790
REMARK INTRA:                  -2.154
REMARK CONF_INDEPENDENT:        4.176
REMARK UNBOUND:                -2.154
REMARK  14 active torsions:
REMARK  status: ('A' for Active; 'I' for Inactive)
REMARK    1  A    between atoms: C_2  and  C_3 
REMARK    2  A    between atoms: C_3  and  C_4 
REMARK    3  A    between atoms: C_4  and  C_5 
REMARK    4  A    between atoms: C_8  and  O_9 
REMARK    5  A    between atoms: O_9  and  C_10 
REMARK    6  A    between atoms: C_10  and  C_11 
REMARK       I    between atoms: C_11  and  N_13 
REMARK    7  A    between atoms: N_13  and  N_14 
REMARK    8  A    between atoms: C_15  and  C_16 
REMARK    9  A    between atoms: C_19  and  O_20 
REMARK   10  A    between atoms: O_20  and  C_21 
REMARK   11  A    between atoms: C_21  and  C_23 
REMARK   12  A    between atoms: C_26  and  O_27 
REMARK   13  A    between atoms: C_31  and  O_32 
REMARK   14  A    between atoms: O_32  and  C_33 
ROOT
ATOM      1  C   UNL d   1      28.299 -13.721   4.434  0.00  0.00    -0.014 A 
ATOM      2  C   UNL d   1      27.572 -13.679   5.630  0.00  0.00     0.016 A 
ATOM      3  C   UNL d   1      27.716 -12.578   6.512  0.00  0.00     0.041 A 
ATOM      4  C   UNL d   1      28.606 -11.534   6.201  0.00  0.00     0.112 A 
ATOM      5  C   UNL d   1      29.276 -11.567   4.967  0.00  0.00     0.103 A 
ATOM      6  C   UNL d   1      29.159 -12.673   4.124  0.00  0.00     0.052 A 
ENDROOT
BRANCH   1   7
ATOM      7  C   UNL d   1      28.117 -14.778   3.397  0.00  0.00     0.150 C 
ATOM      8  N   UNL d   1      28.369 -14.523   2.151  0.00  0.00    -0.184 NA
BRANCH   8   9
ATOM      9  N   UNL d   1      28.166 -15.498   1.197  0.00  0.00    -0.246 N 
ATOM     10  C   UNL d   1      27.047 -15.368   0.358  0.00  0.00     0.261 C 
ATOM     11  O   UNL d   1      26.246 -14.436   0.452  0.00  0.00    -0.269 OA
ATOM     12  H   UNL d   1      28.823 -16.265   1.120  0.00  0.00     0.192 HD
BRANCH  10  13
ATOM     13  C   UNL d   1      26.874 -16.470  -0.709  0.00  0.00     0.280 C 
BRANCH  13  14
ATOM     14  O   UNL d   1      25.649 -16.265  -1.437  0.00  0.00    -0.342 OA
BRANCH  14  15
ATOM     15  C   UNL d   1      24.521 -16.897  -0.994  0.00  0.00     0.069 A 
ATOM     16  C   UNL d   1      24.665 -18.216  -0.538  0.00  0.00     0.037 A 
ATOM     17  C   UNL d   1      23.551 -18.972  -0.136  0.00  0.00     0.010 A 
ATOM     18  C   UNL d   1      22.285 -18.382  -0.098  0.00  0.00    -0.058 A 
ATOM     19  C   UNL d   1      22.165 -17.056  -0.542  0.00  0.00     0.010 A 
ATOM     20  C   UNL d   1      23.261 -16.321  -0.979  0.00  0.00     0.037 A 
BRANCH  18  21
ATOM     21  C   UNL d   1      21.101 -19.135   0.472  0.00  0.00     0.038 C 
BRANCH  21  22
ATOM     22  C   UNL d   1      20.166 -19.655  -0.623  0.00  0.00     0.004 C 
BRANCH  22  23
ATOM     23  C   UNL d   1      18.983 -20.434  -0.086  0.00  0.00    -0.004 C 
ATOM     24  C   UNL d   1      18.798 -20.109   1.388  0.00  0.00     0.005 C 
ENDBRANCH  22  23
ENDBRANCH  21  22
ENDBRANCH  18  21
ENDBRANCH  14  15
ENDBRANCH  13  14
ENDBRANCH  10  13
ENDBRANCH   8   9
ENDBRANCH   1   7
BRANCH   5  25
ATOM     25  O   UNL d   1      29.913 -10.442   4.566  0.00  0.00    -0.349 OA
BRANCH  25  26
ATOM     26  C   UNL d   1      31.258 -10.198   4.930  0.00  0.00     0.171 C 
ATOM     27  C   UNL d   1      31.963 -11.539   5.044  0.00  0.00     0.034 C 
ENDBRANCH  25  26
ENDBRANCH   5  25
BRANCH   4  28
ATOM     28  O   UNL d   1      28.758 -10.468   7.173  0.00  0.00    -0.272 OA
BRANCH  28  29
ATOM     29  C   UNL d   1      29.576 -10.513   8.307  0.00  0.00     0.298 C 
ATOM     30  O   UNL d   1      30.333  -9.662   8.774  0.00  0.00    -0.259 OA
BRANCH  29  31
ATOM     31  C   UNL d   1      29.633 -11.773   9.040  0.00  0.00     0.040 A 
ATOM     32  C   UNL d   1      30.652 -12.671   8.672  0.00  0.00     0.020 A 
ATOM     33  C   UNL d   1      30.547 -14.022   8.992  0.00  0.00     0.038 A 
ATOM     34  C   UNL d   1      29.460 -14.470   9.744  0.00  0.00     0.068 A 
ATOM     35  C   UNL d   1      28.433 -13.575  10.078  0.00  0.00     0.038 A 
ATOM     36  C   UNL d   1      28.508 -12.228   9.718  0.00  0.00     0.020 A 
BRANCH  34  37
ATOM     37  O   UNL d   1      29.503 -15.791  10.096  0.00  0.00    -0.356 OA
ATOM     38  C   UNL d   1      30.795 -16.309  10.393  0.00  0.00     0.210 C 
ENDBRANCH  34  37
ENDBRANCH  29  31
ENDBRANCH  28  29
ENDBRANCH   4  28
TORSDOF 14
ENDMDL
MODEL 8
REMARK VINA RESULT:    -8.366      6.580     10.848
REMARK INTER + INTRA:         -15.308
REMARK INTER:                 -12.543
REMARK INTRA:                  -2.766
REMARK CONF_INDEPENDENT:        4.176
REMARK UNBOUND:                -2.766
REMARK  14 active torsions:
REMARK  status: ('A' for Active; 'I' for Inactive)
REMARK    1  A    between atoms: C_2  and  C_3 
REMARK    2  A    between atoms: C_3  and  C_4 
REMARK    3  A    between atoms: C_4  and  C_5 
REMARK    4  A    between atoms: C_8  and  O_9 
REMARK    5  A    between atoms: O_9  and  C_10 
REMARK    6  A    between atoms: C_10  and  C_11 
REMARK       I    between atoms: C_11  and  N_13 
REMARK    7  A    between atoms: N_13  and  N_14 
REMARK    8  A    between atoms: C_15  and  C_16 
REMARK    9  A    between atoms: C_19  and  O_20 
REMARK   10  A    between atoms: O_20  and  C_21 
REMARK   11  A    between atoms: C_21  and  C_23 
REMARK   12  A    between atoms: C_26  and  O_27 
REMARK   13  A    between atoms: C_31  and  O_32 
REMARK   14  A    between atoms: O_32  and  C_33 
ROOT
ATOM      1  C   UNL d   1      27.044 -12.873   0.622  0.00  0.00    -0.014 A 
ATOM      2  C   UNL d   1      27.187 -14.047   1.371  0.00  0.00     0.016 A 
ATOM      3  C   UNL d   1      27.045 -15.312   0.746  0.00  0.00     0.041 A 
ATOM      4  C   UNL d   1      26.738 -15.393  -0.624  0.00  0.00     0.112 A 
ATOM      5  C   UNL d   1      26.661 -14.204  -1.368  0.00  0.00     0.103 A 
ATOM      6  C   UNL d   1      26.763 -12.963  -0.737  0.00  0.00     0.052 A 
ENDROOT
BRANCH   1   7
ATOM      7  C   UNL d   1      27.297 -11.509   1.174  0.00  0.00     0.150 C 
ATOM      8  N   UNL d   1      27.035 -10.457   0.463  0.00  0.00    -0.184 NA
BRANCH   8   9
ATOM      9  N   UNL d   1      27.301  -9.203   0.970  0.00  0.00    -0.246 N 
ATOM     10  C   UNL d   1      26.255  -8.523   1.614  0.00  0.00     0.261 C 
ATOM     11  O   UNL d   1      25.121  -8.995   1.728  0.00  0.00    -0.269 OA
ATOM     12  H   UNL d   1      28.231  -8.813   0.874  0.00  0.00     0.192 HD
BRANCH  10  13
ATOM     13  C   UNL d   1      26.605  -7.132   2.184  0.00  0.00     0.280 C 
BRANCH  13  14
ATOM     14  O   UNL d   1      27.027  -7.253   3.556  0.00  0.00    -0.342 OA
BRANCH  14  15
ATOM     15  C   UNL d   1      27.665  -8.400   3.937  0.00  0.00     0.069 A 
ATOM     16  C   UNL d   1      29.067  -8.399   3.884  0.00  0.00     0.037 A 
ATOM     17  C   UNL d   1      29.806  -9.556   4.182  0.00  0.00     0.010 A 
ATOM     18  C   UNL d   1      29.151 -10.706   4.629  0.00  0.00    -0.058 A 
ATOM     19  C   UNL d   1      27.749 -10.681   4.689  0.00  0.00     0.010 A 
ATOM     20  C   UNL d   1      27.015  -9.549   4.355  0.00  0.00     0.037 A 
BRANCH  18  21
ATOM     21  C   UNL d   1      29.942 -11.911   5.094  0.00  0.00     0.038 C 
BRANCH  21  22
ATOM     22  C   UNL d   1      29.349 -13.225   4.580  0.00  0.00     0.004 C 
BRANCH  22  23
ATOM     23  C   UNL d   1      28.313 -13.825   5.508  0.00  0.00    -0.004 C 
ATOM     24  C   UNL d   1      27.030 -14.076   4.729  0.00  0.00     0.005 C 
ENDBRANCH  22  23
ENDBRANCH  21  22
ENDBRANCH  18  21
ENDBRANCH  14  15
ENDBRANCH  13  14
ENDBRANCH  10  13
ENDBRANCH   8   9
ENDBRANCH   1   7
BRANCH   5  25
ATOM     25  O   UNL d   1      26.633 -14.305  -2.717  0.00  0.00    -0.349 OA
BRANCH  25  26
ATOM     26  C   UNL d   1      25.515 -14.861  -3.382  0.00  0.00     0.171 C 
ATOM     27  C   UNL d   1      25.936 -15.198  -4.802  0.00  0.00     0.034 C 
ENDBRANCH  25  26
ENDBRANCH   5  25
BRANCH   4  28
ATOM     28  O   UNL d   1      26.541 -16.713  -1.192  0.00  0.00    -0.272 OA
BRANCH  28  29
ATOM     29  C   UNL d   1      25.929 -17.793  -0.546  0.00  0.00     0.298 C 
ATOM     30  O   UNL d   1      26.412 -18.844  -0.125  0.00  0.00    -0.259 OA
BRANCH  29  31
ATOM     31  C   UNL d   1      24.479 -17.743  -0.392  0.00  0.00     0.040 A 
ATOM     32  C   UNL d   1      23.790 -18.964  -0.519  0.00  0.00     0.020 A 
ATOM     33  C   UNL d   1      22.427 -18.975  -0.805  0.00  0.00     0.038 A 
ATOM     34  C   UNL d   1      21.732 -17.768  -0.894  0.00  0.00     0.068 A 
ATOM     35  C   UNL d   1      22.432 -16.557  -0.800  0.00  0.00     0.038 A 
ATOM     36  C   UNL d   1      23.808 -16.538  -0.561  0.00  0.00     0.020 A 
BRANCH  34  37
ATOM     37  O   UNL d   1      20.381 -17.889  -1.073  0.00  0.00    -0.356 OA
ATOM     38  C   UNL d   1      19.820 -19.146  -0.708  0.00  0.00     0.210 C 
ENDBRANCH  34  37
ENDBRANCH  29  31
ENDBRANCH  28  29
ENDBRANCH   4  28
TORSDOF 14
ENDMDL
MODEL 9
REMARK VINA RESULT:    -8.147      5.923     10.915
REMARK INTER + INTRA:         -15.029
REMARK INTER:                 -12.323
REMARK INTRA:                  -2.706
REMARK CONF_INDEPENDENT:        4.176
REMARK UNBOUND:                -2.706
REMARK  14 active torsions:
REMARK  status: ('A' for Active; 'I' for Inactive)
REMARK    1  A    between atoms: C_2  and  C_3 
REMARK    2  A    between atoms: C_3  and  C_4 
REMARK    3  A    between atoms: C_4  and  C_5 
REMARK    4  A    between atoms: C_8  and  O_9 
REMARK    5  A    between atoms: O_9  and  C_10 
REMARK    6  A    between atoms: C_10  and  C_11 
REMARK       I    between atoms: C_11  and  N_13 
REMARK    7  A    between atoms: N_13  and  N_14 
REMARK    8  A    between atoms: C_15  and  C_16 
REMARK    9  A    between atoms: C_19  and  O_20 
REMARK   10  A    between atoms: O_20  and  C_21 
REMARK   11  A    between atoms: C_21  and  C_23 
REMARK   12  A    between atoms: C_26  and  O_27 
REMARK   13  A    between atoms: C_31  and  O_32 
REMARK   14  A    between atoms: O_32  and  C_33 
ROOT
ATOM      1  C   UNL d   1      28.666 -15.785  -4.353  0.00  0.00    -0.014 A 
ATOM      2  C   UNL d   1      28.863 -16.329  -3.078  0.00  0.00     0.016 A 
ATOM      3  C   UNL d   1      27.819 -16.292  -2.120  0.00  0.00     0.041 A 
ATOM      4  C   UNL d   1      26.588 -15.688  -2.438  0.00  0.00     0.112 A 
ATOM      5  C   UNL d   1      26.393 -15.205  -3.742  0.00  0.00     0.103 A 
ATOM      6  C   UNL d   1      27.439 -15.210  -4.666  0.00  0.00     0.052 A 
ENDROOT
BRANCH   1   7
ATOM      7  C   UNL d   1      29.666 -15.890  -5.456  0.00  0.00     0.150 C 
ATOM      8  N   UNL d   1      29.865 -14.890  -6.257  0.00  0.00    -0.184 NA
BRANCH   8   9
ATOM      9  N   UNL d   1      30.768 -15.009  -7.292  0.00  0.00    -0.246 N 
ATOM     10  C   UNL d   1      32.097 -15.325  -6.966  0.00  0.00     0.261 C 
ATOM     11  O   UNL d   1      32.481 -15.485  -5.805  0.00  0.00    -0.269 OA
ATOM     12  H   UNL d   1      30.455 -14.876  -8.246  0.00  0.00     0.192 HD
BRANCH  10  13
ATOM     13  C   UNL d   1      33.067 -15.470  -8.158  0.00  0.00     0.280 C 
BRANCH  13  14
ATOM     14  O   UNL d   1      32.827 -16.713  -8.843  0.00  0.00    -0.342 OA
BRANCH  14  15
ATOM     15  C   UNL d   1      32.419 -17.788  -8.104  0.00  0.00     0.069 A 
ATOM     16  C   UNL d   1      33.356 -18.351  -7.223  0.00  0.00     0.037 A 
ATOM     17  C   UNL d   1      33.053 -19.504  -6.481  0.00  0.00     0.010 A 
ATOM     18  C   UNL d   1      31.772 -20.057  -6.542  0.00  0.00    -0.058 A 
ATOM     19  C   UNL d   1      30.845 -19.470  -7.416  0.00  0.00     0.010 A 
ATOM     20  C   UNL d   1      31.157 -18.353  -8.182  0.00  0.00     0.037 A 
BRANCH  18  21
ATOM     21  C   UNL d   1      31.386 -21.209  -5.638  0.00  0.00     0.038 C 
BRANCH  21  22
ATOM     22  C   UNL d   1      30.779 -20.730  -4.317  0.00  0.00     0.004 C 
BRANCH  22  23
ATOM     23  C   UNL d   1      31.707 -19.843  -3.513  0.00  0.00    -0.004 C 
ATOM     24  C   UNL d   1      31.189 -18.413  -3.550  0.00  0.00     0.005 C 
ENDBRANCH  22  23
ENDBRANCH  21  22
ENDBRANCH  18  21
ENDBRANCH  14  15
ENDBRANCH  13  14
ENDBRANCH  10  13
ENDBRANCH   8   9
ENDBRANCH   1   7
BRANCH   5  25
ATOM     25  O   UNL d   1      25.133 -14.876  -4.110  0.00  0.00    -0.349 OA
BRANCH  25  26
ATOM     26  C   UNL d   1      24.582 -13.616  -3.774  0.00  0.00     0.171 C 
ATOM     27  C   UNL d   1      25.556 -12.543  -4.231  0.00  0.00     0.034 C 
ENDBRANCH  25  26
ENDBRANCH   5  25
BRANCH   4  28
ATOM     28  O   UNL d   1      25.583 -15.623  -1.395  0.00  0.00    -0.272 OA
BRANCH  28  29
ATOM     29  C   UNL d   1      25.406 -16.564  -0.375  0.00  0.00     0.298 C 
ATOM     30  O   UNL d   1      26.204 -16.993   0.459  0.00  0.00    -0.259 OA
BRANCH  29  31
ATOM     31  C   UNL d   1      24.109 -17.227  -0.298  0.00  0.00     0.040 A 
ATOM     32  C   UNL d   1      24.114 -18.633  -0.364  0.00  0.00     0.020 A 
ATOM     33  C   UNL d   1      22.956 -19.324  -0.716  0.00  0.00     0.038 A 
ATOM     34  C   UNL d   1      21.772 -18.619  -0.930  0.00  0.00     0.068 A 
ATOM     35  C   UNL d   1      21.783 -17.218  -0.895  0.00  0.00     0.038 A 
ATOM     36  C   UNL d   1      22.951 -16.515  -0.591  0.00  0.00     0.020 A 
BRANCH  34  37
ATOM     37  O   UNL d   1      20.670 -19.395  -1.166  0.00  0.00    -0.356 OA
ATOM     38  C   UNL d   1      19.918 -19.765  -0.015  0.00  0.00     0.210 C 
ENDBRANCH  34  37
ENDBRANCH  29  31
ENDBRANCH  28  29
ENDBRANCH   4  28
TORSDOF 14
ENDMDL
