MODEL 1
REMARK VINA RESULT:    -7.760      0.000      0.000
REMARK INTER + INTRA:         -15.872
REMARK INTER:                 -11.340
REMARK INTRA:                  -4.533
REMARK CONF_INDEPENDENT:        3.580
REMARK UNBOUND:                -4.533
REMARK  12 active torsions:
REMARK  status: ('A' for Active; 'I' for Inactive)
REMARK    1  A    between atoms: C_2  and  C_4 
REMARK    2  A    between atoms: C_2  and  O_3 
REMARK    3  A    between atoms: C_4  and  N_5 
REMARK    4  A    between atoms: C_4  and  C_17 
REMARK    5  A    between atoms: N_5  and  S_6 
REMARK    6  A    between atoms: S_6  and  C_9 
REMARK    7  A    between atoms: C_17  and  O_19 
REMARK    8  A    between atoms: O_19  and  C_20 
REMARK    9  A    between atoms: C_20  and  C_21 
REMARK       I    between atoms: C_21  and  N_23 
REMARK   10  A    between atoms: N_23  and  C_24 
REMARK   11  A    between atoms: C_24  and  C_25 
REMARK   12  A    between atoms: C_25  and  C_26 
ROOT
ATOM      1  C   UNL d   1      26.521 -12.162  -3.335  0.00  0.00     0.199 C 
ENDROOT
BRANCH   1   2
ATOM      2  C   UNL d   1      26.316 -11.036  -4.398  0.00  0.00     0.142 C 
ATOM      3  C   UNL d   1      25.508  -9.858  -3.892  0.00  0.00     0.041 C 
BRANCH   2   4
ATOM      4  O   UNL d   1      25.531 -11.404  -5.535  0.00  0.00    -0.394 OA
ATOM      5  H   UNL d   1      24.904 -12.110  -5.315  0.00  0.00     0.210 HD
ENDBRANCH   2   4
ENDBRANCH   1   2
BRANCH   1   6
ATOM      6  N   UNL d   1      27.150 -13.418  -3.945  0.00  0.00    -0.199 NA
ATOM      7  H   UNL d   1      27.866 -13.777  -3.304  0.00  0.00     0.141 HD
BRANCH   6   8
ATOM      8  S   UNL d   1      26.059 -14.687  -4.328  0.00  0.00     0.242 S 
ATOM      9  O   UNL d   1      24.751 -14.080  -4.370  0.00  0.00    -0.206 OA
ATOM     10  O   UNL d   1      26.566 -15.519  -5.395  0.00  0.00    -0.206 OA
BRANCH   8  11
ATOM     11  C   UNL d   1      26.150 -15.779  -2.954  0.00  0.00     0.076 A 
ATOM     12  C   UNL d   1      27.377 -16.084  -2.370  0.00  0.00     0.026 A 
ATOM     13  C   UNL d   1      27.389 -16.836  -1.195  0.00  0.00     0.027 A 
ATOM     14  C   UNL d   1      26.186 -17.260  -0.614  0.00  0.00     0.055 A 
ATOM     15 CL   UNL d   1      26.278 -18.204   0.829  0.00  0.00    -0.083 Cl
ATOM     16  C   UNL d   1      24.959 -16.915  -1.197  0.00  0.00     0.057 A 
ATOM     17 CL   UNL d   1      23.439 -17.405  -0.546  0.00  0.00    -0.083 Cl
ATOM     18  C   UNL d   1      24.942 -16.154  -2.360  0.00  0.00     0.050 A 
ENDBRANCH   8  11
ENDBRANCH   6   8
ENDBRANCH   1   6
BRANCH   1  19
ATOM     19  C   UNL d   1      27.401 -11.590  -2.175  0.00  0.00     0.280 C 
ATOM     20  O   UNL d   1      27.470 -10.404  -1.870  0.00  0.00    -0.263 OA
BRANCH  19  21
ATOM     21  O   UNL d   1      28.077 -12.548  -1.471  0.00  0.00    -0.311 OA
BRANCH  21  22
ATOM     22  C   UNL d   1      27.225 -13.494  -0.759  0.00  0.00     0.281 C 
BRANCH  22  23
ATOM     23  C   UNL d   1      26.875 -12.964   0.644  0.00  0.00     0.241 C 
ATOM     24  O   UNL d   1      26.352 -13.684   1.493  0.00  0.00    -0.271 OA
ATOM     25  N   UNL d   1      27.182 -11.634   0.907  0.00  0.00    -0.359 N 
ATOM     26  H   UNL d   1      27.601 -11.040   0.203  0.00  0.00     0.162 HD
BRANCH  25  27
ATOM     27  C   UNL d   1      26.881 -11.064   2.220  0.00  0.00     0.127 C 
BRANCH  27  28
ATOM     28  C   UNL d   1      28.094 -10.965   3.153  0.00  0.00     0.053 C 
BRANCH  28  29
ATOM     29  C   UNL d   1      28.115 -12.099   4.154  0.00  0.00    -0.082 C 
ATOM     30  C   UNL d   1      27.821 -11.881   5.449  0.00  0.00    -0.024 C 
ATOM     31  C   UNL d   1      27.811 -12.957   6.493  0.00  0.00     0.027 C 
ATOM     32  C   UNL d   1      28.537 -14.223   6.041  0.00  0.00     0.004 C 
ATOM     33  C   UNL d   1      28.141 -14.603   4.619  0.00  0.00     0.005 C 
ATOM     34  C   UNL d   1      28.467 -13.474   3.635  0.00  0.00     0.034 C 
ENDBRANCH  28  29
ENDBRANCH  27  28
ENDBRANCH  25  27
ENDBRANCH  22  23
ENDBRANCH  21  22
ENDBRANCH  19  21
ENDBRANCH   1  19
TORSDOF 12
ENDMDL
MODEL 2
REMARK VINA RESULT:    -7.642      4.072      7.231
REMARK INTER + INTRA:         -15.780
REMARK INTER:                 -11.222
REMARK INTRA:                  -4.558
REMARK CONF_INDEPENDENT:        3.580
REMARK UNBOUND:                -4.558
REMARK  12 active torsions:
REMARK  status: ('A' for Active; 'I' for Inactive)
REMARK    1  A    between atoms: C_2  and  C_4 
REMARK    2  A    between atoms: C_2  and  O_3 
REMARK    3  A    between atoms: C_4  and  N_5 
REMARK    4  A    between atoms: C_4  and  C_17 
REMARK    5  A    between atoms: N_5  and  S_6 
REMARK    6  A    between atoms: S_6  and  C_9 
REMARK    7  A    between atoms: C_17  and  O_19 
REMARK    8  A    between atoms: O_19  and  C_20 
REMARK    9  A    between atoms: C_20  and  C_21 
REMARK       I    between atoms: C_21  and  N_23 
REMARK   10  A    between atoms: N_23  and  C_24 
REMARK   11  A    between atoms: C_24  and  C_25 
REMARK   12  A    between atoms: C_25  and  C_26 
ROOT
ATOM      1  C   UNL d   1      27.085 -13.378  -5.165  0.00  0.00     0.199 C 
ENDROOT
BRANCH   1   2
ATOM      2  C   UNL d   1      26.881 -11.912  -5.663  0.00  0.00     0.142 C 
ATOM      3  C   UNL d   1      27.529 -10.869  -4.773  0.00  0.00     0.041 C 
BRANCH   2   4
ATOM      4  O   UNL d   1      25.530 -11.443  -5.647  0.00  0.00    -0.394 OA
ATOM      5  H   UNL d   1      24.975 -11.989  -5.069  0.00  0.00     0.210 HD
ENDBRANCH   2   4
ENDBRANCH   1   2
BRANCH   1   6
ATOM      6  N   UNL d   1      25.753 -14.116  -4.997  0.00  0.00    -0.199 NA
ATOM      7  H   UNL d   1      25.918 -15.124  -5.090  0.00  0.00     0.141 HD
BRANCH   6   8
ATOM      8  S   UNL d   1      24.918 -13.821  -3.527  0.00  0.00     0.242 S 
ATOM      9  O   UNL d   1      25.440 -12.575  -3.023  0.00  0.00    -0.206 OA
ATOM     10  O   UNL d   1      23.502 -14.075  -3.662  0.00  0.00    -0.206 OA
BRANCH   8  11
ATOM     11  C   UNL d   1      25.413 -15.131  -2.466  0.00  0.00     0.076 A 
ATOM     12  C   UNL d   1      26.719 -15.203  -1.988  0.00  0.00     0.026 A 
ATOM     13  C   UNL d   1      27.030 -16.173  -1.035  0.00  0.00     0.027 A 
ATOM     14  C   UNL d   1      26.038 -17.045  -0.562  0.00  0.00     0.055 A 
ATOM     15 CL   UNL d   1      26.499 -18.233   0.602  0.00  0.00    -0.083 Cl
ATOM     16  C   UNL d   1      24.721 -16.935  -1.029  0.00  0.00     0.057 A 
ATOM     17 CL   UNL d   1      23.449 -17.974  -0.502  0.00  0.00    -0.083 Cl
ATOM     18  C   UNL d   1      24.405 -15.961  -1.969  0.00  0.00     0.050 A 
ENDBRANCH   8  11
ENDBRANCH   6   8
ENDBRANCH   1   6
BRANCH   1  19
ATOM     19  C   UNL d   1      28.023 -14.116  -6.176  0.00  0.00     0.280 C 
ATOM     20  O   UNL d   1      28.050 -15.331  -6.344  0.00  0.00    -0.263 OA
BRANCH  19  21
ATOM     21  O   UNL d   1      28.804 -13.276  -6.920  0.00  0.00    -0.311 OA
BRANCH  21  22
ATOM     22  C   UNL d   1      30.090 -12.947  -6.315  0.00  0.00     0.281 C 
BRANCH  22  23
ATOM     23  C   UNL d   1      31.097 -14.096  -6.517  0.00  0.00     0.241 C 
ATOM     24  O   UNL d   1      32.226 -14.055  -6.031  0.00  0.00    -0.271 OA
ATOM     25  N   UNL d   1      30.668 -15.182  -7.271  0.00  0.00    -0.359 N 
ATOM     26  H   UNL d   1      29.742 -15.208  -7.680  0.00  0.00     0.162 HD
BRANCH  25  27
ATOM     27  C   UNL d   1      31.570 -16.310  -7.499  0.00  0.00     0.127 C 
BRANCH  27  28
ATOM     28  C   UNL d   1      30.860 -17.663  -7.630  0.00  0.00     0.053 C 
BRANCH  28  29
ATOM     29  C   UNL d   1      30.831 -18.401  -6.310  0.00  0.00    -0.082 C 
ATOM     30  C   UNL d   1      30.850 -17.730  -5.144  0.00  0.00    -0.024 C 
ATOM     31  C   UNL d   1      30.812 -18.394  -3.800  0.00  0.00     0.027 C 
ATOM     32  C   UNL d   1      31.145 -19.883  -3.869  0.00  0.00     0.004 C 
ATOM     33  C   UNL d   1      30.406 -20.556  -5.021  0.00  0.00     0.005 C 
ATOM     34  C   UNL d   1      30.769 -19.911  -6.362  0.00  0.00     0.034 C 
ENDBRANCH  28  29
ENDBRANCH  27  28
ENDBRANCH  25  27
ENDBRANCH  22  23
ENDBRANCH  21  22
ENDBRANCH  19  21
ENDBRANCH   1  19
TORSDOF 12
ENDMDL
MODEL 3
REMARK VINA RESULT:    -7.393      4.469      6.218
REMARK INTER + INTRA:         -16.106
REMARK INTER:                 -10.972
REMARK INTRA:                  -5.134
REMARK CONF_INDEPENDENT:        3.580
REMARK UNBOUND:                -5.134
REMARK  12 active torsions:
REMARK  status: ('A' for Active; 'I' for Inactive)
REMARK    1  A    between atoms: C_2  and  C_4 
REMARK    2  A    between atoms: C_2  and  O_3 
REMARK    3  A    between atoms: C_4  and  N_5 
REMARK    4  A    between atoms: C_4  and  C_17 
REMARK    5  A    between atoms: N_5  and  S_6 
REMARK    6  A    between atoms: S_6  and  C_9 
REMARK    7  A    between atoms: C_17  and  O_19 
REMARK    8  A    between atoms: O_19  and  C_20 
REMARK    9  A    between atoms: C_20  and  C_21 
REMARK       I    between atoms: C_21  and  N_23 
REMARK   10  A    between atoms: N_23  and  C_24 
REMARK   11  A    between atoms: C_24  and  C_25 
REMARK   12  A    between atoms: C_25  and  C_26 
ROOT
ATOM      1  C   UNL d   1      28.956 -14.444  -4.115  0.00  0.00     0.199 C 
ENDROOT
BRANCH   1   2
ATOM      2  C   UNL d   1      29.590 -14.563  -5.537  0.00  0.00     0.142 C 
ATOM      3  C   UNL d   1      29.538 -13.277  -6.338  0.00  0.00     0.041 C 
BRANCH   2   4
ATOM      4  O   UNL d   1      28.910 -15.442  -6.437  0.00  0.00    -0.394 OA
ATOM      5  H   UNL d   1      28.224 -15.952  -5.980  0.00  0.00     0.210 HD
ENDBRANCH   2   4
ENDBRANCH   1   2
BRANCH   1   6
ATOM      6  N   UNL d   1      27.934 -15.554  -3.849  0.00  0.00    -0.199 NA
ATOM      7  H   UNL d   1      27.926 -15.766  -2.845  0.00  0.00     0.141 HD
BRANCH   6   8
ATOM      8  S   UNL d   1      26.329 -15.226  -4.361  0.00  0.00     0.242 S 
ATOM      9  O   UNL d   1      26.294 -15.539  -5.768  0.00  0.00    -0.206 OA
ATOM     10  O   UNL d   1      25.357 -15.742  -3.424  0.00  0.00    -0.206 OA
BRANCH   8  11
ATOM     11  C   UNL d   1      26.141 -13.492  -4.146  0.00  0.00     0.076 A 
ATOM     12  C   UNL d   1      26.190 -12.925  -2.875  0.00  0.00     0.026 A 
ATOM     13  C   UNL d   1      26.182 -11.534  -2.763  0.00  0.00     0.027 A 
ATOM     14  C   UNL d   1      26.142 -10.732  -3.912  0.00  0.00     0.055 A 
ATOM     15 CL   UNL d   1      26.116  -9.019  -3.696  0.00  0.00    -0.083 Cl
ATOM     16  C   UNL d   1      26.128 -11.319  -5.184  0.00  0.00     0.057 A 
ATOM     17 CL   UNL d   1      26.071 -10.400  -6.642  0.00  0.00    -0.083 Cl
ATOM     18  C   UNL d   1      26.149 -12.704  -5.300  0.00  0.00     0.050 A 
ENDBRANCH   8  11
ENDBRANCH   6   8
ENDBRANCH   1   6
BRANCH   1  19
ATOM     19  C   UNL d   1      30.109 -14.467  -3.057  0.00  0.00     0.280 C 
ATOM     20  O   UNL d   1      31.012 -13.640  -2.991  0.00  0.00    -0.263 OA
BRANCH  19  21
ATOM     21  O   UNL d   1      30.008 -15.486  -2.152  0.00  0.00    -0.311 OA
BRANCH  21  22
ATOM     22  C   UNL d   1      29.490 -15.092  -0.847  0.00  0.00     0.281 C 
BRANCH  22  23
ATOM     23  C   UNL d   1      28.106 -15.720  -0.596  0.00  0.00     0.241 C 
ATOM     24  O   UNL d   1      27.121 -15.391  -1.254  0.00  0.00    -0.271 OA
ATOM     25  N   UNL d   1      28.025 -16.681   0.405  0.00  0.00    -0.359 N 
ATOM     26  H   UNL d   1      28.835 -16.942   0.952  0.00  0.00     0.162 HD
BRANCH  25  27
ATOM     27  C   UNL d   1      26.743 -17.323   0.694  0.00  0.00     0.127 C 
BRANCH  27  28
ATOM     28  C   UNL d   1      26.121 -18.048  -0.506  0.00  0.00     0.053 C 
BRANCH  28  29
ATOM     29  C   UNL d   1      24.614 -17.918  -0.508  0.00  0.00    -0.082 C 
ATOM     30  C   UNL d   1      23.832 -18.951  -0.143  0.00  0.00    -0.024 C 
ATOM     31  C   UNL d   1      22.334 -18.889  -0.111  0.00  0.00     0.027 C 
ATOM     32  C   UNL d   1      21.776 -17.704  -0.896  0.00  0.00     0.004 C 
ATOM     33  C   UNL d   1      22.550 -16.428  -0.585  0.00  0.00     0.005 C 
ATOM     34  C   UNL d   1      24.035 -16.586  -0.927  0.00  0.00     0.034 C 
ENDBRANCH  28  29
ENDBRANCH  27  28
ENDBRANCH  25  27
ENDBRANCH  22  23
ENDBRANCH  21  22
ENDBRANCH  19  21
ENDBRANCH   1  19
TORSDOF 12
ENDMDL
MODEL 4
REMARK VINA RESULT:    -6.847      3.715      7.231
REMARK INTER + INTRA:         -15.593
REMARK INTER:                 -10.427
REMARK INTRA:                  -5.166
REMARK CONF_INDEPENDENT:        3.580
REMARK UNBOUND:                -5.166
REMARK  12 active torsions:
REMARK  status: ('A' for Active; 'I' for Inactive)
REMARK    1  A    between atoms: C_2  and  C_4 
REMARK    2  A    between atoms: C_2  and  O_3 
REMARK    3  A    between atoms: C_4  and  N_5 
REMARK    4  A    between atoms: C_4  and  C_17 
REMARK    5  A    between atoms: N_5  and  S_6 
REMARK    6  A    between atoms: S_6  and  C_9 
REMARK    7  A    between atoms: C_17  and  O_19 
REMARK    8  A    between atoms: O_19  and  C_20 
REMARK    9  A    between atoms: C_20  and  C_21 
REMARK       I    between atoms: C_21  and  N_23 
REMARK   10  A    between atoms: N_23  and  C_24 
REMARK   11  A    between atoms: C_24  and  C_25 
REMARK   12  A    between atoms: C_25  and  C_26 
ROOT
ATOM      1  C   UNL d   1      27.584 -12.143  -4.192  0.00  0.00     0.199 C 
ENDROOT
BRANCH   1   2
ATOM      2  C   UNL d   1      26.727 -11.566  -3.021  0.00  0.00     0.142 C 
ATOM      3  C   UNL d   1      26.806 -12.384  -1.746  0.00  0.00     0.041 C 
BRANCH   2   4
ATOM      4  O   UNL d   1      25.313 -11.578  -3.234  0.00  0.00    -0.394 OA
ATOM      5  H   UNL d   1      25.100 -11.666  -4.176  0.00  0.00     0.210 HD
ENDBRANCH   2   4
ENDBRANCH   1   2
BRANCH   1   6
ATOM      6  N   UNL d   1      27.845 -13.643  -4.024  0.00  0.00    -0.199 NA
ATOM      7  H   UNL d   1      28.202 -13.815  -3.078  0.00  0.00     0.141 HD
BRANCH   6   8
ATOM      8  S   UNL d   1      26.498 -14.669  -4.307  0.00  0.00     0.242 S 
ATOM      9  O   UNL d   1      25.337 -13.816  -4.256  0.00  0.00    -0.206 OA
ATOM     10  O   UNL d   1      26.748 -15.581  -5.401  0.00  0.00    -0.206 OA
BRANCH   8  11
ATOM     11  C   UNL d   1      26.478 -15.763  -2.933  0.00  0.00     0.076 A 
ATOM     12  C   UNL d   1      27.643 -16.021  -2.213  0.00  0.00     0.026 A 
ATOM     13  C   UNL d   1      27.553 -16.778  -1.044  0.00  0.00     0.027 A 
ATOM     14  C   UNL d   1      26.309 -17.254  -0.603  0.00  0.00     0.055 A 
ATOM     15 CL   UNL d   1      26.277 -18.200   0.840  0.00  0.00    -0.083 Cl
ATOM     16  C   UNL d   1      25.144 -16.956  -1.322  0.00  0.00     0.057 A 
ATOM     17 CL   UNL d   1      23.581 -17.511  -0.847  0.00  0.00    -0.083 Cl
ATOM     18  C   UNL d   1      25.228 -16.191  -2.479  0.00  0.00     0.050 A 
ENDBRANCH   8  11
ENDBRANCH   6   8
ENDBRANCH   1   6
BRANCH   1  19
ATOM     19  C   UNL d   1      26.847 -11.840  -5.538  0.00  0.00     0.280 C 
ATOM     20  O   UNL d   1      26.044 -10.928  -5.705  0.00  0.00    -0.263 OA
BRANCH  19  21
ATOM     21  O   UNL d   1      27.211 -12.667  -6.564  0.00  0.00    -0.311 OA
BRANCH  21  22
ATOM     22  C   UNL d   1      28.381 -12.228  -7.315  0.00  0.00     0.281 C 
BRANCH  22  23
ATOM     23  C   UNL d   1      29.485 -13.303  -7.283  0.00  0.00     0.241 C 
ATOM     24  O   UNL d   1      30.504 -13.199  -7.964  0.00  0.00    -0.271 OA
ATOM     25  N   UNL d   1      29.276 -14.392  -6.446  0.00  0.00    -0.359 N 
ATOM     26  H   UNL d   1      28.431 -14.480  -5.896  0.00  0.00     0.162 HD
BRANCH  25  27
ATOM     27  C   UNL d   1      30.284 -15.448  -6.362  0.00  0.00     0.127 C 
BRANCH  27  28
ATOM     28  C   UNL d   1      29.981 -16.522  -5.311  0.00  0.00     0.053 C 
BRANCH  28  29
ATOM     29  C   UNL d   1      30.400 -17.895  -5.787  0.00  0.00    -0.082 C 
ATOM     30  C   UNL d   1      30.408 -18.945  -4.945  0.00  0.00    -0.024 C 
ATOM     31  C   UNL d   1      30.801 -20.334  -5.350  0.00  0.00     0.027 C 
ATOM     32  C   UNL d   1      31.558 -20.369  -6.676  0.00  0.00     0.004 C 
ATOM     33  C   UNL d   1      30.878 -19.486  -7.717  0.00  0.00     0.005 C 
ATOM     34  C   UNL d   1      30.796 -18.033  -7.239  0.00  0.00     0.034 C 
ENDBRANCH  28  29
ENDBRANCH  27  28
ENDBRANCH  25  27
ENDBRANCH  22  23
ENDBRANCH  21  22
ENDBRANCH  19  21
ENDBRANCH   1  19
TORSDOF 12
ENDMDL
MODEL 5
REMARK VINA RESULT:    -6.319      3.580      6.134
REMARK INTER + INTRA:         -15.855
REMARK INTER:                  -9.899
REMARK INTRA:                  -5.957
REMARK CONF_INDEPENDENT:        3.580
REMARK UNBOUND:                -5.957
REMARK  12 active torsions:
REMARK  status: ('A' for Active; 'I' for Inactive)
REMARK    1  A    between atoms: C_2  and  C_4 
REMARK    2  A    between atoms: C_2  and  O_3 
REMARK    3  A    between atoms: C_4  and  N_5 
REMARK    4  A    between atoms: C_4  and  C_17 
REMARK    5  A    between atoms: N_5  and  S_6 
REMARK    6  A    between atoms: S_6  and  C_9 
REMARK    7  A    between atoms: C_17  and  O_19 
REMARK    8  A    between atoms: O_19  and  C_20 
REMARK    9  A    between atoms: C_20  and  C_21 
REMARK       I    between atoms: C_21  and  N_23 
REMARK   10  A    between atoms: N_23  and  C_24 
REMARK   11  A    between atoms: C_24  and  C_25 
REMARK   12  A    between atoms: C_25  and  C_26 
ROOT
ATOM      1  C   UNL d   1      28.464 -14.304  -3.136  0.00  0.00     0.199 C 
ENDROOT
BRANCH   1   2
ATOM      2  C   UNL d   1      29.626 -15.226  -2.649  0.00  0.00     0.142 C 
ATOM      3  C   UNL d   1      30.445 -15.822  -3.777  0.00  0.00     0.041 C 
BRANCH   2   4
ATOM      4  O   UNL d   1      29.219 -16.423  -1.981  0.00  0.00    -0.394 OA
ATOM      5  H   UNL d   1      28.286 -16.623  -2.156  0.00  0.00     0.210 HD
ENDBRANCH   2   4
ENDBRANCH   1   2
BRANCH   1   6
ATOM      6  N   UNL d   1      27.139 -15.066  -3.252  0.00  0.00    -0.199 NA
ATOM      7  H   UNL d   1      26.590 -14.910  -2.400  0.00  0.00     0.141 HD
BRANCH   6   8
ATOM      8  S   UNL d   1      26.174 -14.675  -4.616  0.00  0.00     0.242 S 
ATOM      9  O   UNL d   1      26.598 -15.567  -5.666  0.00  0.00    -0.206 OA
ATOM     10  O   UNL d   1      24.785 -14.505  -4.251  0.00  0.00    -0.206 OA
BRANCH   8  11
ATOM     11  C   UNL d   1      26.634 -13.030  -5.028  0.00  0.00     0.076 A 
ATOM     12  C   UNL d   1      27.413 -12.771  -6.154  0.00  0.00     0.026 A 
ATOM     13  C   UNL d   1      27.632 -11.444  -6.525  0.00  0.00     0.027 A 
ATOM     14  C   UNL d   1      27.063 -10.399  -5.782  0.00  0.00     0.055 A 
ATOM     15 CL   UNL d   1      27.393  -8.782  -6.289  0.00  0.00    -0.083 Cl
ATOM     16  C   UNL d   1      26.254 -10.679  -4.673  0.00  0.00     0.057 A 
ATOM     17 CL   UNL d   1      25.527  -9.449  -3.707  0.00  0.00    -0.083 Cl
ATOM     18  C   UNL d   1      26.023 -12.000  -4.308  0.00  0.00     0.050 A 
ENDBRANCH   8  11
ENDBRANCH   6   8
ENDBRANCH   1   6
BRANCH   1  19
ATOM     19  C   UNL d   1      28.342 -13.099  -2.145  0.00  0.00     0.280 C 
ATOM     20  O   UNL d   1      29.232 -12.285  -1.924  0.00  0.00    -0.263 OA
BRANCH  19  21
ATOM     21  O   UNL d   1      27.113 -12.989  -1.558  0.00  0.00    -0.311 OA
BRANCH  21  22
ATOM     22  C   UNL d   1      27.144 -12.749  -0.120  0.00  0.00     0.281 C 
BRANCH  22  23
ATOM     23  C   UNL d   1      27.231 -14.079   0.654  0.00  0.00     0.241 C 
ATOM     24  O   UNL d   1      27.050 -14.129   1.869  0.00  0.00    -0.271 OA
ATOM     25  N   UNL d   1      27.517 -15.219  -0.088  0.00  0.00    -0.359 N 
ATOM     26  H   UNL d   1      27.676 -15.172  -1.087  0.00  0.00     0.162 HD
BRANCH  25  27
ATOM     27  C   UNL d   1      27.609 -16.517   0.580  0.00  0.00     0.127 C 
BRANCH  27  28
ATOM     28  C   UNL d   1      26.954 -17.667  -0.194  0.00  0.00     0.053 C 
BRANCH  28  29
ATOM     29  C   UNL d   1      25.485 -17.403  -0.437  0.00  0.00    -0.082 C 
ATOM     30  C   UNL d   1      25.089 -16.411  -1.255  0.00  0.00    -0.024 C 
ATOM     31  C   UNL d   1      23.652 -16.100  -1.551  0.00  0.00     0.027 C 
ATOM     32  C   UNL d   1      22.692 -16.740  -0.549  0.00  0.00     0.004 C 
ATOM     33  C   UNL d   1      23.068 -18.193  -0.283  0.00  0.00     0.005 C 
ATOM     34  C   UNL d   1      24.494 -18.302   0.267  0.00  0.00     0.034 C 
ENDBRANCH  28  29
ENDBRANCH  27  28
ENDBRANCH  25  27
ENDBRANCH  22  23
ENDBRANCH  21  22
ENDBRANCH  19  21
ENDBRANCH   1  19
TORSDOF 12
ENDMDL
MODEL 6
REMARK VINA RESULT:    -6.283      2.740      5.695
REMARK INTER + INTRA:         -15.829
REMARK INTER:                  -9.862
REMARK INTRA:                  -5.966
REMARK CONF_INDEPENDENT:        3.580
REMARK UNBOUND:                -5.966
REMARK  12 active torsions:
REMARK  status: ('A' for Active; 'I' for Inactive)
REMARK    1  A    between atoms: C_2  and  C_4 
REMARK    2  A    between atoms: C_2  and  O_3 
REMARK    3  A    between atoms: C_4  and  N_5 
REMARK    4  A    between atoms: C_4  and  C_17 
REMARK    5  A    between atoms: N_5  and  S_6 
REMARK    6  A    between atoms: S_6  and  C_9 
REMARK    7  A    between atoms: C_17  and  O_19 
REMARK    8  A    between atoms: O_19  and  C_20 
REMARK    9  A    between atoms: C_20  and  C_21 
REMARK       I    between atoms: C_21  and  N_23 
REMARK   10  A    between atoms: N_23  and  C_24 
REMARK   11  A    between atoms: C_24  and  C_25 
REMARK   12  A    between atoms: C_25  and  C_26 
ROOT
ATOM      1  C   UNL d   1      26.692 -13.227  -4.029  0.00  0.00     0.199 C 
ENDROOT
BRANCH   1   2
ATOM      2  C   UNL d   1      25.699 -12.135  -4.541  0.00  0.00     0.142 C 
ATOM      3  C   UNL d   1      26.228 -11.330  -5.712  0.00  0.00     0.041 C 
BRANCH   2   4
ATOM      4  O   UNL d   1      25.424 -11.078  -3.619  0.00  0.00    -0.394 OA
ATOM      5  H   UNL d   1      25.703 -11.313  -2.720  0.00  0.00     0.210 HD
ENDBRANCH   2   4
ENDBRANCH   1   2
BRANCH   1   6
ATOM      6  N   UNL d   1      26.747 -13.278  -2.498  0.00  0.00    -0.199 NA
ATOM      7  H   UNL d   1      26.875 -14.251  -2.202  0.00  0.00     0.141 HD
BRANCH   6   8
ATOM      8  S   UNL d   1      27.958 -12.308  -1.765  0.00  0.00     0.242 S 
ATOM      9  O   UNL d   1      29.210 -12.752  -2.326  0.00  0.00    -0.206 OA
ATOM     10  O   UNL d   1      27.571 -10.916  -1.727  0.00  0.00    -0.206 OA
BRANCH   8  11
ATOM     11  C   UNL d   1      27.898 -12.737  -0.062  0.00  0.00     0.076 A 
ATOM     12  C   UNL d   1      26.678 -12.841   0.602  0.00  0.00     0.026 A 
ATOM     13  C   UNL d   1      26.668 -13.325   1.910  0.00  0.00     0.027 A 
ATOM     14  C   UNL d   1      27.865 -13.710   2.532  0.00  0.00     0.055 A 
ATOM     15 CL   UNL d   1      27.778 -14.281   4.158  0.00  0.00    -0.083 Cl
ATOM     16  C   UNL d   1      29.079 -13.631   1.837  0.00  0.00     0.057 A 
ATOM     17 CL   UNL d   1      30.591 -14.079   2.535  0.00  0.00    -0.083 Cl
ATOM     18  C   UNL d   1      29.091 -13.162   0.529  0.00  0.00     0.050 A 
ENDBRANCH   8  11
ENDBRANCH   6   8
ENDBRANCH   1   6
BRANCH   1  19
ATOM     19  C   UNL d   1      26.261 -14.606  -4.629  0.00  0.00     0.280 C 
ATOM     20  O   UNL d   1      25.156 -15.117  -4.483  0.00  0.00    -0.263 OA
BRANCH  19  21
ATOM     21  O   UNL d   1      27.226 -15.200  -5.395  0.00  0.00    -0.311 OA
BRANCH  21  22
ATOM     22  C   UNL d   1      28.588 -15.020  -4.906  0.00  0.00     0.281 C 
BRANCH  22  23
ATOM     23  C   UNL d   1      28.900 -16.023  -3.778  0.00  0.00     0.241 C 
ATOM     24  O   UNL d   1      29.357 -17.139  -4.018  0.00  0.00    -0.271 OA
ATOM     25  N   UNL d   1      28.645 -15.604  -2.478  0.00  0.00    -0.359 N 
ATOM     26  H   UNL d   1      28.258 -14.689  -2.284  0.00  0.00     0.162 HD
BRANCH  25  27
ATOM     27  C   UNL d   1      28.922 -16.502  -1.357  0.00  0.00     0.127 C 
BRANCH  27  28
ATOM     28  C   UNL d   1      28.039 -16.260  -0.127  0.00  0.00     0.053 C 
BRANCH  28  29
ATOM     29  C   UNL d   1      26.615 -16.709  -0.372  0.00  0.00    -0.082 C 
ATOM     30  C   UNL d   1      25.828 -16.059  -1.249  0.00  0.00    -0.024 C 
ATOM     31  C   UNL d   1      24.414 -16.455  -1.550  0.00  0.00     0.027 C 
ATOM     32  C   UNL d   1      23.830 -17.398  -0.500  0.00  0.00     0.004 C 
ATOM     33  C   UNL d   1      24.820 -18.501  -0.144  0.00  0.00     0.005 C 
ATOM     34  C   UNL d   1      26.128 -17.915   0.398  0.00  0.00     0.034 C 
ENDBRANCH  28  29
ENDBRANCH  27  28
ENDBRANCH  25  27
ENDBRANCH  22  23
ENDBRANCH  21  22
ENDBRANCH  19  21
ENDBRANCH   1  19
TORSDOF 12
ENDMDL
MODEL 7
REMARK VINA RESULT:    -6.118      2.794      4.112
REMARK INTER + INTRA:         -15.861
REMARK INTER:                  -9.698
REMARK INTRA:                  -6.163
REMARK CONF_INDEPENDENT:        3.580
REMARK UNBOUND:                -6.163
REMARK  12 active torsions:
REMARK  status: ('A' for Active; 'I' for Inactive)
REMARK    1  A    between atoms: C_2  and  C_4 
REMARK    2  A    between atoms: C_2  and  O_3 
REMARK    3  A    between atoms: C_4  and  N_5 
REMARK    4  A    between atoms: C_4  and  C_17 
REMARK    5  A    between atoms: N_5  and  S_6 
REMARK    6  A    between atoms: S_6  and  C_9 
REMARK    7  A    between atoms: C_17  and  O_19 
REMARK    8  A    between atoms: O_19  and  C_20 
REMARK    9  A    between atoms: C_20  and  C_21 
REMARK       I    between atoms: C_21  and  N_23 
REMARK   10  A    between atoms: N_23  and  C_24 
REMARK   11  A    between atoms: C_24  and  C_25 
REMARK   12  A    between atoms: C_25  and  C_26 
ROOT
ATOM      1  C   UNL d   1      27.201 -13.182  -5.092  0.00  0.00     0.199 C 
ENDROOT
BRANCH   1   2
ATOM      2  C   UNL d   1      26.923 -11.738  -5.620  0.00  0.00     0.142 C 
ATOM      3  C   UNL d   1      27.637 -10.654  -4.836  0.00  0.00     0.041 C 
BRANCH   2   4
ATOM      4  O   UNL d   1      25.573 -11.288  -5.489  0.00  0.00    -0.394 OA
ATOM      5  H   UNL d   1      25.034 -11.930  -5.001  0.00  0.00     0.210 HD
ENDBRANCH   2   4
ENDBRANCH   1   2
BRANCH   1   6
ATOM      6  N   UNL d   1      25.920 -14.019  -5.017  0.00  0.00    -0.199 NA
ATOM      7  H   UNL d   1      26.162 -15.009  -5.132  0.00  0.00     0.141 HD
BRANCH   6   8
ATOM      8  S   UNL d   1      24.994 -13.836  -3.583  0.00  0.00     0.242 S 
ATOM      9  O   UNL d   1      25.479 -12.633  -2.954  0.00  0.00    -0.206 OA
ATOM     10  O   UNL d   1      23.589 -14.077  -3.825  0.00  0.00    -0.206 OA
BRANCH   8  11
ATOM     11  C   UNL d   1      25.426 -15.224  -2.596  0.00  0.00     0.076 A 
ATOM     12  C   UNL d   1      26.761 -15.529  -2.344  0.00  0.00     0.026 A 
ATOM     13  C   UNL d   1      27.055 -16.549  -1.439  0.00  0.00     0.027 A 
ATOM     14  C   UNL d   1      26.021 -17.239  -0.791  0.00  0.00     0.055 A 
ATOM     15 CL   UNL d   1      26.459 -18.503   0.301  0.00  0.00    -0.083 Cl
ATOM     16  C   UNL d   1      24.684 -16.896  -1.031  0.00  0.00     0.057 A 
ATOM     17 CL   UNL d   1      23.358 -17.703  -0.278  0.00  0.00    -0.083 Cl
ATOM     18  C   UNL d   1      24.387 -15.872  -1.921  0.00  0.00     0.050 A 
ENDBRANCH   8  11
ENDBRANCH   6   8
ENDBRANCH   1   6
BRANCH   1  19
ATOM     19  C   UNL d   1      28.265 -13.851  -6.022  0.00  0.00     0.280 C 
ATOM     20  O   UNL d   1      29.186 -13.256  -6.572  0.00  0.00    -0.263 OA
BRANCH  19  21
ATOM     21  O   UNL d   1      28.117 -15.205  -6.146  0.00  0.00    -0.311 OA
BRANCH  21  22
ATOM     22  C   UNL d   1      29.288 -15.983  -5.761  0.00  0.00     0.281 C 
BRANCH  22  23
ATOM     23  C   UNL d   1      29.628 -15.758  -4.275  0.00  0.00     0.241 C 
ATOM     24  O   UNL d   1      29.570 -16.674  -3.455  0.00  0.00    -0.271 OA
ATOM     25  N   UNL d   1      30.010 -14.474  -3.906  0.00  0.00    -0.359 N 
ATOM     26  H   UNL d   1      30.046 -13.720  -4.580  0.00  0.00     0.162 HD
BRANCH  25  27
ATOM     27  C   UNL d   1      30.351 -14.189  -2.512  0.00  0.00     0.127 C 
BRANCH  27  28
ATOM     28  C   UNL d   1      29.687 -12.927  -1.950  0.00  0.00     0.053 C 
BRANCH  28  29
ATOM     29  C   UNL d   1      28.713 -13.262  -0.842  0.00  0.00    -0.082 C 
ATOM     30  C   UNL d   1      28.990 -14.229   0.051  0.00  0.00    -0.024 C 
ATOM     31  C   UNL d   1      28.078 -14.606   1.180  0.00  0.00     0.027 C 
ATOM     32  C   UNL d   1      26.657 -14.079   0.990  0.00  0.00     0.004 C 
ATOM     33  C   UNL d   1      26.670 -12.623   0.538  0.00  0.00     0.005 C 
ATOM     34  C   UNL d   1      27.432 -12.461  -0.781  0.00  0.00     0.034 C 
ENDBRANCH  28  29
ENDBRANCH  27  28
ENDBRANCH  25  27
ENDBRANCH  22  23
ENDBRANCH  21  22
ENDBRANCH  19  21
ENDBRANCH   1  19
TORSDOF 12
ENDMDL
MODEL 8
REMARK VINA RESULT:    -5.061      4.585      7.549
REMARK INTER + INTRA:         -15.591
REMARK INTER:                  -8.641
REMARK INTRA:                  -6.950
REMARK CONF_INDEPENDENT:        3.580
REMARK UNBOUND:                -6.950
REMARK  12 active torsions:
REMARK  status: ('A' for Active; 'I' for Inactive)
REMARK    1  A    between atoms: C_2  and  C_4 
REMARK    2  A    between atoms: C_2  and  O_3 
REMARK    3  A    between atoms: C_4  and  N_5 
REMARK    4  A    between atoms: C_4  and  C_17 
REMARK    5  A    between atoms: N_5  and  S_6 
REMARK    6  A    between atoms: S_6  and  C_9 
REMARK    7  A    between atoms: C_17  and  O_19 
REMARK    8  A    between atoms: O_19  and  C_20 
REMARK    9  A    between atoms: C_20  and  C_21 
REMARK       I    between atoms: C_21  and  N_23 
REMARK   10  A    between atoms: N_23  and  C_24 
REMARK   11  A    between atoms: C_24  and  C_25 
REMARK   12  A    between atoms: C_25  and  C_26 
ROOT
ATOM      1  C   UNL d   1      25.003 -16.901  -1.061  0.00  0.00     0.199 C 
ENDROOT
BRANCH   1   2
ATOM      2  C   UNL d   1      23.571 -17.262  -0.553  0.00  0.00     0.142 C 
ATOM      3  C   UNL d   1      22.970 -18.477  -1.232  0.00  0.00     0.041 C 
BRANCH   2   4
ATOM      4  O   UNL d   1      22.559 -16.294  -0.840  0.00  0.00    -0.394 OA
ATOM      5  H   UNL d   1      22.932 -15.515  -1.282  0.00  0.00     0.210 HD
ENDBRANCH   2   4
ENDBRANCH   1   2
BRANCH   1   6
ATOM      6  N   UNL d   1      25.165 -15.396  -1.294  0.00  0.00    -0.199 NA
ATOM      7  H   UNL d   1      26.111 -15.115  -1.011  0.00  0.00     0.141 HD
BRANCH   6   8
ATOM      8  S   UNL d   1      24.881 -14.856  -2.898  0.00  0.00     0.242 S 
ATOM      9  O   UNL d   1      25.530 -15.815  -3.757  0.00  0.00    -0.206 OA
ATOM     10  O   UNL d   1      23.506 -14.450  -3.085  0.00  0.00    -0.206 OA
BRANCH   8  11
ATOM     11  C   UNL d   1      25.721 -13.316  -3.004  0.00  0.00     0.076 A 
ATOM     12  C   UNL d   1      26.612 -12.924  -2.008  0.00  0.00     0.026 A 
ATOM     13  C   UNL d   1      27.365 -11.766  -2.203  0.00  0.00     0.027 A 
ATOM     14  C   UNL d   1      27.231 -11.026  -3.387  0.00  0.00     0.055 A 
ATOM     15 CL   UNL d   1      28.181  -9.593  -3.551  0.00  0.00    -0.083 Cl
ATOM     16  C   UNL d   1      26.355 -11.454  -4.393  0.00  0.00     0.057 A 
ATOM     17 CL   UNL d   1      26.130 -10.595  -5.872  0.00  0.00    -0.083 Cl
ATOM     18  C   UNL d   1      25.613 -12.615  -4.208  0.00  0.00     0.050 A 
ENDBRANCH   8  11
ENDBRANCH   6   8
ENDBRANCH   1   6
BRANCH   1  19
ATOM     19  C   UNL d   1      26.044 -17.432  -0.021  0.00  0.00     0.280 C 
ATOM     20  O   UNL d   1      25.963 -18.509   0.561  0.00  0.00    -0.263 OA
BRANCH  19  21
ATOM     21  O   UNL d   1      27.111 -16.599   0.166  0.00  0.00    -0.311 OA
BRANCH  21  22
ATOM     22  C   UNL d   1      28.407 -17.190  -0.146  0.00  0.00     0.281 C 
BRANCH  22  23
ATOM     23  C   UNL d   1      28.922 -16.689  -1.509  0.00  0.00     0.241 C 
ATOM     24  O   UNL d   1      30.114 -16.745  -1.807  0.00  0.00    -0.271 OA
ATOM     25  N   UNL d   1      27.975 -16.174  -2.387  0.00  0.00    -0.359 N 
ATOM     26  H   UNL d   1      26.997 -16.118  -2.134  0.00  0.00     0.162 HD
BRANCH  25  27
ATOM     27  C   UNL d   1      28.392 -15.684  -3.700  0.00  0.00     0.127 C 
BRANCH  27  28
ATOM     28  C   UNL d   1      29.172 -14.364  -3.657  0.00  0.00     0.053 C 
BRANCH  28  29
ATOM     29  C   UNL d   1      29.152 -13.667  -4.999  0.00  0.00    -0.082 C 
ATOM     30  C   UNL d   1      29.920 -12.586  -5.226  0.00  0.00    -0.024 C 
ATOM     31  C   UNL d   1      29.960 -11.853  -6.534  0.00  0.00     0.027 C 
ATOM     32  C   UNL d   1      28.777 -12.196  -7.438  0.00  0.00     0.004 C 
ATOM     33  C   UNL d   1      28.530 -13.700  -7.469  0.00  0.00     0.005 C 
ATOM     34  C   UNL d   1      28.246 -14.242  -6.064  0.00  0.00     0.034 C 
ENDBRANCH  28  29
ENDBRANCH  27  28
ENDBRANCH  25  27
ENDBRANCH  22  23
ENDBRANCH  21  22
ENDBRANCH  19  21
ENDBRANCH   1  19
TORSDOF 12
ENDMDL
MODEL 9
REMARK VINA RESULT:    -4.784      3.515      6.252
REMARK INTER + INTRA:         -15.622
REMARK INTER:                  -8.364
REMARK INTRA:                  -7.258
REMARK CONF_INDEPENDENT:        3.580
REMARK UNBOUND:                -7.258
REMARK  12 active torsions:
REMARK  status: ('A' for Active; 'I' for Inactive)
REMARK    1  A    between atoms: C_2  and  C_4 
REMARK    2  A    between atoms: C_2  and  O_3 
REMARK    3  A    between atoms: C_4  and  N_5 
REMARK    4  A    between atoms: C_4  and  C_17 
REMARK    5  A    between atoms: N_5  and  S_6 
REMARK    6  A    between atoms: S_6  and  C_9 
REMARK    7  A    between atoms: C_17  and  O_19 
REMARK    8  A    between atoms: O_19  and  C_20 
REMARK    9  A    between atoms: C_20  and  C_21 
REMARK       I    between atoms: C_21  and  N_23 
REMARK   10  A    between atoms: N_23  and  C_24 
REMARK   11  A    between atoms: C_24  and  C_25 
REMARK   12  A    between atoms: C_25  and  C_26 
ROOT
ATOM      1  C   UNL d   1      26.439 -11.099  -4.000  0.00  0.00     0.199 C 
ENDROOT
BRANCH   1   2
ATOM      2  C   UNL d   1      26.266 -10.824  -5.527  0.00  0.00     0.142 C 
ATOM      3  C   UNL d   1      25.934  -9.381  -5.854  0.00  0.00     0.041 C 
BRANCH   2   4
ATOM      4  O   UNL d   1      25.155 -11.479  -6.145  0.00  0.00    -0.394 OA
ATOM      5  H   UNL d   1      24.782 -12.161  -5.565  0.00  0.00     0.210 HD
ENDBRANCH   2   4
ENDBRANCH   1   2
BRANCH   1   6
ATOM      6  N   UNL d   1      25.290 -11.943  -3.437  0.00  0.00    -0.199 NA
ATOM      7  H   UNL d   1      24.405 -11.449  -3.595  0.00  0.00     0.141 HD
BRANCH   6   8
ATOM      8  S   UNL d   1      25.159 -13.535  -4.067  0.00  0.00     0.242 S 
ATOM      9  O   UNL d   1      23.770 -13.708  -4.410  0.00  0.00    -0.206 OA
ATOM     10  O   UNL d   1      26.232 -13.830  -4.990  0.00  0.00    -0.206 OA
BRANCH   8  11
ATOM     11  C   UNL d   1      25.560 -14.581  -2.714  0.00  0.00     0.076 A 
ATOM     12  C   UNL d   1      25.416 -15.963  -2.817  0.00  0.00     0.026 A 
ATOM     13  C   UNL d   1      25.882 -16.764  -1.774  0.00  0.00     0.027 A 
ATOM     14  C   UNL d   1      26.496 -16.182  -0.655  0.00  0.00     0.055 A 
ATOM     15 CL   UNL d   1      27.031 -17.234   0.605  0.00  0.00    -0.083 Cl
ATOM     16  C   UNL d   1      26.663 -14.793  -0.584  0.00  0.00     0.057 A 
ATOM     17 CL   UNL d   1      27.401 -14.004   0.761  0.00  0.00    -0.083 Cl
ATOM     18  C   UNL d   1      26.212 -13.993  -1.627  0.00  0.00     0.050 A 
ENDBRANCH   8  11
ENDBRANCH   6   8
ENDBRANCH   1   6
BRANCH   1  19
ATOM     19  C   UNL d   1      27.820 -11.797  -3.777  0.00  0.00     0.280 C 
ATOM     20  O   UNL d   1      28.604 -12.096  -4.672  0.00  0.00    -0.263 OA
BRANCH  19  21
ATOM     21  O   UNL d   1      28.123 -12.017  -2.462  0.00  0.00    -0.311 OA
BRANCH  21  22
ATOM     22  C   UNL d   1      29.504 -12.413  -2.212  0.00  0.00     0.281 C 
BRANCH  22  23
ATOM     23  C   UNL d   1      29.687 -13.926  -2.440  0.00  0.00     0.241 C 
ATOM     24  O   UNL d   1      30.575 -14.560  -1.873  0.00  0.00    -0.271 OA
ATOM     25  N   UNL d   1      28.797 -14.541  -3.313  0.00  0.00    -0.359 N 
ATOM     26  H   UNL d   1      28.075 -14.015  -3.788  0.00  0.00     0.162 HD
BRANCH  25  27
ATOM     27  C   UNL d   1      28.909 -15.976  -3.574  0.00  0.00     0.127 C 
BRANCH  27  28
ATOM     28  C   UNL d   1      29.278 -16.323  -5.021  0.00  0.00     0.053 C 
BRANCH  28  29
ATOM     29  C   UNL d   1      29.508 -15.076  -5.846  0.00  0.00    -0.082 C 
ATOM     30  C   UNL d   1      28.527 -14.567  -6.615  0.00  0.00    -0.024 C 
ATOM     31  C   UNL d   1      28.680 -13.330  -7.448  0.00  0.00     0.027 C 
ATOM     32  C   UNL d   1      30.141 -12.934  -7.653  0.00  0.00     0.004 C 
ATOM     33  C   UNL d   1      30.918 -13.014  -6.344  0.00  0.00     0.005 C 
ATOM     34  C   UNL d   1      30.872 -14.430  -5.760  0.00  0.00     0.034 C 
ENDBRANCH  28  29
ENDBRANCH  27  28
ENDBRANCH  25  27
ENDBRANCH  22  23
ENDBRANCH  21  22
ENDBRANCH  19  21
ENDBRANCH   1  19
TORSDOF 12
ENDMDL
