MODEL 1
REMARK VINA RESULT:    -7.274      0.000      0.000
REMARK INTER + INTRA:          -9.796
REMARK INTER:                  -9.064
REMARK INTRA:                  -0.732
REMARK CONF_INDEPENDENT:        1.790
REMARK UNBOUND:                -0.732
REMARK  6 active torsions:
REMARK  status: ('A' for Active; 'I' for Inactive)
REMARK    1  A    between atoms: C_2  and  C_3 
REMARK       I    between atoms: C_2  and  N_14 
REMARK    2  A    between atoms: C_4  and  C_5 
REMARK    3  A    between atoms: C_8  and  N_9 
REMARK    4  A    between atoms: N_14  and  N_15 
REMARK       I    between atoms: N_15  and  C_16 
REMARK       I    between atoms: C_16  and  N_18 
REMARK    5  A    between atoms: N_18  and  C_19 
REMARK    6  A    between atoms: C_19  and  C_20 
ROOT
ATOM      1  O   UNL d   1      27.816 -14.179  -1.798  0.00  0.00    -0.267 OA
ATOM      2  C   UNL d   1      27.634 -14.678  -0.687  0.00  0.00     0.259 C 
ATOM      3  N   UNL d   1      28.575 -14.540   0.311  0.00  0.00    -0.263 N 
ATOM      4  H   UNL d   1      29.422 -14.016   0.082  0.00  0.00     0.190 HD
ENDROOT
BRANCH   2   5
ATOM      5  C   UNL d   1      26.390 -15.447  -0.391  0.00  0.00     0.076 C 
ATOM      6  C   UNL d   1      25.818 -16.258  -1.300  0.00  0.00     0.017 C 
BRANCH   6   7
ATOM      7  C   UNL d   1      24.588 -17.026  -1.029  0.00  0.00    -0.036 A 
ATOM      8  C   UNL d   1      23.335 -16.423  -1.215  0.00  0.00     0.014 A 
ATOM      9  C   UNL d   1      22.153 -17.104  -0.894  0.00  0.00     0.037 A 
ATOM     10  C   UNL d   1      22.217 -18.429  -0.449  0.00  0.00     0.102 A 
ATOM     11  C   UNL d   1      23.458 -19.043  -0.244  0.00  0.00     0.037 A 
ATOM     12  C   UNL d   1      24.634 -18.334  -0.522  0.00  0.00     0.014 A 
BRANCH  10  13
ATOM     13  N   UNL d   1      20.979 -19.200  -0.261  0.00  0.00    -0.116 N 
ATOM     14  O   UNL d   1      20.453 -19.699  -1.267  0.00  0.00    -0.532 OA
ATOM     15  O   UNL d   1      20.551 -19.332   0.894  0.00  0.00    -0.532 OA
ENDBRANCH  10  13
ENDBRANCH   6   7
ENDBRANCH   2   5
BRANCH   3  16
ATOM     16  N   UNL d   1      28.511 -15.047   1.625  0.00  0.00    -0.249 N 
ATOM     17  C   UNL d   1      27.939 -14.277   2.625  0.00  0.00     0.334 C 
ATOM     18  O   UNL d   1      27.461 -13.162   2.428  0.00  0.00    -0.246 OA
ATOM     19  N   UNL d   1      27.969 -14.890   3.855  0.00  0.00    -0.341 N 
ATOM     20  H   UNL d   1      28.326 -15.825   3.921  0.00  0.00     0.164 HD
ATOM     21  H   UNL d   1      28.902 -15.951   1.834  0.00  0.00     0.192 HD
BRANCH  19  22
ATOM     22  C   UNL d   1      27.405 -14.272   5.042  0.00  0.00     0.129 C 
BRANCH  22  23
ATOM     23  C   UNL d   1      28.408 -13.521   5.881  0.00  0.00     0.003 A 
ATOM     24  C   UNL d   1      29.022 -14.034   7.168  0.00  0.00     0.007 A 
ATOM     25  C   UNL d   1      29.854 -13.965   5.920  0.00  0.00     0.007 A 
ENDBRANCH  22  23
ENDBRANCH  19  22
ENDBRANCH   3  16
TORSDOF 6
ENDMDL
MODEL 2
REMARK VINA RESULT:    -7.152      0.388      1.170
REMARK INTER + INTRA:          -9.669
REMARK INTER:                  -8.942
REMARK INTRA:                  -0.726
REMARK CONF_INDEPENDENT:        1.790
REMARK UNBOUND:                -0.726
REMARK  6 active torsions:
REMARK  status: ('A' for Active; 'I' for Inactive)
REMARK    1  A    between atoms: C_2  and  C_3 
REMARK       I    between atoms: C_2  and  N_14 
REMARK    2  A    between atoms: C_4  and  C_5 
REMARK    3  A    between atoms: C_8  and  N_9 
REMARK    4  A    between atoms: N_14  and  N_15 
REMARK       I    between atoms: N_15  and  C_16 
REMARK       I    between atoms: C_16  and  N_18 
REMARK    5  A    between atoms: N_18  and  C_19 
REMARK    6  A    between atoms: C_19  and  C_20 
ROOT
ATOM      1  O   UNL d   1      27.608 -13.763  -1.703  0.00  0.00    -0.267 OA
ATOM      2  C   UNL d   1      27.425 -14.364  -0.644  0.00  0.00     0.259 C 
ATOM      3  N   UNL d   1      28.384 -14.355   0.347  0.00  0.00    -0.263 N 
ATOM      4  H   UNL d   1      29.244 -13.837   0.156  0.00  0.00     0.190 HD
ENDROOT
BRANCH   2   5
ATOM      5  C   UNL d   1      26.161 -15.119  -0.404  0.00  0.00     0.076 C 
ATOM      6  C   UNL d   1      25.806 -16.176  -1.158  0.00  0.00     0.017 C 
BRANCH   6   7
ATOM      7  C   UNL d   1      24.560 -16.936  -0.939  0.00  0.00    -0.036 A 
ATOM      8  C   UNL d   1      24.622 -18.309  -0.659  0.00  0.00     0.014 A 
ATOM      9  C   UNL d   1      23.453 -19.069  -0.520  0.00  0.00     0.037 A 
ATOM     10  C   UNL d   1      22.206 -18.439  -0.591  0.00  0.00     0.102 A 
ATOM     11  C   UNL d   1      22.124 -17.073  -0.883  0.00  0.00     0.037 A 
ATOM     12  C   UNL d   1      23.299 -16.333  -1.068  0.00  0.00     0.014 A 
BRANCH  10  13
ATOM     13  N   UNL d   1      20.983 -19.199  -0.291  0.00  0.00    -0.116 N 
ATOM     14  O   UNL d   1      20.368 -19.700  -1.243  0.00  0.00    -0.532 OA
ATOM     15  O   UNL d   1      20.656 -19.318   0.898  0.00  0.00    -0.532 OA
ENDBRANCH  10  13
ENDBRANCH   6   7
ENDBRANCH   2   5
BRANCH   3  16
ATOM     16  N   UNL d   1      28.322 -14.988   1.605  0.00  0.00    -0.249 N 
ATOM     17  C   UNL d   1      27.910 -14.263   2.712  0.00  0.00     0.334 C 
ATOM     18  O   UNL d   1      27.573 -13.082   2.659  0.00  0.00    -0.246 OA
ATOM     19  N   UNL d   1      27.922 -15.003   3.870  0.00  0.00    -0.341 N 
ATOM     20  H   UNL d   1      28.155 -15.978   3.819  0.00  0.00     0.164 HD
ATOM     21  H   UNL d   1      28.601 -15.951   1.697  0.00  0.00     0.192 HD
BRANCH  19  22
ATOM     22  C   UNL d   1      27.507 -14.450   5.147  0.00  0.00     0.129 C 
BRANCH  22  23
ATOM     23  C   UNL d   1      28.488 -13.474   5.744  0.00  0.00     0.003 A 
ATOM     24  C   UNL d   1      28.155 -12.447   6.808  0.00  0.00     0.007 A 
ATOM     25  C   UNL d   1      28.973 -13.654   7.167  0.00  0.00     0.007 A 
ENDBRANCH  22  23
ENDBRANCH  19  22
ENDBRANCH   3  16
TORSDOF 6
ENDMDL
MODEL 3
REMARK VINA RESULT:    -6.828      1.422      1.636
REMARK INTER + INTRA:          -9.462
REMARK INTER:                  -8.618
REMARK INTRA:                  -0.844
REMARK CONF_INDEPENDENT:        1.790
REMARK UNBOUND:                -0.844
REMARK  6 active torsions:
REMARK  status: ('A' for Active; 'I' for Inactive)
REMARK    1  A    between atoms: C_2  and  C_3 
REMARK       I    between atoms: C_2  and  N_14 
REMARK    2  A    between atoms: C_4  and  C_5 
REMARK    3  A    between atoms: C_8  and  N_9 
REMARK    4  A    between atoms: N_14  and  N_15 
REMARK       I    between atoms: N_15  and  C_16 
REMARK       I    between atoms: C_16  and  N_18 
REMARK    5  A    between atoms: N_18  and  C_19 
REMARK    6  A    between atoms: C_19  and  C_20 
ROOT
ATOM      1  O   UNL d   1      29.550 -16.268  -2.815  0.00  0.00    -0.267 OA
ATOM      2  C   UNL d   1      29.051 -16.313  -1.690  0.00  0.00     0.259 C 
ATOM      3  N   UNL d   1      29.724 -15.805  -0.599  0.00  0.00    -0.263 N 
ATOM      4  H   UNL d   1      30.648 -15.402  -0.770  0.00  0.00     0.190 HD
ENDROOT
BRANCH   2   5
ATOM      5  C   UNL d   1      27.705 -16.919  -1.476  0.00  0.00     0.076 C 
ATOM      6  C   UNL d   1      26.641 -16.183  -1.103  0.00  0.00     0.017 C 
BRANCH   6   7
ATOM      7  C   UNL d   1      25.302 -16.762  -0.885  0.00  0.00    -0.036 A 
ATOM      8  C   UNL d   1      24.159 -15.997  -1.163  0.00  0.00     0.014 A 
ATOM      9  C   UNL d   1      22.876 -16.495  -0.894  0.00  0.00     0.037 A 
ATOM     10  C   UNL d   1      22.728 -17.799  -0.410  0.00  0.00     0.102 A 
ATOM     11  C   UNL d   1      23.856 -18.572  -0.113  0.00  0.00     0.037 A 
ATOM     12  C   UNL d   1      25.135 -18.045  -0.341  0.00  0.00     0.014 A 
BRANCH  10  13
ATOM     13  N   UNL d   1      21.385 -18.383  -0.275  0.00  0.00    -0.116 N 
ATOM     14  O   UNL d   1      21.241 -19.320   0.524  0.00  0.00    -0.532 OA
ATOM     15  O   UNL d   1      20.470 -17.885  -0.946  0.00  0.00    -0.532 OA
ENDBRANCH  10  13
ENDBRANCH   6   7
ENDBRANCH   2   5
BRANCH   3  16
ATOM     16  N   UNL d   1      29.289 -15.780   0.741  0.00  0.00    -0.249 N 
ATOM     17  C   UNL d   1      28.604 -14.672   1.213  0.00  0.00     0.334 C 
ATOM     18  O   UNL d   1      28.334 -13.696   0.516  0.00  0.00    -0.246 OA
ATOM     19  N   UNL d   1      28.265 -14.779   2.542  0.00  0.00    -0.341 N 
ATOM     20  H   UNL d   1      28.471 -15.633   3.026  0.00  0.00     0.164 HD
ATOM     21  H   UNL d   1      29.499 -16.552   1.352  0.00  0.00     0.192 HD
BRANCH  19  22
ATOM     22  C   UNL d   1      27.524 -13.742   3.238  0.00  0.00     0.129 C 
BRANCH  22  23
ATOM     23  C   UNL d   1      27.768 -13.703   4.724  0.00  0.00     0.003 A 
ATOM     24  C   UNL d   1      28.262 -14.872   5.554  0.00  0.00     0.007 A 
ATOM     25  C   UNL d   1      29.181 -13.720   5.266  0.00  0.00     0.007 A 
ENDBRANCH  22  23
ENDBRANCH  19  22
ENDBRANCH   3  16
TORSDOF 6
ENDMDL
MODEL 4
REMARK VINA RESULT:    -6.423      3.759      5.698
REMARK INTER + INTRA:          -8.942
REMARK INTER:                  -8.213
REMARK INTRA:                  -0.729
REMARK CONF_INDEPENDENT:        1.790
REMARK UNBOUND:                -0.729
REMARK  6 active torsions:
REMARK  status: ('A' for Active; 'I' for Inactive)
REMARK    1  A    between atoms: C_2  and  C_3 
REMARK       I    between atoms: C_2  and  N_14 
REMARK    2  A    between atoms: C_4  and  C_5 
REMARK    3  A    between atoms: C_8  and  N_9 
REMARK    4  A    between atoms: N_14  and  N_15 
REMARK       I    between atoms: N_15  and  C_16 
REMARK       I    between atoms: C_16  and  N_18 
REMARK    5  A    between atoms: N_18  and  C_19 
REMARK    6  A    between atoms: C_19  and  C_20 
ROOT
ATOM      1  O   UNL d   1      27.727 -14.265  -1.116  0.00  0.00    -0.267 OA
ATOM      2  C   UNL d   1      27.860 -15.475  -0.939  0.00  0.00     0.259 C 
ATOM      3  N   UNL d   1      29.097 -16.015  -0.656  0.00  0.00    -0.263 N 
ATOM      4  H   UNL d   1      29.886 -15.368  -0.610  0.00  0.00     0.190 HD
ENDROOT
BRANCH   2   5
ATOM      5  C   UNL d   1      26.686 -16.392  -1.025  0.00  0.00     0.076 C 
ATOM      6  C   UNL d   1      25.459 -16.023  -0.615  0.00  0.00     0.017 C 
BRANCH   6   7
ATOM      7  C   UNL d   1      24.285 -16.914  -0.690  0.00  0.00    -0.036 A 
ATOM      8  C   UNL d   1      23.009 -16.369  -0.892  0.00  0.00     0.014 A 
ATOM      9  C   UNL d   1      21.869 -17.185  -0.893  0.00  0.00     0.037 A 
ATOM     10  C   UNL d   1      22.010 -18.571  -0.762  0.00  0.00     0.102 A 
ATOM     11  C   UNL d   1      23.274 -19.132  -0.546  0.00  0.00     0.037 A 
ATOM     12  C   UNL d   1      24.401 -18.300  -0.499  0.00  0.00     0.014 A 
BRANCH  10  13
ATOM     13  N   UNL d   1      20.839 -19.445  -0.920  0.00  0.00    -0.116 N 
ATOM     14  O   UNL d   1      20.460 -19.699  -2.073  0.00  0.00    -0.532 OA
ATOM     15  O   UNL d   1      20.317 -19.900   0.108  0.00  0.00    -0.532 OA
ENDBRANCH  10  13
ENDBRANCH   6   7
ENDBRANCH   2   5
BRANCH   3  16
ATOM     16  N   UNL d   1      29.407 -17.371  -0.426  0.00  0.00    -0.249 N 
ATOM     17  C   UNL d   1      30.363 -17.993  -1.214  0.00  0.00     0.334 C 
ATOM     18  O   UNL d   1      30.980 -17.418  -2.109  0.00  0.00    -0.246 OA
ATOM     19  N   UNL d   1      30.542 -19.317  -0.892  0.00  0.00    -0.341 N 
ATOM     20  H   UNL d   1      30.041 -19.697  -0.110  0.00  0.00     0.164 HD
ATOM     21  H   UNL d   1      28.918 -17.885   0.287  0.00  0.00     0.192 HD
BRANCH  19  22
ATOM     22  C   UNL d   1      31.510 -20.157  -1.575  0.00  0.00     0.129 C 
BRANCH  22  23
ATOM     23  C   UNL d   1      31.473 -20.041  -3.077  0.00  0.00     0.003 A 
ATOM     24  C   UNL d   1      32.478 -20.670  -4.022  0.00  0.00     0.007 A 
ATOM     25  C   UNL d   1      31.091 -21.237  -3.925  0.00  0.00     0.007 A 
ENDBRANCH  22  23
ENDBRANCH  19  22
ENDBRANCH   3  16
TORSDOF 6
ENDMDL
MODEL 5
REMARK VINA RESULT:    -6.376      3.809      6.607
REMARK INTER + INTRA:          -9.149
REMARK INTER:                  -8.166
REMARK INTRA:                  -0.983
REMARK CONF_INDEPENDENT:        1.790
REMARK UNBOUND:                -0.983
REMARK  6 active torsions:
REMARK  status: ('A' for Active; 'I' for Inactive)
REMARK    1  A    between atoms: C_2  and  C_3 
REMARK       I    between atoms: C_2  and  N_14 
REMARK    2  A    between atoms: C_4  and  C_5 
REMARK    3  A    between atoms: C_8  and  N_9 
REMARK    4  A    between atoms: N_14  and  N_15 
REMARK       I    between atoms: N_15  and  C_16 
REMARK       I    between atoms: C_16  and  N_18 
REMARK    5  A    between atoms: N_18  and  C_19 
REMARK    6  A    between atoms: C_19  and  C_20 
ROOT
ATOM      1  O   UNL d   1      28.307 -15.368   0.571  0.00  0.00    -0.267 OA
ATOM      2  C   UNL d   1      27.926 -15.644  -0.567  0.00  0.00     0.259 C 
ATOM      3  N   UNL d   1      28.794 -15.582  -1.636  0.00  0.00    -0.263 N 
ATOM      4  H   UNL d   1      29.754 -15.292  -1.438  0.00  0.00     0.190 HD
ENDROOT
BRANCH   2   5
ATOM      5  C   UNL d   1      26.514 -16.052  -0.820  0.00  0.00     0.076 C 
ATOM      6  C   UNL d   1      25.937 -17.076  -0.164  0.00  0.00     0.017 C 
BRANCH   6   7
ATOM      7  C   UNL d   1      24.543 -17.497  -0.400  0.00  0.00    -0.036 A 
ATOM      8  C   UNL d   1      23.553 -16.531  -0.633  0.00  0.00     0.014 A 
ATOM      9  C   UNL d   1      22.209 -16.898  -0.786  0.00  0.00     0.037 A 
ATOM     10  C   UNL d   1      21.857 -18.253  -0.778  0.00  0.00     0.102 A 
ATOM     11  C   UNL d   1      22.828 -19.230  -0.533  0.00  0.00     0.037 A 
ATOM     12  C   UNL d   1      24.161 -18.846  -0.333  0.00  0.00     0.014 A 
BRANCH  10  13
ATOM     13  N   UNL d   1      20.478 -18.653  -1.094  0.00  0.00    -0.116 N 
ATOM     14  O   UNL d   1      19.577 -17.825  -0.895  0.00  0.00    -0.532 OA
ATOM     15  O   UNL d   1      20.301 -19.784  -1.569  0.00  0.00    -0.532 OA
ENDBRANCH  10  13
ENDBRANCH   6   7
ENDBRANCH   2   5
BRANCH   3  16
ATOM     16  N   UNL d   1      28.511 -15.867  -2.987  0.00  0.00    -0.249 N 
ATOM     17  C   UNL d   1      29.554 -15.967  -3.894  0.00  0.00     0.334 C 
ATOM     18  O   UNL d   1      30.735 -15.834  -3.583  0.00  0.00    -0.246 OA
ATOM     19  N   UNL d   1      29.125 -16.224  -5.175  0.00  0.00    -0.341 N 
ATOM     20  H   UNL d   1      28.146 -16.376  -5.336  0.00  0.00     0.164 HD
ATOM     21  H   UNL d   1      27.556 -15.971  -3.289  0.00  0.00     0.192 HD
BRANCH  19  22
ATOM     22  C   UNL d   1      30.050 -16.390  -6.283  0.00  0.00     0.129 C 
BRANCH  22  23
ATOM     23  C   UNL d   1      30.926 -17.611  -6.176  0.00  0.00     0.003 A 
ATOM     24  C   UNL d   1      30.491 -19.024  -6.511  0.00  0.00     0.007 A 
ATOM     25  C   UNL d   1      31.434 -18.297  -7.426  0.00  0.00     0.007 A 
ENDBRANCH  22  23
ENDBRANCH  19  22
ENDBRANCH   3  16
TORSDOF 6
ENDMDL
MODEL 6
REMARK VINA RESULT:    -6.299      3.772      5.248
REMARK INTER + INTRA:          -8.860
REMARK INTER:                  -8.089
REMARK INTRA:                  -0.771
REMARK CONF_INDEPENDENT:        1.790
REMARK UNBOUND:                -0.771
REMARK  6 active torsions:
REMARK  status: ('A' for Active; 'I' for Inactive)
REMARK    1  A    between atoms: C_2  and  C_3 
REMARK       I    between atoms: C_2  and  N_14 
REMARK    2  A    between atoms: C_4  and  C_5 
REMARK    3  A    between atoms: C_8  and  N_9 
REMARK    4  A    between atoms: N_14  and  N_15 
REMARK       I    between atoms: N_15  and  C_16 
REMARK       I    between atoms: C_16  and  N_18 
REMARK    5  A    between atoms: N_18  and  C_19 
REMARK    6  A    between atoms: C_19  and  C_20 
ROOT
ATOM      1  O   UNL d   1      27.891 -14.373  -1.199  0.00  0.00    -0.267 OA
ATOM      2  C   UNL d   1      27.997 -15.555  -0.873  0.00  0.00     0.259 C 
ATOM      3  N   UNL d   1      29.238 -16.131  -0.704  0.00  0.00    -0.263 N 
ATOM      4  H   UNL d   1      30.052 -15.536  -0.868  0.00  0.00     0.190 HD
ENDROOT
BRANCH   2   5
ATOM      5  C   UNL d   1      26.785 -16.397  -0.653  0.00  0.00     0.076 C 
ATOM      6  C   UNL d   1      25.577 -16.051  -1.133  0.00  0.00     0.017 C 
BRANCH   6   7
ATOM      7  C   UNL d   1      24.366 -16.868  -0.925  0.00  0.00    -0.036 A 
ATOM      8  C   UNL d   1      24.490 -18.237  -0.643  0.00  0.00     0.014 A 
ATOM      9  C   UNL d   1      23.357 -19.052  -0.515  0.00  0.00     0.037 A 
ATOM     10  C   UNL d   1      22.081 -18.481  -0.599  0.00  0.00     0.102 A 
ATOM     11  C   UNL d   1      21.938 -17.121  -0.894  0.00  0.00     0.037 A 
ATOM     12  C   UNL d   1      23.079 -16.326  -1.067  0.00  0.00     0.014 A 
BRANCH  10  13
ATOM     13  N   UNL d   1      20.893 -19.297  -0.310  0.00  0.00    -0.116 N 
ATOM     14  O   UNL d   1      20.564 -19.436   0.877  0.00  0.00    -0.532 OA
ATOM     15  O   UNL d   1      20.272 -19.772  -1.271  0.00  0.00    -0.532 OA
ENDBRANCH  10  13
ENDBRANCH   6   7
ENDBRANCH   2   5
BRANCH   3  16
ATOM     16  N   UNL d   1      29.522 -17.461  -0.333  0.00  0.00    -0.249 N 
ATOM     17  C   UNL d   1      30.496 -18.166  -1.021  0.00  0.00     0.334 C 
ATOM     18  O   UNL d   1      31.152 -17.687  -1.944  0.00  0.00    -0.246 OA
ATOM     19  N   UNL d   1      30.645 -19.455  -0.566  0.00  0.00    -0.341 N 
ATOM     20  H   UNL d   1      30.111 -19.752   0.229  0.00  0.00     0.164 HD
ATOM     21  H   UNL d   1      28.999 -17.898   0.408  0.00  0.00     0.192 HD
BRANCH  19  22
ATOM     22  C   UNL d   1      31.626 -20.366  -1.129  0.00  0.00     0.129 C 
BRANCH  22  23
ATOM     23  C   UNL d   1      31.697 -21.701  -0.432  0.00  0.00     0.003 A 
ATOM     24  C   UNL d   1      31.575 -21.907   1.065  0.00  0.00     0.007 A 
ATOM     25  C   UNL d   1      30.449 -22.319   0.161  0.00  0.00     0.007 A 
ENDBRANCH  22  23
ENDBRANCH  19  22
ENDBRANCH   3  16
TORSDOF 6
ENDMDL
MODEL 7
REMARK VINA RESULT:    -6.247      3.707      5.736
REMARK INTER + INTRA:          -8.902
REMARK INTER:                  -8.037
REMARK INTRA:                  -0.866
REMARK CONF_INDEPENDENT:        1.790
REMARK UNBOUND:                -0.866
REMARK  6 active torsions:
REMARK  status: ('A' for Active; 'I' for Inactive)
REMARK    1  A    between atoms: C_2  and  C_3 
REMARK       I    between atoms: C_2  and  N_14 
REMARK    2  A    between atoms: C_4  and  C_5 
REMARK    3  A    between atoms: C_8  and  N_9 
REMARK    4  A    between atoms: N_14  and  N_15 
REMARK       I    between atoms: N_15  and  C_16 
REMARK       I    between atoms: C_16  and  N_18 
REMARK    5  A    between atoms: N_18  and  C_19 
REMARK    6  A    between atoms: C_19  and  C_20 
ROOT
ATOM      1  O   UNL d   1      28.957 -17.166  -0.242  0.00  0.00    -0.267 OA
ATOM      2  C   UNL d   1      27.987 -16.523  -0.642  0.00  0.00     0.259 C 
ATOM      3  N   UNL d   1      28.099 -15.177  -0.917  0.00  0.00    -0.263 N 
ATOM      4  H   UNL d   1      29.013 -14.746  -0.767  0.00  0.00     0.190 HD
ENDROOT
BRANCH   2   5
ATOM      5  C   UNL d   1      26.664 -17.182  -0.839  0.00  0.00     0.076 C 
ATOM      6  C   UNL d   1      25.520 -16.644  -0.375  0.00  0.00     0.017 C 
BRANCH   6   7
ATOM      7  C   UNL d   1      24.202 -17.280  -0.558  0.00  0.00    -0.036 A 
ATOM      8  C   UNL d   1      23.071 -16.483  -0.794  0.00  0.00     0.014 A 
ATOM      9  C   UNL d   1      21.796 -17.055  -0.898  0.00  0.00     0.037 A 
ATOM     10  C   UNL d   1      21.654 -18.446  -0.835  0.00  0.00     0.102 A 
ATOM     11  C   UNL d   1      22.768 -19.255  -0.586  0.00  0.00     0.037 A 
ATOM     12  C   UNL d   1      24.031 -18.668  -0.437  0.00  0.00     0.014 A 
BRANCH  10  13
ATOM     13  N   UNL d   1      20.346 -19.061  -1.099  0.00  0.00    -0.116 N 
ATOM     14  O   UNL d   1      19.355 -18.577  -0.531  0.00  0.00    -0.532 OA
ATOM     15  O   UNL d   1      20.304 -20.009  -1.897  0.00  0.00    -0.532 OA
ENDBRANCH  10  13
ENDBRANCH   6   7
ENDBRANCH   2   5
BRANCH   3  16
ATOM     16  N   UNL d   1      27.088 -14.310  -1.380  0.00  0.00    -0.249 N 
ATOM     17  C   UNL d   1      26.772 -14.292  -2.729  0.00  0.00     0.334 C 
ATOM     18  O   UNL d   1      27.321 -15.013  -3.561  0.00  0.00    -0.246 OA
ATOM     19  N   UNL d   1      25.787 -13.383  -3.036  0.00  0.00    -0.341 N 
ATOM     20  H   UNL d   1      25.350 -12.875  -2.291  0.00  0.00     0.164 HD
ATOM     21  H   UNL d   1      26.621 -13.694  -0.736  0.00  0.00     0.192 HD
BRANCH  19  22
ATOM     22  C   UNL d   1      25.285 -13.213  -4.388  0.00  0.00     0.129 C 
BRANCH  22  23
ATOM     23  C   UNL d   1      26.170 -12.372  -5.272  0.00  0.00     0.003 A 
ATOM     24  C   UNL d   1      25.740 -11.097  -5.970  0.00  0.00     0.007 A 
ATOM     25  C   UNL d   1      26.669 -11.025  -4.792  0.00  0.00     0.007 A 
ENDBRANCH  22  23
ENDBRANCH  19  22
ENDBRANCH   3  16
TORSDOF 6
ENDMDL
MODEL 8
REMARK VINA RESULT:    -6.243      3.910      6.434
REMARK INTER + INTRA:          -9.001
REMARK INTER:                  -8.033
REMARK INTRA:                  -0.969
REMARK CONF_INDEPENDENT:        1.790
REMARK UNBOUND:                -0.969
REMARK  6 active torsions:
REMARK  status: ('A' for Active; 'I' for Inactive)
REMARK    1  A    between atoms: C_2  and  C_3 
REMARK       I    between atoms: C_2  and  N_14 
REMARK    2  A    between atoms: C_4  and  C_5 
REMARK    3  A    between atoms: C_8  and  N_9 
REMARK    4  A    between atoms: N_14  and  N_15 
REMARK       I    between atoms: N_15  and  C_16 
REMARK       I    between atoms: C_16  and  N_18 
REMARK    5  A    between atoms: N_18  and  C_19 
REMARK    6  A    between atoms: C_19  and  C_20 
ROOT
ATOM      1  O   UNL d   1      27.904 -14.914  -0.356  0.00  0.00    -0.267 OA
ATOM      2  C   UNL d   1      27.012 -14.477  -1.083  0.00  0.00     0.259 C 
ATOM      3  N   UNL d   1      27.211 -13.342  -1.840  0.00  0.00    -0.263 N 
ATOM      4  H   UNL d   1      28.123 -12.886  -1.761  0.00  0.00     0.190 HD
ENDROOT
BRANCH   2   5
ATOM      5  C   UNL d   1      25.690 -15.163  -1.164  0.00  0.00     0.076 C 
ATOM      6  C   UNL d   1      25.514 -16.429  -0.743  0.00  0.00     0.017 C 
BRANCH   6   7
ATOM      7  C   UNL d   1      24.217 -17.127  -0.816  0.00  0.00    -0.036 A 
ATOM      8  C   UNL d   1      23.030 -16.383  -0.899  0.00  0.00     0.014 A 
ATOM      9  C   UNL d   1      21.780 -17.018  -0.894  0.00  0.00     0.037 A 
ATOM     10  C   UNL d   1      21.714 -18.416  -0.878  0.00  0.00     0.102 A 
ATOM     11  C   UNL d   1      22.887 -19.174  -0.780  0.00  0.00     0.037 A 
ATOM     12  C   UNL d   1      24.128 -18.526  -0.737  0.00  0.00     0.014 A 
BRANCH  10  13
ATOM     13  N   UNL d   1      20.417 -19.090  -1.031  0.00  0.00    -0.116 N 
ATOM     14  O   UNL d   1      19.481 -18.710  -0.312  0.00  0.00    -0.532 OA
ATOM     15  O   UNL d   1      20.327 -19.978  -1.890  0.00  0.00    -0.532 OA
ENDBRANCH  10  13
ENDBRANCH   6   7
ENDBRANCH   2   5
BRANCH   3  16
ATOM     16  N   UNL d   1      26.295 -12.725  -2.716  0.00  0.00    -0.249 N 
ATOM     17  C   UNL d   1      26.506 -11.412  -3.105  0.00  0.00     0.334 C 
ATOM     18  O   UNL d   1      27.471 -10.744  -2.739  0.00  0.00    -0.246 OA
ATOM     19  N   UNL d   1      25.520 -10.937  -3.938  0.00  0.00    -0.341 N 
ATOM     20  H   UNL d   1      24.796 -11.563  -4.237  0.00  0.00     0.164 HD
ATOM     21  H   UNL d   1      25.483 -13.229  -3.031  0.00  0.00     0.192 HD
BRANCH  19  22
ATOM     22  C   UNL d   1      25.551  -9.592  -4.486  0.00  0.00     0.129 C 
BRANCH  22  23
ATOM     23  C   UNL d   1      25.438  -9.536  -5.987  0.00  0.00     0.003 A 
ATOM     24  C   UNL d   1      26.607  -9.380  -6.941  0.00  0.00     0.007 A 
ATOM     25  C   UNL d   1      25.905 -10.704  -6.831  0.00  0.00     0.007 A 
ENDBRANCH  22  23
ENDBRANCH  19  22
ENDBRANCH   3  16
TORSDOF 6
ENDMDL
MODEL 9
REMARK VINA RESULT:    -6.144      2.833      5.299
REMARK INTER + INTRA:          -9.055
REMARK INTER:                  -7.934
REMARK INTRA:                  -1.121
REMARK CONF_INDEPENDENT:        1.790
REMARK UNBOUND:                -1.121
REMARK  6 active torsions:
REMARK  status: ('A' for Active; 'I' for Inactive)
REMARK    1  A    between atoms: C_2  and  C_3 
REMARK       I    between atoms: C_2  and  N_14 
REMARK    2  A    between atoms: C_4  and  C_5 
REMARK    3  A    between atoms: C_8  and  N_9 
REMARK    4  A    between atoms: N_14  and  N_15 
REMARK       I    between atoms: N_15  and  C_16 
REMARK       I    between atoms: C_16  and  N_18 
REMARK    5  A    between atoms: N_18  and  C_19 
REMARK    6  A    between atoms: C_19  and  C_20 
ROOT
ATOM      1  O   UNL d   1      28.682 -14.770   1.750  0.00  0.00    -0.267 OA
ATOM      2  C   UNL d   1      28.316 -15.170   0.645  0.00  0.00     0.259 C 
ATOM      3  N   UNL d   1      29.204 -15.248  -0.406  0.00  0.00    -0.263 N 
ATOM      4  H   UNL d   1      30.166 -14.953  -0.225  0.00  0.00     0.190 HD
ENDROOT
BRANCH   2   5
ATOM      5  C   UNL d   1      26.901 -15.582   0.413  0.00  0.00     0.076 C 
ATOM      6  C   UNL d   1      26.578 -16.805  -0.046  0.00  0.00     0.017 C 
BRANCH   6   7
ATOM      7  C   UNL d   1      25.186 -17.232  -0.283  0.00  0.00    -0.036 A 
ATOM      8  C   UNL d   1      24.191 -16.269  -0.508  0.00  0.00     0.014 A 
ATOM      9  C   UNL d   1      22.849 -16.642  -0.663  0.00  0.00     0.037 A 
ATOM     10  C   UNL d   1      22.504 -17.998  -0.664  0.00  0.00     0.102 A 
ATOM     11  C   UNL d   1      23.480 -18.972  -0.427  0.00  0.00     0.037 A 
ATOM     12  C   UNL d   1      24.811 -18.583  -0.226  0.00  0.00     0.014 A 
BRANCH  10  13
ATOM     13  N   UNL d   1      21.127 -18.404  -0.982  0.00  0.00    -0.116 N 
ATOM     14  O   UNL d   1      20.311 -17.510  -1.252  0.00  0.00    -0.532 OA
ATOM     15  O   UNL d   1      20.871 -19.616  -0.991  0.00  0.00    -0.532 OA
ENDBRANCH  10  13
ENDBRANCH   6   7
ENDBRANCH   2   5
BRANCH   3  16
ATOM     16  N   UNL d   1      28.940 -15.684  -1.721  0.00  0.00    -0.249 N 
ATOM     17  C   UNL d   1      28.263 -14.847  -2.592  0.00  0.00     0.334 C 
ATOM     18  O   UNL d   1      27.885 -13.717  -2.288  0.00  0.00    -0.246 OA
ATOM     19  N   UNL d   1      28.056 -15.415  -3.827  0.00  0.00    -0.341 N 
ATOM     20  H   UNL d   1      28.447 -16.320  -4.015  0.00  0.00     0.164 HD
ATOM     21  H   UNL d   1      29.220 -16.607  -2.009  0.00  0.00     0.192 HD
BRANCH  19  22
ATOM     22  C   UNL d   1      27.386 -14.707  -4.903  0.00  0.00     0.129 C 
BRANCH  22  23
ATOM     23  C   UNL d   1      25.902 -14.540  -4.699  0.00  0.00     0.003 A 
ATOM     24  C   UNL d   1      25.175 -14.761  -3.388  0.00  0.00     0.007 A 
ATOM     25  C   UNL d   1      25.368 -13.365  -3.907  0.00  0.00     0.007 A 
ENDBRANCH  22  23
ENDBRANCH  19  22
ENDBRANCH   3  16
TORSDOF 6
ENDMDL
