MODEL 1
REMARK VINA RESULT:   -28.142      0.000      0.000
REMARK INTER + INTRA:         -31.754
REMARK INTER:                 -30.230
REMARK INTRA:                  -1.524
REMARK CONF_INDEPENDENT:        2.088
REMARK UNBOUND:                -1.524
REMARK  7 active torsions:
REMARK  status: ('A' for Active; 'I' for Inactive)
REMARK    1  A    between atoms: O_2  and  C_3 
REMARK    2  A    between atoms: C_6  and  C_7 
REMARK    3  A    between atoms: C_8  and  O_9 
REMARK    4  A    between atoms: C_10  and  C_11 
REMARK       I    between atoms: N_21  and  C_22 
REMARK    5  A    between atoms: C_22  and  C_24 
REMARK    6  A    between atoms: C_24  and  N_25 
REMARK    7  A    between atoms: C_29  and  N_30 
ROOT
ATOM      1  C   UNL d   1      25.029 -17.834  -1.288  0.00  0.00     0.181 C 
ATOM      2  C   UNL d   1      23.695 -18.661  -1.262  0.00  0.00     0.198 C 
ATOM      3  C   UNL d   1      23.140 -18.667   0.161  0.00  0.00     0.080 C 
ATOM      4  N   UNL d   1      24.086 -18.107   0.980  0.00  0.00    -0.174 NA
ATOM      5  N   UNL d   1      25.396 -17.728   0.110  0.00  0.00    -0.225 N 
ATOM      6  C   UNL d   1      26.777 -17.345   0.583  0.00  0.00     0.259 C 
ATOM      7  O   UNL d   1      27.030 -17.014   1.710  0.00  0.00    -0.270 OA
ENDROOT
BRANCH   1   8
ATOM      8  C   UNL d   1      24.982 -16.471  -2.016  0.00  0.00    -0.030 A 
ATOM      9  C   UNL d   1      26.042 -16.058  -2.851  0.00  0.00     0.012 A 
ATOM     10  C   UNL d   1      25.977 -14.851  -3.571  0.00  0.00     0.037 A 
ATOM     11  C   UNL d   1      24.825 -14.065  -3.539  0.00  0.00     0.068 A 
ATOM     12  C   UNL d   1      23.763 -14.466  -2.733  0.00  0.00     0.037 A 
ATOM     13  C   UNL d   1      23.848 -15.642  -1.966  0.00  0.00     0.012 A 
BRANCH  11  14
ATOM     14  O   UNL d   1      24.800 -13.011  -4.411  0.00  0.00    -0.356 OA
ATOM     15  C   UNL d   1      26.062 -12.501  -4.835  0.00  0.00     0.210 C 
ENDBRANCH  11  14
ENDBRANCH   1   8
BRANCH   6  16
ATOM     16  C   UNL d   1      28.057 -17.423  -0.542  0.00  0.00     0.235 C 
BRANCH  16  17
ATOM     17  N   UNL d   1      28.868 -16.131  -0.944  0.00  0.00    -0.329 N 
ATOM     18  C   UNL d   1      29.224 -15.862  -2.267  0.00  0.00     0.101 A 
ATOM     19  C   UNL d   1      29.865 -14.651  -2.452  0.00  0.00     0.070 A 
ATOM     20  S   UNL d   1      30.033 -13.799  -0.984  0.00  0.00    -0.065 SA
ATOM     21  C   UNL d   1      29.237 -15.099  -0.145  0.00  0.00     0.144 A 
BRANCH  21  22
ATOM     22  N   UNL d   1      29.060 -14.954   1.153  0.00  0.00    -0.379 N 
ATOM     23  H   UNL d   1      29.356 -14.061   1.539  0.00  0.00     0.158 HD
ATOM     24  H   UNL d   1      28.695 -15.688   1.728  0.00  0.00     0.158 HD
ENDBRANCH  21  22
ENDBRANCH  16  17
ENDBRANCH   6  16
BRANCH   3  25
ATOM     25  C   UNL d   1      21.453 -18.999   0.431  0.00  0.00     0.070 C 
ATOM     26  C   UNL d   1      21.149 -19.699  -0.730  0.00  0.00     0.100 C 
ATOM     27  N   UNL d   1      19.905 -19.157  -0.971  0.00  0.00    -0.285 NA
ATOM     28  C   UNL d   1      19.140 -19.830  -0.063  0.00  0.00     0.016 A 
ATOM     29  H   UNL d   1      19.703 -18.178  -1.086  0.00  0.00     0.128 HD
ATOM     30  C   UNL d   1      17.906 -20.462  -0.357  0.00  0.00     0.024 A 
ATOM     31  C   UNL d   1      20.005 -19.836   1.072  0.00  0.00    -0.019 A 
ATOM     32  C   UNL d   1      17.283 -21.292   0.535  0.00  0.00     0.002 A 
ATOM     33  C   UNL d   1      17.957 -21.461   1.730  0.00  0.00     0.001 A 
ATOM     34  C   UNL d   1      19.281 -20.746   2.055  0.00  0.00     0.010 A 
ENDBRANCH   3  25
BRANCH   2  35
ATOM     35  O   UNL d   1      22.800 -18.206  -2.241  0.00  0.00    -0.387 OA
ATOM     36  H   UNL d   1      21.913 -18.172  -1.828  0.00  0.00     0.210 HD
ENDBRANCH   2  35
TORSDOF 7
ENDMDL
