MODEL 1
REMARK VINA RESULT:    -7.492      0.000      0.000
REMARK INTER + INTRA:         -10.543
REMARK INTER:                  -8.983
REMARK INTRA:                  -1.560
REMARK CONF_INDEPENDENT:        1.492
REMARK UNBOUND:                -1.560
REMARK  5 active torsions:
REMARK  status: ('A' for Active; 'I' for Inactive)
REMARK    1  A    between atoms: C_3  and  C_4 
REMARK       I    between atoms: C_4  and  N_6 
REMARK    2  A    between atoms: N_6  and  N_7 
REMARK       I    between atoms: N_7  and  C_8 
REMARK       I    between atoms: C_8  and  N_10 
REMARK    3  A    between atoms: N_10  and  C_11 
REMARK    4  A    between atoms: C_11  and  C_12 
REMARK    5  A    between atoms: C_18  and  N_19 
ROOT
ATOM      1  C   UNL d   1      25.666 -17.835  -0.053  0.00  0.00     0.270 C 
ATOM      2  O   UNL d   1      25.997 -18.195   1.086  0.00  0.00    -0.266 OA
ATOM      3  N   UNL d   1      24.381 -18.078  -0.507  0.00  0.00    -0.262 N 
ATOM      4  H   UNL d   1      24.033 -17.906  -1.427  0.00  0.00     0.190 HD
ENDROOT
BRANCH   1   5
ATOM      5  C   UNL d   1      26.716 -17.121  -0.956  0.00  0.00     0.042 A 
ATOM      6  C   UNL d   1      26.494 -16.358  -2.143  0.00  0.00    -0.013 A 
ATOM      7  C   UNL d   1      25.156 -16.087  -2.747  0.00  0.00     0.052 C 
ATOM      8  C   UNL d   1      27.620 -15.774  -2.837  0.00  0.00     0.109 A 
ATOM      9  C   UNL d   1      28.929 -15.927  -2.361  0.00  0.00     0.037 A 
ATOM     10  C   UNL d   1      29.152 -16.654  -1.201  0.00  0.00     0.003 A 
ATOM     11  C   UNL d   1      28.069 -17.240  -0.519  0.00  0.00     0.018 A 
BRANCH   8  12
ATOM     12  N   UNL d   1      27.464 -14.965  -4.095  0.00  0.00    -0.115 N 
ATOM     13  O   UNL d   1      27.144 -15.575  -5.129  0.00  0.00    -0.532 OA
ATOM     14  O   UNL d   1      27.652 -13.748  -4.074  0.00  0.00    -0.532 OA
ENDBRANCH   8  12
ENDBRANCH   1   5
BRANCH   3  15
ATOM     15  N   UNL d   1      23.331 -18.672   0.231  0.00  0.00    -0.249 N 
ATOM     16  C   UNL d   1      22.217 -19.044  -0.515  0.00  0.00     0.334 C 
ATOM     17  O   UNL d   1      22.173 -18.849  -1.735  0.00  0.00    -0.246 OA
ATOM     18  N   UNL d   1      21.195 -19.629   0.200  0.00  0.00    -0.341 N 
ATOM     19  H   UNL d   1      21.325 -19.837   1.174  0.00  0.00     0.164 HD
ATOM     20  H   UNL d   1      23.462 -18.816   1.222  0.00  0.00     0.192 HD
BRANCH  18  21
ATOM     21  C   UNL d   1      20.005 -20.076  -0.491  0.00  0.00     0.129 C 
BRANCH  21  22
ATOM     22  C   UNL d   1      18.749 -20.350   0.287  0.00  0.00     0.003 A 
ATOM     23  C   UNL d   1      18.142 -21.544   0.999  0.00  0.00     0.007 A 
ATOM     24  C   UNL d   1      18.800 -20.465   1.804  0.00  0.00     0.007 A 
ENDBRANCH  21  22
ENDBRANCH  18  21
ENDBRANCH   3  15
TORSDOF 5
ENDMDL
MODEL 2
REMARK VINA RESULT:    -6.770      1.416      1.571
REMARK INTER + INTRA:          -9.855
REMARK INTER:                  -8.261
REMARK INTRA:                  -1.594
REMARK CONF_INDEPENDENT:        1.492
REMARK UNBOUND:                -1.594
REMARK  5 active torsions:
REMARK  status: ('A' for Active; 'I' for Inactive)
REMARK    1  A    between atoms: C_3  and  C_4 
REMARK       I    between atoms: C_4  and  N_6 
REMARK    2  A    between atoms: N_6  and  N_7 
REMARK       I    between atoms: N_7  and  C_8 
REMARK       I    between atoms: C_8  and  N_10 
REMARK    3  A    between atoms: N_10  and  C_11 
REMARK    4  A    between atoms: C_11  and  C_12 
REMARK    5  A    between atoms: C_18  and  N_19 
ROOT
ATOM      1  C   UNL d   1      25.356 -17.489  -0.022  0.00  0.00     0.270 C 
ATOM      2  O   UNL d   1      25.987 -18.472   0.393  0.00  0.00    -0.266 OA
ATOM      3  N   UNL d   1      23.978 -17.552  -0.136  0.00  0.00    -0.262 N 
ATOM      4  H   UNL d   1      23.382 -16.854  -0.531  0.00  0.00     0.190 HD
ENDROOT
BRANCH   1   5
ATOM      5  C   UNL d   1      26.138 -16.200  -0.414  0.00  0.00     0.042 A 
ATOM      6  C   UNL d   1      26.056 -15.445  -1.625  0.00  0.00    -0.013 A 
ATOM      7  C   UNL d   1      25.155 -15.766  -2.772  0.00  0.00     0.052 C 
ATOM      8  C   UNL d   1      26.877 -14.267  -1.790  0.00  0.00     0.109 A 
ATOM      9  C   UNL d   1      27.747 -13.838  -0.778  0.00  0.00     0.037 A 
ATOM     10  C   UNL d   1      27.822 -14.556   0.406  0.00  0.00     0.003 A 
ATOM     11  C   UNL d   1      27.038 -15.713   0.580  0.00  0.00     0.018 A 
BRANCH   8  12
ATOM     12  N   UNL d   1      26.850 -13.429  -3.037  0.00  0.00    -0.115 N 
ATOM     13  O   UNL d   1      25.935 -12.595  -3.143  0.00  0.00    -0.532 OA
ATOM     14  O   UNL d   1      27.713 -13.581  -3.903  0.00  0.00    -0.532 OA
ENDBRANCH   8  12
ENDBRANCH   1   5
BRANCH   3  15
ATOM     15  N   UNL d   1      23.156 -18.642   0.230  0.00  0.00    -0.249 N 
ATOM     16  C   UNL d   1      21.844 -18.577  -0.226  0.00  0.00     0.334 C 
ATOM     17  O   UNL d   1      21.449 -17.616  -0.896  0.00  0.00    -0.246 OA
ATOM     18  N   UNL d   1      21.042 -19.642   0.125  0.00  0.00    -0.341 N 
ATOM     19  H   UNL d   1      21.444 -20.432   0.598  0.00  0.00     0.164 HD
ATOM     20  H   UNL d   1      23.569 -19.397   0.759  0.00  0.00     0.192 HD
BRANCH  18  21
ATOM     21  C   UNL d   1      19.668 -19.679  -0.326  0.00  0.00     0.129 C 
BRANCH  21  22
ATOM     22  C   UNL d   1      18.608 -20.268   0.561  0.00  0.00     0.003 A 
ATOM     23  C   UNL d   1      18.366 -21.603   1.240  0.00  0.00     0.007 A 
ATOM     24  C   UNL d   1      18.870 -20.447   2.050  0.00  0.00     0.007 A 
ENDBRANCH  21  22
ENDBRANCH  18  21
ENDBRANCH   3  15
TORSDOF 5
ENDMDL
MODEL 3
REMARK VINA RESULT:    -6.765      1.540      2.459
REMARK INTER + INTRA:          -9.848
REMARK INTER:                  -8.257
REMARK INTRA:                  -1.592
REMARK CONF_INDEPENDENT:        1.492
REMARK UNBOUND:                -1.592
REMARK  5 active torsions:
REMARK  status: ('A' for Active; 'I' for Inactive)
REMARK    1  A    between atoms: C_3  and  C_4 
REMARK       I    between atoms: C_4  and  N_6 
REMARK    2  A    between atoms: N_6  and  N_7 
REMARK       I    between atoms: N_7  and  C_8 
REMARK       I    between atoms: C_8  and  N_10 
REMARK    3  A    between atoms: N_10  and  C_11 
REMARK    4  A    between atoms: C_11  and  C_12 
REMARK    5  A    between atoms: C_18  and  N_19 
ROOT
ATOM      1  C   UNL d   1      24.685 -16.005  -1.117  0.00  0.00     0.270 C 
ATOM      2  O   UNL d   1      25.149 -15.714  -0.004  0.00  0.00    -0.266 OA
ATOM      3  N   UNL d   1      23.653 -16.921  -1.215  0.00  0.00    -0.262 N 
ATOM      4  H   UNL d   1      23.261 -17.287  -2.058  0.00  0.00     0.190 HD
ENDROOT
BRANCH   1   5
ATOM      5  C   UNL d   1      25.288 -15.333  -2.386  0.00  0.00     0.042 A 
ATOM      6  C   UNL d   1      26.592 -15.498  -2.945  0.00  0.00    -0.013 A 
ATOM      7  C   UNL d   1      27.650 -16.397  -2.394  0.00  0.00     0.052 C 
ATOM      8  C   UNL d   1      26.954 -14.773  -4.142  0.00  0.00     0.109 A 
ATOM      9  C   UNL d   1      26.045 -13.917  -4.778  0.00  0.00     0.037 A 
ATOM     10  C   UNL d   1      24.772 -13.761  -4.251  0.00  0.00     0.003 A 
ATOM     11  C   UNL d   1      24.405 -14.450  -3.079  0.00  0.00     0.018 A 
BRANCH   8  12
ATOM     12  N   UNL d   1      28.309 -14.892  -4.783  0.00  0.00    -0.115 N 
ATOM     13  O   UNL d   1      28.379 -15.508  -5.859  0.00  0.00    -0.532 OA
ATOM     14  O   UNL d   1      29.294 -14.387  -4.241  0.00  0.00    -0.532 OA
ENDBRANCH   8  12
ENDBRANCH   1   5
BRANCH   3  15
ATOM     15  N   UNL d   1      22.995 -17.560  -0.139  0.00  0.00    -0.249 N 
ATOM     16  C   UNL d   1      22.139 -18.596  -0.496  0.00  0.00     0.334 C 
ATOM     17  O   UNL d   1      21.977 -18.909  -1.681  0.00  0.00    -0.246 OA
ATOM     18  N   UNL d   1      21.501 -19.224   0.552  0.00  0.00    -0.341 N 
ATOM     19  H   UNL d   1      21.738 -18.980   1.496  0.00  0.00     0.164 HD
ATOM     20  H   UNL d   1      23.205 -17.255   0.801  0.00  0.00     0.192 HD
BRANCH  18  21
ATOM     21  C   UNL d   1      20.610 -20.333   0.283  0.00  0.00     0.129 C 
BRANCH  21  22
ATOM     22  C   UNL d   1      19.158 -20.229   0.653  0.00  0.00     0.003 A 
ATOM     23  C   UNL d   1      18.042 -21.200   0.989  0.00  0.00     0.007 A 
ATOM     24  C   UNL d   1      18.718 -20.446   2.094  0.00  0.00     0.007 A 
ENDBRANCH  21  22
ENDBRANCH  18  21
ENDBRANCH   3  15
TORSDOF 5
ENDMDL
MODEL 4
REMARK VINA RESULT:    -6.719      2.103      2.640
REMARK INTER + INTRA:          -9.777
REMARK INTER:                  -8.211
REMARK INTRA:                  -1.567
REMARK CONF_INDEPENDENT:        1.492
REMARK UNBOUND:                -1.567
REMARK  5 active torsions:
REMARK  status: ('A' for Active; 'I' for Inactive)
REMARK    1  A    between atoms: C_3  and  C_4 
REMARK       I    between atoms: C_4  and  N_6 
REMARK    2  A    between atoms: N_6  and  N_7 
REMARK       I    between atoms: N_7  and  C_8 
REMARK       I    between atoms: C_8  and  N_10 
REMARK    3  A    between atoms: N_10  and  C_11 
REMARK    4  A    between atoms: C_11  and  C_12 
REMARK    5  A    between atoms: C_18  and  N_19 
ROOT
ATOM      1  C   UNL d   1      24.969 -17.346  -0.508  0.00  0.00     0.270 C 
ATOM      2  O   UNL d   1      25.702 -18.166   0.064  0.00  0.00    -0.266 OA
ATOM      3  N   UNL d   1      23.609 -17.587  -0.605  0.00  0.00    -0.262 N 
ATOM      4  H   UNL d   1      22.943 -17.039  -1.110  0.00  0.00     0.190 HD
ENDROOT
BRANCH   1   5
ATOM      5  C   UNL d   1      25.603 -16.059  -1.114  0.00  0.00     0.042 A 
ATOM      6  C   UNL d   1      26.626 -15.228  -0.563  0.00  0.00    -0.013 A 
ATOM      7  C   UNL d   1      27.307 -15.466   0.745  0.00  0.00     0.052 C 
ATOM      8  C   UNL d   1      27.077 -14.067  -1.296  0.00  0.00     0.109 A 
ATOM      9  C   UNL d   1      26.540 -13.744  -2.550  0.00  0.00     0.037 A 
ATOM     10  C   UNL d   1      25.558 -14.553  -3.100  0.00  0.00     0.003 A 
ATOM     11  C   UNL d   1      25.098 -15.682  -2.394  0.00  0.00     0.018 A 
BRANCH   8  12
ATOM     12  N   UNL d   1      28.143 -13.144  -0.776  0.00  0.00    -0.115 N 
ATOM     13  O   UNL d   1      27.770 -12.140  -0.147  0.00  0.00    -0.532 OA
ATOM     14  O   UNL d   1      29.332 -13.397  -0.979  0.00  0.00    -0.532 OA
ENDBRANCH   8  12
ENDBRANCH   1   5
BRANCH   3  15
ATOM     15  N   UNL d   1      22.913 -18.689  -0.058  0.00  0.00    -0.249 N 
ATOM     16  C   UNL d   1      21.593 -18.824  -0.475  0.00  0.00     0.334 C 
ATOM     17  O   UNL d   1      21.088 -18.017  -1.264  0.00  0.00    -0.246 OA
ATOM     18  N   UNL d   1      20.913 -19.901   0.053  0.00  0.00    -0.341 N 
ATOM     19  H   UNL d   1      21.403 -20.568   0.622  0.00  0.00     0.164 HD
ATOM     20  H   UNL d   1      23.411 -19.312   0.561  0.00  0.00     0.192 HD
BRANCH  18  21
ATOM     21  C   UNL d   1      19.542 -20.143  -0.343  0.00  0.00     0.129 C 
BRANCH  21  22
ATOM     22  C   UNL d   1      18.493 -20.371   0.708  0.00  0.00     0.003 A 
ATOM     23  C   UNL d   1      17.837 -21.576   1.355  0.00  0.00     0.007 A 
ATOM     24  C   UNL d   1      18.895 -20.824   2.104  0.00  0.00     0.007 A 
ENDBRANCH  21  22
ENDBRANCH  18  21
ENDBRANCH   3  15
TORSDOF 5
ENDMDL
MODEL 5
REMARK VINA RESULT:    -6.136      6.334      7.499
REMARK INTER + INTRA:          -9.035
REMARK INTER:                  -7.628
REMARK INTRA:                  -1.407
REMARK CONF_INDEPENDENT:        1.492
REMARK UNBOUND:                -1.407
REMARK  5 active torsions:
REMARK  status: ('A' for Active; 'I' for Inactive)
REMARK    1  A    between atoms: C_3  and  C_4 
REMARK       I    between atoms: C_4  and  N_6 
REMARK    2  A    between atoms: N_6  and  N_7 
REMARK       I    between atoms: N_7  and  C_8 
REMARK       I    between atoms: C_8  and  N_10 
REMARK    3  A    between atoms: N_10  and  C_11 
REMARK    4  A    between atoms: C_11  and  C_12 
REMARK    5  A    between atoms: C_18  and  N_19 
ROOT
ATOM      1  C   UNL d   1      28.184 -13.563   3.340  0.00  0.00     0.270 C 
ATOM      2  O   UNL d   1      28.683 -14.316   4.190  0.00  0.00    -0.266 OA
ATOM      3  N   UNL d   1      27.871 -14.054   2.084  0.00  0.00    -0.262 N 
ATOM      4  H   UNL d   1      27.544 -13.523   1.303  0.00  0.00     0.190 HD
ENDROOT
BRANCH   1   5
ATOM      5  C   UNL d   1      27.928 -12.071   3.707  0.00  0.00     0.042 A 
ATOM      6  C   UNL d   1      27.131 -11.109   3.014  0.00  0.00    -0.013 A 
ATOM      7  C   UNL d   1      26.356 -11.382   1.768  0.00  0.00     0.052 C 
ATOM      8  C   UNL d   1      27.025  -9.763   3.531  0.00  0.00     0.109 A 
ATOM      9  C   UNL d   1      27.680  -9.382   4.710  0.00  0.00     0.037 A 
ATOM     10  C   UNL d   1      28.444 -10.313   5.397  0.00  0.00     0.003 A 
ATOM     11  C   UNL d   1      28.568 -11.625   4.903  0.00  0.00     0.018 A 
BRANCH   8  12
ATOM     12  N   UNL d   1      26.211  -8.697   2.852  0.00  0.00    -0.115 N 
ATOM     13  O   UNL d   1      26.651  -7.536   2.886  0.00  0.00    -0.532 OA
ATOM     14  O   UNL d   1      25.154  -8.990   2.291  0.00  0.00    -0.532 OA
ENDBRANCH   8  12
ENDBRANCH   1   5
BRANCH   3  15
ATOM     15  N   UNL d   1      28.012 -15.391   1.648  0.00  0.00    -0.249 N 
ATOM     16  C   UNL d   1      27.117 -15.792   0.662  0.00  0.00     0.334 C 
ATOM     17  O   UNL d   1      26.263 -15.015   0.221  0.00  0.00    -0.246 OA
ATOM     18  N   UNL d   1      27.256 -17.094   0.231  0.00  0.00    -0.341 N 
ATOM     19  H   UNL d   1      28.023 -17.649   0.566  0.00  0.00     0.164 HD
ATOM     20  H   UNL d   1      28.754 -15.949   2.045  0.00  0.00     0.192 HD
BRANCH  18  21
ATOM     21  C   UNL d   1      26.390 -17.597  -0.813  0.00  0.00     0.129 C 
BRANCH  21  22
ATOM     22  C   UNL d   1      24.902 -17.423  -0.695  0.00  0.00     0.003 A 
ATOM     23  C   UNL d   1      23.672 -18.100  -1.270  0.00  0.00     0.007 A 
ATOM     24  C   UNL d   1      24.083 -18.397   0.140  0.00  0.00     0.007 A 
ENDBRANCH  21  22
ENDBRANCH  18  21
ENDBRANCH   3  15
TORSDOF 5
ENDMDL
MODEL 6
REMARK VINA RESULT:    -5.791      5.199      7.332
REMARK INTER + INTRA:          -8.787
REMARK INTER:                  -7.282
REMARK INTRA:                  -1.505
REMARK CONF_INDEPENDENT:        1.492
REMARK UNBOUND:                -1.505
REMARK  5 active torsions:
REMARK  status: ('A' for Active; 'I' for Inactive)
REMARK    1  A    between atoms: C_3  and  C_4 
REMARK       I    between atoms: C_4  and  N_6 
REMARK    2  A    between atoms: N_6  and  N_7 
REMARK       I    between atoms: N_7  and  C_8 
REMARK       I    between atoms: C_8  and  N_10 
REMARK    3  A    between atoms: N_10  and  C_11 
REMARK    4  A    between atoms: C_11  and  C_12 
REMARK    5  A    between atoms: C_18  and  N_19 
ROOT
ATOM      1  C   UNL d   1      27.464 -15.691  -0.707  0.00  0.00     0.270 C 
ATOM      2  O   UNL d   1      27.761 -16.891  -0.618  0.00  0.00    -0.266 OA
ATOM      3  N   UNL d   1      27.660 -14.850   0.375  0.00  0.00    -0.262 N 
ATOM      4  H   UNL d   1      27.383 -13.893   0.442  0.00  0.00     0.190 HD
ENDROOT
BRANCH   1   5
ATOM      5  C   UNL d   1      26.864 -15.157  -2.042  0.00  0.00     0.042 A 
ATOM      6  C   UNL d   1      27.522 -14.956  -3.294  0.00  0.00    -0.013 A 
ATOM      7  C   UNL d   1      28.962 -15.250  -3.558  0.00  0.00     0.052 C 
ATOM      8  C   UNL d   1      26.774 -14.446  -4.421  0.00  0.00     0.109 A 
ATOM      9  C   UNL d   1      25.407 -14.156  -4.316  0.00  0.00     0.037 A 
ATOM     10  C   UNL d   1      24.757 -14.361  -3.109  0.00  0.00     0.003 A 
ATOM     11  C   UNL d   1      25.472 -14.846  -1.998  0.00  0.00     0.018 A 
BRANCH   8  12
ATOM     12  N   UNL d   1      27.401 -14.203  -5.766  0.00  0.00    -0.115 N 
ATOM     13  O   UNL d   1      27.780 -15.198  -6.406  0.00  0.00    -0.532 OA
ATOM     14  O   UNL d   1      27.520 -13.054  -6.193  0.00  0.00    -0.532 OA
ENDBRANCH   8  12
ENDBRANCH   1   5
BRANCH   3  15
ATOM     15  N   UNL d   1      28.236 -15.204   1.617  0.00  0.00    -0.249 N 
ATOM     16  C   UNL d   1      27.780 -14.478   2.712  0.00  0.00     0.334 C 
ATOM     17  O   UNL d   1      26.936 -13.585   2.578  0.00  0.00    -0.246 OA
ATOM     18  N   UNL d   1      28.336 -14.825   3.925  0.00  0.00    -0.341 N 
ATOM     19  H   UNL d   1      28.954 -15.615   3.981  0.00  0.00     0.164 HD
ATOM     20  H   UNL d   1      28.901 -15.963   1.638  0.00  0.00     0.192 HD
BRANCH  18  21
ATOM     21  C   UNL d   1      27.905 -14.145   5.128  0.00  0.00     0.129 C 
BRANCH  21  22
ATOM     22  C   UNL d   1      28.911 -13.414   5.971  0.00  0.00     0.003 A 
ATOM     23  C   UNL d   1      28.868 -12.514   7.191  0.00  0.00     0.007 A 
ATOM     24  C   UNL d   1      29.284 -13.945   7.348  0.00  0.00     0.007 A 
ENDBRANCH  21  22
ENDBRANCH  18  21
ENDBRANCH   3  15
TORSDOF 5
ENDMDL
MODEL 7
REMARK VINA RESULT:    -5.759      5.167      7.721
REMARK INTER + INTRA:          -8.832
REMARK INTER:                  -7.250
REMARK INTRA:                  -1.582
REMARK CONF_INDEPENDENT:        1.492
REMARK UNBOUND:                -1.582
REMARK  5 active torsions:
REMARK  status: ('A' for Active; 'I' for Inactive)
REMARK    1  A    between atoms: C_3  and  C_4 
REMARK       I    between atoms: C_4  and  N_6 
REMARK    2  A    between atoms: N_6  and  N_7 
REMARK       I    between atoms: N_7  and  C_8 
REMARK       I    between atoms: C_8  and  N_10 
REMARK    3  A    between atoms: N_10  and  C_11 
REMARK    4  A    between atoms: C_11  and  C_12 
REMARK    5  A    between atoms: C_18  and  N_19 
ROOT
ATOM      1  C   UNL d   1      27.895 -15.850   0.637  0.00  0.00     0.270 C 
ATOM      2  O   UNL d   1      29.021 -16.360   0.538  0.00  0.00    -0.266 OA
ATOM      3  N   UNL d   1      27.568 -15.114   1.762  0.00  0.00    -0.262 N 
ATOM      4  H   UNL d   1      26.672 -14.730   1.981  0.00  0.00     0.190 HD
ENDROOT
BRANCH   1   5
ATOM      5  C   UNL d   1      26.866 -16.060  -0.514  0.00  0.00     0.042 A 
ATOM      6  C   UNL d   1      26.869 -15.489  -1.824  0.00  0.00    -0.013 A 
ATOM      7  C   UNL d   1      27.914 -14.560  -2.347  0.00  0.00     0.052 C 
ATOM      8  C   UNL d   1      25.809 -15.819  -2.750  0.00  0.00     0.109 A 
ATOM      9  C   UNL d   1      24.781 -16.702  -2.395  0.00  0.00     0.037 A 
ATOM     10  C   UNL d   1      24.778 -17.273  -1.131  0.00  0.00     0.003 A 
ATOM     11  C   UNL d   1      25.795 -16.954  -0.212  0.00  0.00     0.018 A 
BRANCH   8  12
ATOM     12  N   UNL d   1      25.743 -15.251  -4.140  0.00  0.00    -0.115 N 
ATOM     13  O   UNL d   1      24.820 -14.458  -4.389  0.00  0.00    -0.532 OA
ATOM     14  O   UNL d   1      26.584 -15.575  -4.981  0.00  0.00    -0.532 OA
ENDBRANCH   8  12
ENDBRANCH   1   5
BRANCH   3  15
ATOM     15  N   UNL d   1      28.425 -14.815   2.846  0.00  0.00    -0.249 N 
ATOM     16  C   UNL d   1      27.851 -14.070   3.870  0.00  0.00     0.334 C 
ATOM     17  O   UNL d   1      26.673 -13.702   3.807  0.00  0.00    -0.246 OA
ATOM     18  N   UNL d   1      28.683 -13.783   4.931  0.00  0.00    -0.341 N 
ATOM     19  H   UNL d   1      29.604 -14.182   4.962  0.00  0.00     0.164 HD
ATOM     20  H   UNL d   1      29.367 -15.178   2.826  0.00  0.00     0.192 HD
BRANCH  18  21
ATOM     21  C   UNL d   1      28.169 -13.036   6.059  0.00  0.00     0.129 C 
BRANCH  21  22
ATOM     22  C   UNL d   1      29.038 -12.814   7.264  0.00  0.00     0.003 A 
ATOM     23  C   UNL d   1      28.816 -12.603   8.749  0.00  0.00     0.007 A 
ATOM     24  C   UNL d   1      29.271 -13.944   8.257  0.00  0.00     0.007 A 
ENDBRANCH  21  22
ENDBRANCH  18  21
ENDBRANCH   3  15
TORSDOF 5
ENDMDL
MODEL 8
REMARK VINA RESULT:    -5.514      5.914      6.998
REMARK INTER + INTRA:          -8.605
REMARK INTER:                  -7.006
REMARK INTRA:                  -1.599
REMARK CONF_INDEPENDENT:        1.492
REMARK UNBOUND:                -1.599
REMARK  5 active torsions:
REMARK  status: ('A' for Active; 'I' for Inactive)
REMARK    1  A    between atoms: C_3  and  C_4 
REMARK       I    between atoms: C_4  and  N_6 
REMARK    2  A    between atoms: N_6  and  N_7 
REMARK       I    between atoms: N_7  and  C_8 
REMARK       I    between atoms: C_8  and  N_10 
REMARK    3  A    between atoms: N_10  and  C_11 
REMARK    4  A    between atoms: C_11  and  C_12 
REMARK    5  A    between atoms: C_18  and  N_19 
ROOT
ATOM      1  C   UNL d   1      27.550 -12.731   1.389  0.00  0.00     0.270 C 
ATOM      2  O   UNL d   1      28.076 -12.976   2.485  0.00  0.00    -0.266 OA
ATOM      3  N   UNL d   1      27.165 -13.772   0.562  0.00  0.00    -0.262 N 
ATOM      4  H   UNL d   1      26.809 -13.692  -0.368  0.00  0.00     0.190 HD
ENDROOT
BRANCH   1   5
ATOM      5  C   UNL d   1      27.341 -11.247   0.965  0.00  0.00     0.042 A 
ATOM      6  C   UNL d   1      26.793 -10.173   1.730  0.00  0.00    -0.013 A 
ATOM      7  C   UNL d   1      26.314 -10.286   3.140  0.00  0.00     0.052 C 
ATOM      8  C   UNL d   1      26.687  -8.857   1.141  0.00  0.00     0.109 A 
ATOM      9  C   UNL d   1      27.126  -8.606  -0.166  0.00  0.00     0.037 A 
ATOM     10  C   UNL d   1      27.674  -9.640  -0.911  0.00  0.00     0.003 A 
ATOM     11  C   UNL d   1      27.774 -10.930  -0.358  0.00  0.00     0.018 A 
BRANCH   8  12
ATOM     12  N   UNL d   1      26.114  -7.681   1.883  0.00  0.00    -0.115 N 
ATOM     13  O   UNL d   1      25.155  -7.090   1.360  0.00  0.00    -0.532 OA
ATOM     14  O   UNL d   1      26.595  -7.340   2.965  0.00  0.00    -0.532 OA
ENDBRANCH   8  12
ENDBRANCH   1   5
BRANCH   3  15
ATOM     15  N   UNL d   1      27.258 -15.152   0.854  0.00  0.00    -0.249 N 
ATOM     16  C   UNL d   1      26.416 -15.975   0.112  0.00  0.00     0.334 C 
ATOM     17  O   UNL d   1      25.645 -15.503  -0.730  0.00  0.00    -0.246 OA
ATOM     18  N   UNL d   1      26.509 -17.321   0.391  0.00  0.00    -0.341 N 
ATOM     19  H   UNL d   1      27.215 -17.650   1.026  0.00  0.00     0.164 HD
ATOM     20  H   UNL d   1      27.934 -15.453   1.541  0.00  0.00     0.192 HD
BRANCH  18  21
ATOM     21  C   UNL d   1      25.694 -18.261  -0.348  0.00  0.00     0.129 C 
BRANCH  21  22
ATOM     22  C   UNL d   1      24.231 -18.390  -0.030  0.00  0.00     0.003 A 
ATOM     23  C   UNL d   1      23.004 -17.505  -0.146  0.00  0.00     0.007 A 
ATOM     24  C   UNL d   1      23.221 -18.598  -1.149  0.00  0.00     0.007 A 
ENDBRANCH  21  22
ENDBRANCH  18  21
ENDBRANCH   3  15
TORSDOF 5
ENDMDL
MODEL 9
REMARK VINA RESULT:    -5.440      5.463      7.768
REMARK INTER + INTRA:          -8.494
REMARK INTER:                  -6.932
REMARK INTRA:                  -1.562
REMARK CONF_INDEPENDENT:        1.492
REMARK UNBOUND:                -1.562
REMARK  5 active torsions:
REMARK  status: ('A' for Active; 'I' for Inactive)
REMARK    1  A    between atoms: C_3  and  C_4 
REMARK       I    between atoms: C_4  and  N_6 
REMARK    2  A    between atoms: N_6  and  N_7 
REMARK       I    between atoms: N_7  and  C_8 
REMARK       I    between atoms: C_8  and  N_10 
REMARK    3  A    between atoms: N_10  and  C_11 
REMARK    4  A    between atoms: C_11  and  C_12 
REMARK    5  A    between atoms: C_18  and  N_19 
ROOT
ATOM      1  C   UNL d   1      28.386 -14.267  -0.263  0.00  0.00     0.270 C 
ATOM      2  O   UNL d   1      29.540 -14.636  -0.528  0.00  0.00    -0.266 OA
ATOM      3  N   UNL d   1      27.909 -14.371   1.032  0.00  0.00    -0.262 N 
ATOM      4  H   UNL d   1      26.978 -14.181   1.339  0.00  0.00     0.190 HD
ENDROOT
BRANCH   1   5
ATOM      5  C   UNL d   1      27.493 -13.698  -1.406  0.00  0.00     0.042 A 
ATOM      6  C   UNL d   1      26.623 -14.406  -2.290  0.00  0.00    -0.013 A 
ATOM      7  C   UNL d   1      26.395 -15.882  -2.263  0.00  0.00     0.052 C 
ATOM      8  C   UNL d   1      25.876 -13.680  -3.292  0.00  0.00     0.109 A 
ATOM      9  C   UNL d   1      25.976 -12.287  -3.407  0.00  0.00     0.037 A 
ATOM     10  C   UNL d   1      26.807 -11.589  -2.544  0.00  0.00     0.003 A 
ATOM     11  C   UNL d   1      27.551 -12.281  -1.570  0.00  0.00     0.018 A 
BRANCH   8  12
ATOM     12  N   UNL d   1      24.948 -14.358  -4.260  0.00  0.00    -0.115 N 
ATOM     13  O   UNL d   1      25.441 -15.201  -5.028  0.00  0.00    -0.532 OA
ATOM     14  O   UNL d   1      23.749 -14.073  -4.270  0.00  0.00    -0.532 OA
ENDBRANCH   8  12
ENDBRANCH   1   5
BRANCH   3  15
ATOM     15  N   UNL d   1      28.634 -14.825   2.157  0.00  0.00    -0.249 N 
ATOM     16  C   UNL d   1      28.108 -14.458   3.391  0.00  0.00     0.334 C 
ATOM     17  O   UNL d   1      27.080 -13.775   3.468  0.00  0.00    -0.246 OA
ATOM     18  N   UNL d   1      28.810 -14.904   4.490  0.00  0.00    -0.341 N 
ATOM     19  H   UNL d   1      29.589 -15.525   4.364  0.00  0.00     0.164 HD
ATOM     20  H   UNL d   1      29.451 -15.399   2.003  0.00  0.00     0.192 HD
BRANCH  18  21
ATOM     21  C   UNL d   1      28.326 -14.597   5.819  0.00  0.00     0.129 C 
BRANCH  21  22
ATOM     22  C   UNL d   1      28.872 -13.406   6.555  0.00  0.00     0.003 A 
ATOM     23  C   UNL d   1      28.529 -12.655   7.827  0.00  0.00     0.007 A 
ATOM     24  C   UNL d   1      29.692 -13.601   7.822  0.00  0.00     0.007 A 
ENDBRANCH  21  22
ENDBRANCH  18  21
ENDBRANCH   3  15
TORSDOF 5
ENDMDL
