MODEL 1
REMARK VINA RESULT:    -8.218      0.000      0.000
REMARK INTER + INTRA:         -14.528
REMARK INTER:                 -12.096
REMARK INTRA:                  -2.432
REMARK CONF_INDEPENDENT:        3.878
REMARK UNBOUND:                -2.432
REMARK  13 active torsions:
REMARK  status: ('A' for Active; 'I' for Inactive)
REMARK    1  A    between atoms: C_2  and  C_3 
REMARK    2  A    between atoms: C_3  and  C_4 
REMARK    3  A    between atoms: C_4  and  O_5 
REMARK    4  A    between atoms: O_5  and  C_6 
REMARK    5  A    between atoms: C_12  and  C_13 
REMARK       I    between atoms: C_13  and  N_15 
REMARK    6  A    between atoms: N_15  and  C_16 
REMARK    7  A    between atoms: C_16  and  N_18 
REMARK    8  A    between atoms: N_18  and  C_19 
REMARK    9  A    between atoms: C_24  and  C_25 
REMARK       I    between atoms: C_25  and  N_27 
REMARK   10  A    between atoms: N_27  and  C_28 
REMARK   11  A    between atoms: C_28  and  C_29 
REMARK   12  A    between atoms: C_29  and  C_30 
REMARK   13  A    between atoms: C_30  and  O_31 
ROOT
ATOM      1  C   UNL d   1      26.356 -13.871  -1.131  0.00  0.00     0.179 C 
ATOM      2  S   UNL d   1      26.634 -12.973   0.268  0.00  0.00    -0.040 SA
ENDROOT
BRANCH   1   3
ATOM      3  N   UNL d   1      26.820 -13.506  -2.424  0.00  0.00    -0.299 N 
ATOM      4  C   UNL d   1      26.176 -13.794  -3.655  0.00  0.00     0.260 C 
ATOM      5  O   UNL d   1      25.144 -14.458  -3.748  0.00  0.00    -0.267 OA
ATOM      6  H   UNL d   1      27.756 -13.121  -2.510  0.00  0.00     0.171 HD
BRANCH   4   7
ATOM      7  C   UNL d   1      26.785 -13.432  -4.974  0.00  0.00     0.067 A 
ATOM      8  C   UNL d   1      26.505 -12.134  -5.478  0.00  0.00     0.039 A 
ATOM      9  C   UNL d   1      27.111 -11.662  -6.638  0.00  0.00     0.012 A 
ATOM     10  C   UNL d   1      28.040 -12.453  -7.294  0.00  0.00     0.022 A 
ATOM     11 BR   UNL d   1      26.663  -9.958  -7.322  0.00  0.00    -0.051 Br
ATOM     12  C   UNL d   1      28.282 -13.755  -6.841  0.00  0.00     0.039 A 
ATOM     13  C   UNL d   1      27.631 -14.260  -5.704  0.00  0.00     0.084 A 
BRANCH  13  14
ATOM     14  O   UNL d   1      27.725 -15.575  -5.338  0.00  0.00    -0.350 OA
BRANCH  14  15
ATOM     15  C   UNL d   1      28.547 -15.764  -4.188  0.00  0.00     0.175 C 
BRANCH  15  16
ATOM     16  C   UNL d   1      29.987 -15.828  -4.672  0.00  0.00     0.026 C 
BRANCH  16  17
ATOM     17  C   UNL d   1      30.189 -17.037  -5.572  0.00  0.00    -0.002 C 
ATOM     18  C   UNL d   1      30.394 -18.296  -4.754  0.00  0.00     0.005 C 
ENDBRANCH  16  17
ENDBRANCH  15  16
ENDBRANCH  14  15
ENDBRANCH  13  14
ENDBRANCH   4   7
ENDBRANCH   1   3
BRANCH   1  19
ATOM     19  N   UNL d   1      25.538 -15.038  -1.145  0.00  0.00    -0.332 N 
ATOM     20  H   UNL d   1      24.792 -15.088  -1.832  0.00  0.00     0.168 HD
BRANCH  19  21
ATOM     21  C   UNL d   1      26.008 -16.323  -0.669  0.00  0.00     0.050 A 
ATOM     22  C   UNL d   1      27.398 -16.524  -0.500  0.00  0.00     0.030 A 
ATOM     23  C   UNL d   1      27.903 -17.738   0.001  0.00  0.00     0.002 A 
ATOM     24  C   UNL d   1      27.030 -18.751   0.380  0.00  0.00     0.001 A 
ATOM     25  C   UNL d   1      25.658 -18.578   0.195  0.00  0.00     0.019 A 
ATOM     26  C   UNL d   1      25.126 -17.387  -0.354  0.00  0.00     0.058 A 
BRANCH  26  27
ATOM     27  C   UNL d   1      23.633 -17.362  -0.563  0.00  0.00     0.253 C 
ATOM     28  O   UNL d   1      23.120 -16.463  -1.243  0.00  0.00    -0.268 OA
ATOM     29  N   UNL d   1      22.869 -18.350   0.021  0.00  0.00    -0.357 N 
ATOM     30  H   UNL d   1      23.361 -19.055   0.550  0.00  0.00     0.162 HD
BRANCH  29  31
ATOM     31  C   UNL d   1      21.521 -18.645  -0.445  0.00  0.00     0.125 C 
BRANCH  31  32
ATOM     32  C   UNL d   1      20.756 -19.554   0.497  0.00  0.00     0.046 C 
BRANCH  32  33
ATOM     33  C   UNL d   1      19.471 -20.120  -0.063  0.00  0.00     0.165 C 
BRANCH  33  34
ATOM     34  O   UNL d   1      19.150 -19.458  -1.280  0.00  0.00    -0.401 OA
ATOM     35  H   UNL d   1      18.182 -19.374  -1.293  0.00  0.00     0.209 HD
ENDBRANCH  33  34
ENDBRANCH  32  33
ENDBRANCH  31  32
ENDBRANCH  29  31
ENDBRANCH  26  27
ENDBRANCH  19  21
ENDBRANCH   1  19
TORSDOF 13
ENDMDL
MODEL 2
REMARK VINA RESULT:    -7.623      4.335      8.482
REMARK INTER + INTRA:         -14.844
REMARK INTER:                 -11.501
REMARK INTRA:                  -3.342
REMARK CONF_INDEPENDENT:        3.878
REMARK UNBOUND:                -3.342
REMARK  13 active torsions:
REMARK  status: ('A' for Active; 'I' for Inactive)
REMARK    1  A    between atoms: C_2  and  C_3 
REMARK    2  A    between atoms: C_3  and  C_4 
REMARK    3  A    between atoms: C_4  and  O_5 
REMARK    4  A    between atoms: O_5  and  C_6 
REMARK    5  A    between atoms: C_12  and  C_13 
REMARK       I    between atoms: C_13  and  N_15 
REMARK    6  A    between atoms: N_15  and  C_16 
REMARK    7  A    between atoms: C_16  and  N_18 
REMARK    8  A    between atoms: N_18  and  C_19 
REMARK    9  A    between atoms: C_24  and  C_25 
REMARK       I    between atoms: C_25  and  N_27 
REMARK   10  A    between atoms: N_27  and  C_28 
REMARK   11  A    between atoms: C_28  and  C_29 
REMARK   12  A    between atoms: C_29  and  C_30 
REMARK   13  A    between atoms: C_30  and  O_31 
ROOT
ATOM      1  C   UNL d   1      26.639 -13.638  -4.432  0.00  0.00     0.179 C 
ATOM      2  S   UNL d   1      27.614 -13.830  -5.794  0.00  0.00    -0.040 SA
ENDROOT
BRANCH   1   3
ATOM      3  N   UNL d   1      26.444 -14.636  -3.439  0.00  0.00    -0.299 N 
ATOM      4  C   UNL d   1      25.203 -15.005  -2.858  0.00  0.00     0.260 C 
ATOM      5  O   UNL d   1      24.135 -14.449  -3.115  0.00  0.00    -0.267 OA
ATOM      6  H   UNL d   1      27.262 -15.042  -2.995  0.00  0.00     0.171 HD
BRANCH   4   7
ATOM      7  C   UNL d   1      25.109 -16.018  -1.760  0.00  0.00     0.067 A 
ATOM      8  C   UNL d   1      23.880 -16.717  -1.632  0.00  0.00     0.039 A 
ATOM      9  C   UNL d   1      23.729 -17.755  -0.718  0.00  0.00     0.012 A 
ATOM     10  C   UNL d   1      24.810 -18.147   0.055  0.00  0.00     0.022 A 
ATOM     11 BR   UNL d   1      22.059 -18.617  -0.521  0.00  0.00    -0.051 Br
ATOM     12  C   UNL d   1      26.010 -17.430  -0.020  0.00  0.00     0.039 A 
ATOM     13  C   UNL d   1      26.152 -16.344  -0.899  0.00  0.00     0.084 A 
BRANCH  13  14
ATOM     14  O   UNL d   1      27.251 -15.529  -0.875  0.00  0.00    -0.350 OA
BRANCH  14  15
ATOM     15  C   UNL d   1      27.533 -15.031   0.431  0.00  0.00     0.175 C 
BRANCH  15  16
ATOM     16  C   UNL d   1      26.656 -13.806   0.642  0.00  0.00     0.026 C 
BRANCH  16  17
ATOM     17  C   UNL d   1      27.120 -13.028   1.862  0.00  0.00    -0.002 C 
ATOM     18  C   UNL d   1      28.012 -13.879   2.744  0.00  0.00     0.005 C 
ENDBRANCH  16  17
ENDBRANCH  15  16
ENDBRANCH  14  15
ENDBRANCH  13  14
ENDBRANCH   4   7
ENDBRANCH   1   3
BRANCH   1  19
ATOM     19  N   UNL d   1      25.843 -12.476  -4.215  0.00  0.00    -0.332 N 
ATOM     20  H   UNL d   1      24.843 -12.549  -4.369  0.00  0.00     0.168 HD
BRANCH  19  21
ATOM     21  C   UNL d   1      26.239 -11.423  -3.301  0.00  0.00     0.050 A 
ATOM     22  C   UNL d   1      26.936 -11.767  -2.119  0.00  0.00     0.030 A 
ATOM     23  C   UNL d   1      27.382 -10.779  -1.222  0.00  0.00     0.002 A 
ATOM     24  C   UNL d   1      27.175  -9.435  -1.509  0.00  0.00     0.001 A 
ATOM     25  C   UNL d   1      26.465  -9.080  -2.657  0.00  0.00     0.019 A 
ATOM     26  C   UNL d   1      25.963 -10.056  -3.551  0.00  0.00     0.058 A 
BRANCH  26  27
ATOM     27  C   UNL d   1      25.155  -9.536  -4.713  0.00  0.00     0.253 C 
ATOM     28  O   UNL d   1      25.191 -10.124  -5.803  0.00  0.00    -0.268 OA
ATOM     29  N   UNL d   1      24.392  -8.401  -4.531  0.00  0.00    -0.357 N 
ATOM     30  H   UNL d   1      24.405  -7.985  -3.612  0.00  0.00     0.162 HD
BRANCH  29  31
ATOM     31  C   UNL d   1      23.295  -8.070  -5.429  0.00  0.00     0.125 C 
BRANCH  31  32
ATOM     32  C   UNL d   1      22.556  -6.810  -5.020  0.00  0.00     0.046 C 
BRANCH  32  33
ATOM     33  C   UNL d   1      23.437  -5.613  -4.745  0.00  0.00     0.165 C 
BRANCH  33  34
ATOM     34  O   UNL d   1      24.184  -5.834  -3.556  0.00  0.00    -0.401 OA
ATOM     35  H   UNL d   1      23.655  -6.445  -3.016  0.00  0.00     0.209 HD
ENDBRANCH  33  34
ENDBRANCH  32  33
ENDBRANCH  31  32
ENDBRANCH  29  31
ENDBRANCH  26  27
ENDBRANCH  19  21
ENDBRANCH   1  19
TORSDOF 13
ENDMDL
MODEL 3
REMARK VINA RESULT:    -7.376      3.297      7.939
REMARK INTER + INTRA:         -14.856
REMARK INTER:                 -11.254
REMARK INTRA:                  -3.602
REMARK CONF_INDEPENDENT:        3.878
REMARK UNBOUND:                -3.602
REMARK  13 active torsions:
REMARK  status: ('A' for Active; 'I' for Inactive)
REMARK    1  A    between atoms: C_2  and  C_3 
REMARK    2  A    between atoms: C_3  and  C_4 
REMARK    3  A    between atoms: C_4  and  O_5 
REMARK    4  A    between atoms: O_5  and  C_6 
REMARK    5  A    between atoms: C_12  and  C_13 
REMARK       I    between atoms: C_13  and  N_15 
REMARK    6  A    between atoms: N_15  and  C_16 
REMARK    7  A    between atoms: C_16  and  N_18 
REMARK    8  A    between atoms: N_18  and  C_19 
REMARK    9  A    between atoms: C_24  and  C_25 
REMARK       I    between atoms: C_25  and  N_27 
REMARK   10  A    between atoms: N_27  and  C_28 
REMARK   11  A    between atoms: C_28  and  C_29 
REMARK   12  A    between atoms: C_29  and  C_30 
REMARK   13  A    between atoms: C_30  and  O_31 
ROOT
ATOM      1  C   UNL d   1      26.256 -12.479  -2.977  0.00  0.00     0.179 C 
ATOM      2  S   UNL d   1      27.058 -11.067  -2.523  0.00  0.00    -0.040 SA
ENDROOT
BRANCH   1   3
ATOM      3  N   UNL d   1      26.126 -13.628  -2.151  0.00  0.00    -0.299 N 
ATOM      4  C   UNL d   1      25.288 -14.745  -2.401  0.00  0.00     0.260 C 
ATOM      5  O   UNL d   1      24.519 -14.824  -3.359  0.00  0.00    -0.267 OA
ATOM      6  H   UNL d   1      26.557 -13.612  -1.232  0.00  0.00     0.171 HD
BRANCH   4   7
ATOM      7  C   UNL d   1      25.162 -15.877  -1.429  0.00  0.00     0.067 A 
ATOM      8  C   UNL d   1      23.947 -16.612  -1.451  0.00  0.00     0.039 A 
ATOM      9  C   UNL d   1      23.775 -17.748  -0.667  0.00  0.00     0.012 A 
ATOM     10  C   UNL d   1      24.821 -18.201   0.120  0.00  0.00     0.022 A 
ATOM     11 BR   UNL d   1      22.120 -18.662  -0.663  0.00  0.00    -0.051 Br
ATOM     12  C   UNL d   1      26.003 -17.455   0.194  0.00  0.00     0.039 A 
ATOM     13  C   UNL d   1      26.164 -16.274  -0.550  0.00  0.00     0.084 A 
BRANCH  13  14
ATOM     14  O   UNL d   1      27.237 -15.444  -0.372  0.00  0.00    -0.350 OA
BRANCH  14  15
ATOM     15  C   UNL d   1      28.477 -16.085  -0.665  0.00  0.00     0.175 C 
BRANCH  15  16
ATOM     16  C   UNL d   1      28.513 -16.325  -2.167  0.00  0.00     0.026 C 
BRANCH  16  17
ATOM     17  C   UNL d   1      29.816 -16.999  -2.563  0.00  0.00    -0.002 C 
ATOM     18  C   UNL d   1      30.390 -17.795  -1.408  0.00  0.00     0.005 C 
ENDBRANCH  16  17
ENDBRANCH  15  16
ENDBRANCH  14  15
ENDBRANCH  13  14
ENDBRANCH   4   7
ENDBRANCH   1   3
BRANCH   1  19
ATOM     19  N   UNL d   1      25.720 -12.670  -4.284  0.00  0.00    -0.332 N 
ATOM     20  H   UNL d   1      24.714 -12.778  -4.374  0.00  0.00     0.168 HD
BRANCH  19  21
ATOM     21  C   UNL d   1      26.385 -12.186  -5.476  0.00  0.00     0.050 A 
ATOM     22  C   UNL d   1      26.018 -10.925  -6.001  0.00  0.00     0.030 A 
ATOM     23  C   UNL d   1      26.665 -10.389  -7.130  0.00  0.00     0.002 A 
ATOM     24  C   UNL d   1      27.713 -11.081  -7.726  0.00  0.00     0.001 A 
ATOM     25  C   UNL d   1      28.069 -12.339  -7.236  0.00  0.00     0.019 A 
ATOM     26  C   UNL d   1      27.402 -12.923  -6.133  0.00  0.00     0.058 A 
BRANCH  26  27
ATOM     27  C   UNL d   1      27.842 -14.315  -5.753  0.00  0.00     0.253 C 
ATOM     28  O   UNL d   1      26.997 -15.201  -5.570  0.00  0.00    -0.268 OA
ATOM     29  N   UNL d   1      29.191 -14.564  -5.611  0.00  0.00    -0.357 N 
ATOM     30  H   UNL d   1      29.819 -13.793  -5.788  0.00  0.00     0.162 HD
BRANCH  29  31
ATOM     31  C   UNL d   1      29.723 -15.918  -5.655  0.00  0.00     0.125 C 
BRANCH  31  32
ATOM     32  C   UNL d   1      30.546 -16.189  -6.899  0.00  0.00     0.046 C 
BRANCH  32  33
ATOM     33  C   UNL d   1      31.508 -15.088  -7.283  0.00  0.00     0.165 C 
BRANCH  33  34
ATOM     34  O   UNL d   1      30.778 -13.943  -7.703  0.00  0.00    -0.401 OA
ATOM     35  H   UNL d   1      30.587 -14.077  -8.646  0.00  0.00     0.209 HD
ENDBRANCH  33  34
ENDBRANCH  32  33
ENDBRANCH  31  32
ENDBRANCH  29  31
ENDBRANCH  26  27
ENDBRANCH  19  21
ENDBRANCH   1  19
TORSDOF 13
ENDMDL
MODEL 4
REMARK VINA RESULT:    -7.116      3.842      8.421
REMARK INTER + INTRA:         -14.645
REMARK INTER:                 -10.994
REMARK INTRA:                  -3.651
REMARK CONF_INDEPENDENT:        3.878
REMARK UNBOUND:                -3.651
REMARK  13 active torsions:
REMARK  status: ('A' for Active; 'I' for Inactive)
REMARK    1  A    between atoms: C_2  and  C_3 
REMARK    2  A    between atoms: C_3  and  C_4 
REMARK    3  A    between atoms: C_4  and  O_5 
REMARK    4  A    between atoms: O_5  and  C_6 
REMARK    5  A    between atoms: C_12  and  C_13 
REMARK       I    between atoms: C_13  and  N_15 
REMARK    6  A    between atoms: N_15  and  C_16 
REMARK    7  A    between atoms: C_16  and  N_18 
REMARK    8  A    between atoms: N_18  and  C_19 
REMARK    9  A    between atoms: C_24  and  C_25 
REMARK       I    between atoms: C_25  and  N_27 
REMARK   10  A    between atoms: N_27  and  C_28 
REMARK   11  A    between atoms: C_28  and  C_29 
REMARK   12  A    between atoms: C_29  and  C_30 
REMARK   13  A    between atoms: C_30  and  O_31 
ROOT
ATOM      1  C   UNL d   1      26.956 -14.513  -4.932  0.00  0.00     0.179 C 
ATOM      2  S   UNL d   1      28.065 -14.825  -6.163  0.00  0.00    -0.040 SA
ENDROOT
BRANCH   1   3
ATOM      3  N   UNL d   1      26.724 -15.374  -3.825  0.00  0.00    -0.299 N 
ATOM      4  C   UNL d   1      25.507 -15.502  -3.108  0.00  0.00     0.260 C 
ATOM      5  O   UNL d   1      24.504 -14.825  -3.334  0.00  0.00    -0.267 OA
ATOM      6  H   UNL d   1      27.519 -15.851  -3.410  0.00  0.00     0.171 HD
BRANCH   4   7
ATOM      7  C   UNL d   1      25.383 -16.384  -1.904  0.00  0.00     0.067 A 
ATOM      8  C   UNL d   1      24.094 -16.905  -1.618  0.00  0.00     0.039 A 
ATOM      9  C   UNL d   1      23.895 -17.821  -0.589  0.00  0.00     0.012 A 
ATOM     10  C   UNL d   1      24.981 -18.269   0.145  0.00  0.00     0.022 A 
ATOM     11 BR   UNL d   1      22.155 -18.441  -0.186  0.00  0.00    -0.051 Br
ATOM     12  C   UNL d   1      26.247 -17.722  -0.089  0.00  0.00     0.039 A 
ATOM     13  C   UNL d   1      26.446 -16.753  -1.087  0.00  0.00     0.084 A 
BRANCH  13  14
ATOM     14  O   UNL d   1      27.633 -16.086  -1.226  0.00  0.00    -0.350 OA
BRANCH  14  15
ATOM     15  C   UNL d   1      28.015 -15.399  -0.036  0.00  0.00     0.175 C 
BRANCH  15  16
ATOM     16  C   UNL d   1      26.915 -14.395   0.274  0.00  0.00     0.026 C 
BRANCH  16  17
ATOM     17  C   UNL d   1      27.292 -13.554   1.483  0.00  0.00    -0.002 C 
ATOM     18  C   UNL d   1      27.780 -14.428   2.622  0.00  0.00     0.005 C 
ENDBRANCH  16  17
ENDBRANCH  15  16
ENDBRANCH  14  15
ENDBRANCH  13  14
ENDBRANCH   4   7
ENDBRANCH   1   3
BRANCH   1  19
ATOM     19  N   UNL d   1      26.080 -13.389  -4.955  0.00  0.00    -0.332 N 
ATOM     20  H   UNL d   1      25.096 -13.557  -5.137  0.00  0.00     0.168 HD
BRANCH  19  21
ATOM     21  C   UNL d   1      26.359 -12.171  -4.220  0.00  0.00     0.050 A 
ATOM     22  C   UNL d   1      26.661 -12.256  -2.841  0.00  0.00     0.030 A 
ATOM     23  C   UNL d   1      26.983 -11.108  -2.093  0.00  0.00     0.002 A 
ATOM     24  C   UNL d   1      27.050  -9.868  -2.717  0.00  0.00     0.001 A 
ATOM     25  C   UNL d   1      26.728  -9.764  -4.071  0.00  0.00     0.019 A 
ATOM     26  C   UNL d   1      26.352 -10.895  -4.835  0.00  0.00     0.058 A 
BRANCH  26  27
ATOM     27  C   UNL d   1      25.964 -10.628  -6.268  0.00  0.00     0.253 C 
ATOM     28  O   UNL d   1      25.019  -9.868  -6.520  0.00  0.00    -0.268 OA
ATOM     29  N   UNL d   1      26.678 -11.249  -7.271  0.00  0.00    -0.357 N 
ATOM     30  H   UNL d   1      27.443 -11.844  -6.987  0.00  0.00     0.162 HD
BRANCH  29  31
ATOM     31  C   UNL d   1      26.655 -10.754  -8.640  0.00  0.00     0.125 C 
BRANCH  31  32
ATOM     32  C   UNL d   1      27.137 -11.779  -9.648  0.00  0.00     0.046 C 
BRANCH  32  33
ATOM     33  C   UNL d   1      28.581 -12.199  -9.493  0.00  0.00     0.165 C 
BRANCH  33  34
ATOM     34  O   UNL d   1      28.727 -12.974  -8.310  0.00  0.00    -0.401 OA
ATOM     35  H   UNL d   1      29.088 -13.830  -8.593  0.00  0.00     0.209 HD
ENDBRANCH  33  34
ENDBRANCH  32  33
ENDBRANCH  31  32
ENDBRANCH  29  31
ENDBRANCH  26  27
ENDBRANCH  19  21
ENDBRANCH   1  19
TORSDOF 13
ENDMDL
MODEL 5
REMARK VINA RESULT:    -6.982      3.331      7.654
REMARK INTER + INTRA:         -16.236
REMARK INTER:                 -10.860
REMARK INTRA:                  -5.376
REMARK CONF_INDEPENDENT:        3.878
REMARK UNBOUND:                -5.376
REMARK  13 active torsions:
REMARK  status: ('A' for Active; 'I' for Inactive)
REMARK    1  A    between atoms: C_2  and  C_3 
REMARK    2  A    between atoms: C_3  and  C_4 
REMARK    3  A    between atoms: C_4  and  O_5 
REMARK    4  A    between atoms: O_5  and  C_6 
REMARK    5  A    between atoms: C_12  and  C_13 
REMARK       I    between atoms: C_13  and  N_15 
REMARK    6  A    between atoms: N_15  and  C_16 
REMARK    7  A    between atoms: C_16  and  N_18 
REMARK    8  A    between atoms: N_18  and  C_19 
REMARK    9  A    between atoms: C_24  and  C_25 
REMARK       I    between atoms: C_25  and  N_27 
REMARK   10  A    between atoms: N_27  and  C_28 
REMARK   11  A    between atoms: C_28  and  C_29 
REMARK   12  A    between atoms: C_29  and  C_30 
REMARK   13  A    between atoms: C_30  and  O_31 
ROOT
ATOM      1  C   UNL d   1      26.269 -12.283  -2.886  0.00  0.00     0.179 C 
ATOM      2  S   UNL d   1      27.073 -10.899  -2.356  0.00  0.00    -0.040 SA
ENDROOT
BRANCH   1   3
ATOM      3  N   UNL d   1      26.180 -13.492  -2.143  0.00  0.00    -0.299 N 
ATOM      4  C   UNL d   1      25.273 -14.555  -2.385  0.00  0.00     0.260 C 
ATOM      5  O   UNL d   1      24.401 -14.527  -3.253  0.00  0.00    -0.267 OA
ATOM      6  H   UNL d   1      26.710 -13.568  -1.280  0.00  0.00     0.171 HD
BRANCH   4   7
ATOM      7  C   UNL d   1      25.205 -15.759  -1.497  0.00  0.00     0.067 A 
ATOM      8  C   UNL d   1      24.018 -16.535  -1.555  0.00  0.00     0.039 A 
ATOM      9  C   UNL d   1      23.900 -17.731  -0.854  0.00  0.00     0.012 A 
ATOM     10  C   UNL d   1      24.976 -18.200  -0.117  0.00  0.00     0.022 A 
ATOM     11 BR   UNL d   1      22.280 -18.705  -0.894  0.00  0.00    -0.051 Br
ATOM     12  C   UNL d   1      26.130 -17.417  -0.006  0.00  0.00     0.039 A 
ATOM     13  C   UNL d   1      26.235 -16.181  -0.663  0.00  0.00     0.084 A 
BRANCH  13  14
ATOM     14  O   UNL d   1      27.280 -15.326  -0.440  0.00  0.00    -0.350 OA
BRANCH  14  15
ATOM     15  C   UNL d   1      27.953 -15.595   0.788  0.00  0.00     0.175 C 
BRANCH  15  16
ATOM     16  C   UNL d   1      27.807 -14.357   1.660  0.00  0.00     0.026 C 
BRANCH  16  17
ATOM     17  C   UNL d   1      26.751 -13.427   1.084  0.00  0.00    -0.002 C 
ATOM     18  C   UNL d   1      26.732 -12.103   1.822  0.00  0.00     0.005 C 
ENDBRANCH  16  17
ENDBRANCH  15  16
ENDBRANCH  14  15
ENDBRANCH  13  14
ENDBRANCH   4   7
ENDBRANCH   1   3
BRANCH   1  19
ATOM     19  N   UNL d   1      25.689 -12.385  -4.184  0.00  0.00    -0.332 N 
ATOM     20  H   UNL d   1      24.702 -12.168  -4.282  0.00  0.00     0.168 HD
BRANCH  19  21
ATOM     21  C   UNL d   1      26.466 -12.228  -5.397  0.00  0.00     0.050 A 
ATOM     22  C   UNL d   1      26.329 -11.037  -6.149  0.00  0.00     0.030 A 
ATOM     23  C   UNL d   1      27.094 -10.816  -7.309  0.00  0.00     0.002 A 
ATOM     24  C   UNL d   1      28.032 -11.758  -7.714  0.00  0.00     0.001 A 
ATOM     25  C   UNL d   1      28.160 -12.949  -6.998  0.00  0.00     0.019 A 
ATOM     26  C   UNL d   1      27.368 -13.219  -5.856  0.00  0.00     0.058 A 
BRANCH  26  27
ATOM     27  C   UNL d   1      27.560 -14.573  -5.221  0.00  0.00     0.253 C 
ATOM     28  O   UNL d   1      27.035 -15.573  -5.729  0.00  0.00    -0.268 OA
ATOM     29  N   UNL d   1      28.320 -14.662  -4.073  0.00  0.00    -0.357 N 
ATOM     30  H   UNL d   1      28.725 -13.804  -3.727  0.00  0.00     0.162 HD
BRANCH  29  31
ATOM     31  C   UNL d   1      28.890 -15.927  -3.634  0.00  0.00     0.125 C 
BRANCH  31  32
ATOM     32  C   UNL d   1      29.555 -15.836  -2.275  0.00  0.00     0.046 C 
BRANCH  32  33
ATOM     33  C   UNL d   1      30.014 -14.451  -1.878  0.00  0.00     0.165 C 
BRANCH  33  34
ATOM     34  O   UNL d   1      28.882 -13.640  -1.586  0.00  0.00    -0.401 OA
ATOM     35  H   UNL d   1      28.193 -14.247  -1.268  0.00  0.00     0.209 HD
ENDBRANCH  33  34
ENDBRANCH  32  33
ENDBRANCH  31  32
ENDBRANCH  29  31
ENDBRANCH  26  27
ENDBRANCH  19  21
ENDBRANCH   1  19
TORSDOF 13
ENDMDL
MODEL 6
REMARK VINA RESULT:    -6.266      3.334      7.738
REMARK INTER + INTRA:         -14.538
REMARK INTER:                 -10.144
REMARK INTRA:                  -4.394
REMARK CONF_INDEPENDENT:        3.878
REMARK UNBOUND:                -4.394
REMARK  13 active torsions:
REMARK  status: ('A' for Active; 'I' for Inactive)
REMARK    1  A    between atoms: C_2  and  C_3 
REMARK    2  A    between atoms: C_3  and  C_4 
REMARK    3  A    between atoms: C_4  and  O_5 
REMARK    4  A    between atoms: O_5  and  C_6 
REMARK    5  A    between atoms: C_12  and  C_13 
REMARK       I    between atoms: C_13  and  N_15 
REMARK    6  A    between atoms: N_15  and  C_16 
REMARK    7  A    between atoms: C_16  and  N_18 
REMARK    8  A    between atoms: N_18  and  C_19 
REMARK    9  A    between atoms: C_24  and  C_25 
REMARK       I    between atoms: C_25  and  N_27 
REMARK   10  A    between atoms: N_27  and  C_28 
REMARK   11  A    between atoms: C_28  and  C_29 
REMARK   12  A    between atoms: C_29  and  C_30 
REMARK   13  A    between atoms: C_30  and  O_31 
ROOT
ATOM      1  C   UNL d   1      27.287 -13.032  -3.055  0.00  0.00     0.179 C 
ATOM      2  S   UNL d   1      28.831 -12.359  -3.117  0.00  0.00    -0.040 SA
ENDROOT
BRANCH   1   3
ATOM      3  N   UNL d   1      26.920 -14.121  -2.218  0.00  0.00    -0.299 N 
ATOM      4  C   UNL d   1      25.899 -15.069  -2.482  0.00  0.00     0.260 C 
ATOM      5  O   UNL d   1      25.158 -15.022  -3.464  0.00  0.00    -0.267 OA
ATOM      6  H   UNL d   1      27.319 -14.168  -1.285  0.00  0.00     0.171 HD
BRANCH   4   7
ATOM      7  C   UNL d   1      25.535 -16.139  -1.499  0.00  0.00     0.067 A 
ATOM      8  C   UNL d   1      24.224 -16.678  -1.591  0.00  0.00     0.039 A 
ATOM      9  C   UNL d   1      23.826 -17.751  -0.799  0.00  0.00     0.012 A 
ATOM     10  C   UNL d   1      24.736 -18.336   0.066  0.00  0.00     0.022 A 
ATOM     11 BR   UNL d   1      22.053 -18.399  -0.893  0.00  0.00    -0.051 Br
ATOM     12  C   UNL d   1      26.012 -17.779   0.208  0.00  0.00     0.039 A 
ATOM     13  C   UNL d   1      26.403 -16.659  -0.546  0.00  0.00     0.084 A 
BRANCH  13  14
ATOM     14  O   UNL d   1      27.578 -15.999  -0.310  0.00  0.00    -0.350 OA
BRANCH  14  15
ATOM     15  C   UNL d   1      28.721 -16.784  -0.642  0.00  0.00     0.175 C 
BRANCH  15  16
ATOM     16  C   UNL d   1      28.896 -16.704  -2.151  0.00  0.00     0.026 C 
BRANCH  16  17
ATOM     17  C   UNL d   1      30.333 -17.021  -2.534  0.00  0.00    -0.002 C 
ATOM     18  C   UNL d   1      30.394 -17.750  -3.862  0.00  0.00     0.005 C 
ENDBRANCH  16  17
ENDBRANCH  15  16
ENDBRANCH  14  15
ENDBRANCH  13  14
ENDBRANCH   4   7
ENDBRANCH   1   3
BRANCH   1  19
ATOM     19  N   UNL d   1      26.234 -12.618  -3.921  0.00  0.00    -0.332 N 
ATOM     20  H   UNL d   1      25.366 -13.145  -3.901  0.00  0.00     0.168 HD
BRANCH  19  21
ATOM     21  C   UNL d   1      26.100 -11.251  -4.384  0.00  0.00     0.050 A 
ATOM     22  C   UNL d   1      25.530 -10.288  -3.520  0.00  0.00     0.030 A 
ATOM     23  C   UNL d   1      25.418  -8.938  -3.905  0.00  0.00     0.002 A 
ATOM     24  C   UNL d   1      25.910  -8.524  -5.137  0.00  0.00     0.001 A 
ATOM     25  C   UNL d   1      26.451  -9.467  -6.012  0.00  0.00     0.019 A 
ATOM     26  C   UNL d   1      26.529 -10.839  -5.670  0.00  0.00     0.058 A 
BRANCH  26  27
ATOM     27  C   UNL d   1      27.072 -11.757  -6.736  0.00  0.00     0.253 C 
ATOM     28  O   UNL d   1      26.976 -11.442  -7.930  0.00  0.00    -0.268 OA
ATOM     29  N   UNL d   1      27.661 -12.942  -6.348  0.00  0.00    -0.357 N 
ATOM     30  H   UNL d   1      27.713 -13.123  -5.356  0.00  0.00     0.162 HD
BRANCH  29  31
ATOM     31  C   UNL d   1      28.554 -13.674  -7.236  0.00  0.00     0.125 C 
BRANCH  31  32
ATOM     32  C   UNL d   1      29.249 -14.834  -6.549  0.00  0.00     0.046 C 
BRANCH  32  33
ATOM     33  C   UNL d   1      28.529 -15.386  -5.340  0.00  0.00     0.165 C 
BRANCH  33  34
ATOM     34  O   UNL d   1      27.125 -15.240  -5.514  0.00  0.00    -0.401 OA
ATOM     35  H   UNL d   1      26.821 -14.679  -4.782  0.00  0.00     0.209 HD
ENDBRANCH  33  34
ENDBRANCH  32  33
ENDBRANCH  31  32
ENDBRANCH  29  31
ENDBRANCH  26  27
ENDBRANCH  19  21
ENDBRANCH   1  19
TORSDOF 13
ENDMDL
MODEL 7
REMARK VINA RESULT:    -5.910      3.627      7.099
REMARK INTER + INTRA:         -14.893
REMARK INTER:                  -9.788
REMARK INTRA:                  -5.105
REMARK CONF_INDEPENDENT:        3.878
REMARK UNBOUND:                -5.105
REMARK  13 active torsions:
REMARK  status: ('A' for Active; 'I' for Inactive)
REMARK    1  A    between atoms: C_2  and  C_3 
REMARK    2  A    between atoms: C_3  and  C_4 
REMARK    3  A    between atoms: C_4  and  O_5 
REMARK    4  A    between atoms: O_5  and  C_6 
REMARK    5  A    between atoms: C_12  and  C_13 
REMARK       I    between atoms: C_13  and  N_15 
REMARK    6  A    between atoms: N_15  and  C_16 
REMARK    7  A    between atoms: C_16  and  N_18 
REMARK    8  A    between atoms: N_18  and  C_19 
REMARK    9  A    between atoms: C_24  and  C_25 
REMARK       I    between atoms: C_25  and  N_27 
REMARK   10  A    between atoms: N_27  and  C_28 
REMARK   11  A    between atoms: C_28  and  C_29 
REMARK   12  A    between atoms: C_29  and  C_30 
REMARK   13  A    between atoms: C_30  and  O_31 
ROOT
ATOM      1  C   UNL d   1      26.892 -14.297  -4.886  0.00  0.00     0.179 C 
ATOM      2  S   UNL d   1      28.175 -14.401  -5.976  0.00  0.00    -0.040 SA
ENDROOT
BRANCH   1   3
ATOM      3  N   UNL d   1      26.701 -15.178  -3.787  0.00  0.00    -0.299 N 
ATOM      4  C   UNL d   1      25.479 -15.411  -3.107  0.00  0.00     0.260 C 
ATOM      5  O   UNL d   1      24.430 -14.819  -3.362  0.00  0.00    -0.267 OA
ATOM      6  H   UNL d   1      27.521 -15.587  -3.349  0.00  0.00     0.171 HD
BRANCH   4   7
ATOM      7  C   UNL d   1      25.394 -16.303  -1.907  0.00  0.00     0.067 A 
ATOM      8  C   UNL d   1      24.138 -16.909  -1.643  0.00  0.00     0.039 A 
ATOM      9  C   UNL d   1      23.984 -17.840  -0.620  0.00  0.00     0.012 A 
ATOM     10  C   UNL d   1      25.086 -18.219   0.130  0.00  0.00     0.022 A 
ATOM     11 BR   UNL d   1      22.283 -18.574  -0.246  0.00  0.00    -0.051 Br
ATOM     12  C   UNL d   1      26.317 -17.588  -0.083  0.00  0.00     0.039 A 
ATOM     13  C   UNL d   1      26.467 -16.605  -1.075  0.00  0.00     0.084 A 
BRANCH  13  14
ATOM     14  O   UNL d   1      27.609 -15.861  -1.193  0.00  0.00    -0.350 OA
BRANCH  14  15
ATOM     15  C   UNL d   1      28.788 -16.662  -1.153  0.00  0.00     0.175 C 
BRANCH  15  16
ATOM     16  C   UNL d   1      29.805 -16.009  -2.077  0.00  0.00     0.026 C 
BRANCH  16  17
ATOM     17  C   UNL d   1      30.373 -17.034  -3.046  0.00  0.00    -0.002 C 
ATOM     18  C   UNL d   1      29.655 -16.977  -4.380  0.00  0.00     0.005 C 
ENDBRANCH  16  17
ENDBRANCH  15  16
ENDBRANCH  14  15
ENDBRANCH  13  14
ENDBRANCH   4   7
ENDBRANCH   1   3
BRANCH   1  19
ATOM     19  N   UNL d   1      25.828 -13.362  -5.040  0.00  0.00    -0.332 N 
ATOM     20  H   UNL d   1      24.880 -13.692  -4.888  0.00  0.00     0.168 HD
BRANCH  19  21
ATOM     21  C   UNL d   1      26.011 -11.937  -4.848  0.00  0.00     0.050 A 
ATOM     22  C   UNL d   1      25.798 -11.066  -5.942  0.00  0.00     0.030 A 
ATOM     23  C   UNL d   1      25.918  -9.671  -5.796  0.00  0.00     0.002 A 
ATOM     24  C   UNL d   1      26.211  -9.124  -4.552  0.00  0.00     0.001 A 
ATOM     25  C   UNL d   1      26.450  -9.972  -3.470  0.00  0.00     0.019 A 
ATOM     26  C   UNL d   1      26.385 -11.380  -3.600  0.00  0.00     0.058 A 
BRANCH  26  27
ATOM     27  C   UNL d   1      26.733 -12.177  -2.368  0.00  0.00     0.253 C 
ATOM     28  O   UNL d   1      25.897 -12.944  -1.871  0.00  0.00    -0.268 OA
ATOM     29  N   UNL d   1      27.989 -12.023  -1.817  0.00  0.00    -0.357 N 
ATOM     30  H   UNL d   1      28.619 -11.389  -2.286  0.00  0.00     0.162 HD
BRANCH  29  31
ATOM     31  C   UNL d   1      28.548 -13.017  -0.911  0.00  0.00     0.125 C 
BRANCH  31  32
ATOM     32  C   UNL d   1      28.188 -12.763   0.540  0.00  0.00     0.046 C 
BRANCH  32  33
ATOM     33  C   UNL d   1      27.512 -13.918   1.243  0.00  0.00     0.165 C 
BRANCH  33  34
ATOM     34  O   UNL d   1      26.260 -14.185   0.624  0.00  0.00    -0.401 OA
ATOM     35  H   UNL d   1      26.451 -14.319  -0.319  0.00  0.00     0.209 HD
ENDBRANCH  33  34
ENDBRANCH  32  33
ENDBRANCH  31  32
ENDBRANCH  29  31
ENDBRANCH  26  27
ENDBRANCH  19  21
ENDBRANCH   1  19
TORSDOF 13
ENDMDL
