MODEL 1
REMARK VINA RESULT:   -31.583      0.000      0.000
REMARK INTER + INTRA:         -33.860
REMARK INTER:                 -33.074
REMARK INTRA:                  -0.786
REMARK CONF_INDEPENDENT:        1.492
REMARK UNBOUND:                -0.786
REMARK  5 active torsions:
REMARK  status: ('A' for Active; 'I' for Inactive)
REMARK       I    between atoms: N_1  and  C_2 
REMARK    1  A    between atoms: C_4  and  C_2 
REMARK    2  A    between atoms: N_8  and  C_9 
REMARK    3  A    between atoms: C_12  and  C_13 
REMARK       I    between atoms: C_13  and  N_15 
REMARK    4  A    between atoms: N_15  and  C_16 
REMARK    5  A    between atoms: C_20  and  C_21 
ROOT
ATOM      1  C   UNL d   1      26.173 -10.960  -4.917  0.00  0.00     0.030 A 
ATOM      2  C   UNL d   1      25.542 -11.184  -3.690  0.00  0.00     0.030 A 
ATOM      3  C   UNL d   1      25.392 -12.480  -3.163  0.00  0.00     0.019 A 
ATOM      4  C   UNL d   1      25.809 -13.612  -3.881  0.00  0.00     0.032 A 
ATOM      5  C   UNL d   1      26.428 -13.404  -5.115  0.00  0.00     0.019 A 
ATOM      6  C   UNL d   1      26.592 -12.095  -5.624  0.00  0.00     0.030 A 
ENDROOT
BRANCH   4   7
ATOM      7  C   UNL d   1      25.503 -14.967  -3.303  0.00  0.00     0.256 C 
ATOM      8  O   UNL d   1      25.691 -15.955  -4.023  0.00  0.00    -0.267 OA
ATOM      9  N   UNL d   1      24.998 -15.054  -2.008  0.00  0.00    -0.323 N 
ATOM     10  H   UNL d   1      24.685 -14.224  -1.528  0.00  0.00     0.169 HD
BRANCH   9  11
ATOM     11  C   UNL d   1      24.764 -16.285  -1.346  0.00  0.00     0.035 A 
ATOM     12  C   UNL d   1      25.839 -17.089  -0.957  0.00  0.00     0.029 A 
ATOM     13  C   UNL d   1      25.611 -18.339  -0.365  0.00  0.00     0.003 A 
ATOM     14  C   UNL d   1      24.307 -18.785  -0.144  0.00  0.00     0.014 A 
ATOM     15  C   UNL d   1      23.228 -18.002  -0.557  0.00  0.00    -0.006 A 
ATOM     16  C   UNL d   1      23.463 -16.752  -1.145  0.00  0.00     0.043 A 
BRANCH  15  17
ATOM     17  C   UNL d   1      21.870 -18.510  -0.497  0.00  0.00     0.061 A 
ATOM     18  C   UNL d   1      21.376 -19.643   0.116  0.00  0.00     0.053 A 
ATOM     19  C   UNL d   1      20.001 -19.638  -0.161  0.00  0.00     0.141 A 
ATOM     20  N   UNL d   1      19.634 -18.584  -0.895  0.00  0.00    -0.187 NA
ATOM     21  N   UNL d   1      20.789 -17.921  -1.097  0.00  0.00    -0.278 N 
ATOM     22  H   UNL d   1      20.772 -17.079  -1.661  0.00  0.00     0.189 HD
ENDBRANCH  15  17
ENDBRANCH   9  11
ENDBRANCH   4   7
BRANCH   1  23
ATOM     23  N   UNL d   1      26.382  -9.682  -5.391  0.00  0.00    -0.380 N 
ATOM     24  C   UNL d   1      27.525  -9.335  -6.230  0.00  0.00     0.123 C 
ATOM     25  C   UNL d   1      26.982  -8.717  -7.522  0.00  0.00     0.021 C 
ATOM     26  C   UNL d   1      26.060  -7.534  -7.235  0.00  0.00     0.017 C 
ATOM     27  C   UNL d   1      24.951  -7.870  -6.219  0.00  0.00     0.095 C 
ATOM     28  C   UNL d   1      25.542  -8.544  -4.975  0.00  0.00     0.137 C 
BRANCH  27  29
ATOM     29  C   UNL d   1      24.227  -6.578  -5.874  0.00  0.00     0.221 C 
ATOM     30  N   UNL d   1      23.879  -6.391  -4.573  0.00  0.00    -0.370 N 
ATOM     31  H   UNL d   1      23.306  -5.577  -4.375  0.00  0.00     0.159 HD
ATOM     32  H   UNL d   1      23.976  -7.092  -3.854  0.00  0.00     0.159 HD
ATOM     33  O   UNL d   1      23.947  -5.709  -6.699  0.00  0.00    -0.273 OA
ENDBRANCH  27  29
ENDBRANCH   1  23
TORSDOF 5
ENDMDL
MODEL 2
REMARK VINA RESULT:   -30.926      2.090      2.612
REMARK INTER + INTRA:         -33.013
REMARK INTER:                 -32.418
REMARK INTRA:                  -0.595
REMARK CONF_INDEPENDENT:        1.492
REMARK UNBOUND:                -0.595
REMARK  5 active torsions:
REMARK  status: ('A' for Active; 'I' for Inactive)
REMARK       I    between atoms: N_1  and  C_2 
REMARK    1  A    between atoms: C_4  and  C_2 
REMARK    2  A    between atoms: N_8  and  C_9 
REMARK    3  A    between atoms: C_12  and  C_13 
REMARK       I    between atoms: C_13  and  N_15 
REMARK    4  A    between atoms: N_15  and  C_16 
REMARK    5  A    between atoms: C_20  and  C_21 
ROOT
ATOM      1  C   UNL d   1      27.644 -13.040  -6.170  0.00  0.00     0.030 A 
ATOM      2  C   UNL d   1      26.716 -12.735  -5.170  0.00  0.00     0.030 A 
ATOM      3  C   UNL d   1      26.514 -13.584  -4.066  0.00  0.00     0.019 A 
ATOM      4  C   UNL d   1      27.190 -14.810  -3.955  0.00  0.00     0.032 A 
ATOM      5  C   UNL d   1      28.111 -15.133  -4.954  0.00  0.00     0.019 A 
ATOM      6  C   UNL d   1      28.319 -14.263  -6.047  0.00  0.00     0.030 A 
ENDROOT
BRANCH   4   7
ATOM      7  C   UNL d   1      26.829 -15.713  -2.808  0.00  0.00     0.256 C 
ATOM      8  O   UNL d   1      27.741 -16.079  -2.056  0.00  0.00    -0.267 OA
ATOM      9  N   UNL d   1      25.507 -16.122  -2.655  0.00  0.00    -0.323 N 
ATOM     10  H   UNL d   1      24.836 -15.956  -3.390  0.00  0.00     0.169 HD
BRANCH   9  11
ATOM     11  C   UNL d   1      25.054 -16.898  -1.558  0.00  0.00     0.035 A 
ATOM     12  C   UNL d   1      25.966 -17.373  -0.612  0.00  0.00     0.029 A 
ATOM     13  C   UNL d   1      25.532 -18.199   0.436  0.00  0.00     0.003 A 
ATOM     14  C   UNL d   1      24.183 -18.540   0.551  0.00  0.00     0.014 A 
ATOM     15  C   UNL d   1      23.272 -18.093  -0.407  0.00  0.00    -0.006 A 
ATOM     16  C   UNL d   1      23.712 -17.266  -1.450  0.00  0.00     0.043 A 
BRANCH  15  17
ATOM     17  C   UNL d   1      21.901 -18.567  -0.412  0.00  0.00     0.061 A 
ATOM     18  C   UNL d   1      21.355 -19.698   0.158  0.00  0.00     0.053 A 
ATOM     19  C   UNL d   1      19.993 -19.653  -0.174  0.00  0.00     0.141 A 
ATOM     20  N   UNL d   1      19.682 -18.578  -0.902  0.00  0.00    -0.187 NA
ATOM     21  N   UNL d   1      20.861 -17.941  -1.044  0.00  0.00    -0.278 N 
ATOM     22  H   UNL d   1      20.887 -17.089  -1.593  0.00  0.00     0.189 HD
ENDBRANCH  15  17
ENDBRANCH   9  11
ENDBRANCH   4   7
BRANCH   1  23
ATOM     23  N   UNL d   1      27.888 -12.168  -7.209  0.00  0.00    -0.380 N 
ATOM     24  C   UNL d   1      28.468 -12.603  -8.476  0.00  0.00     0.123 C 
ATOM     25  C   UNL d   1      27.506 -12.187  -9.593  0.00  0.00     0.021 C 
ATOM     26  C   UNL d   1      27.203 -10.691  -9.546  0.00  0.00     0.017 C 
ATOM     27  C   UNL d   1      26.747 -10.214  -8.154  0.00  0.00     0.095 C 
ATOM     28  C   UNL d   1      27.710 -10.712  -7.070  0.00  0.00     0.137 C 
BRANCH  27  29
ATOM     29  C   UNL d   1      26.665  -8.695  -8.186  0.00  0.00     0.221 C 
ATOM     30  N   UNL d   1      25.975  -8.134  -9.214  0.00  0.00    -0.370 N 
ATOM     31  H   UNL d   1      26.017  -7.122  -9.281  0.00  0.00     0.159 HD
ATOM     32  H   UNL d   1      25.609  -8.649 -10.001  0.00  0.00     0.159 HD
ATOM     33  O   UNL d   1      27.183  -7.964  -7.342  0.00  0.00    -0.273 OA
ENDBRANCH  27  29
ENDBRANCH   1  23
TORSDOF 5
ENDMDL
MODEL 3
REMARK VINA RESULT:   -30.755      1.459      1.639
REMARK INTER + INTRA:         -33.063
REMARK INTER:                 -32.247
REMARK INTRA:                  -0.816
REMARK CONF_INDEPENDENT:        1.492
REMARK UNBOUND:                -0.816
REMARK  5 active torsions:
REMARK  status: ('A' for Active; 'I' for Inactive)
REMARK       I    between atoms: N_1  and  C_2 
REMARK    1  A    between atoms: C_4  and  C_2 
REMARK    2  A    between atoms: N_8  and  C_9 
REMARK    3  A    between atoms: C_12  and  C_13 
REMARK       I    between atoms: C_13  and  N_15 
REMARK    4  A    between atoms: N_15  and  C_16 
REMARK    5  A    between atoms: C_20  and  C_21 
ROOT
ATOM      1  C   UNL d   1      26.165 -11.008  -4.763  0.00  0.00     0.030 A 
ATOM      2  C   UNL d   1      25.730 -11.237  -3.455  0.00  0.00     0.030 A 
ATOM      3  C   UNL d   1      25.568 -12.540  -2.948  0.00  0.00     0.019 A 
ATOM      4  C   UNL d   1      25.772 -13.669  -3.758  0.00  0.00     0.032 A 
ATOM      5  C   UNL d   1      26.193 -13.454  -5.072  0.00  0.00     0.019 A 
ATOM      6  C   UNL d   1      26.372 -12.141  -5.563  0.00  0.00     0.030 A 
ENDROOT
BRANCH   4   7
ATOM      7  C   UNL d   1      25.461 -15.021  -3.177  0.00  0.00     0.256 C 
ATOM      8  O   UNL d   1      25.695 -16.014  -3.876  0.00  0.00    -0.267 OA
ATOM      9  N   UNL d   1      24.902 -15.100  -1.904  0.00  0.00    -0.323 N 
ATOM     10  H   UNL d   1      24.556 -14.269  -1.448  0.00  0.00     0.169 HD
BRANCH   9  11
ATOM     11  C   UNL d   1      24.658 -16.326  -1.237  0.00  0.00     0.035 A 
ATOM     12  C   UNL d   1      25.727 -17.119  -0.811  0.00  0.00     0.029 A 
ATOM     13  C   UNL d   1      25.491 -18.365  -0.214  0.00  0.00     0.003 A 
ATOM     14  C   UNL d   1      24.184 -18.819  -0.024  0.00  0.00     0.014 A 
ATOM     15  C   UNL d   1      23.112 -18.046  -0.474  0.00  0.00    -0.006 A 
ATOM     16  C   UNL d   1      23.355 -16.800  -1.068  0.00  0.00     0.043 A 
BRANCH  15  17
ATOM     17  C   UNL d   1      21.756 -18.563  -0.447  0.00  0.00     0.061 A 
ATOM     18  C   UNL d   1      21.256 -19.702   0.148  0.00  0.00     0.053 A 
ATOM     19  C   UNL d   1      19.888 -19.704  -0.159  0.00  0.00     0.141 A 
ATOM     20  N   UNL d   1      19.530 -18.649  -0.895  0.00  0.00    -0.187 NA
ATOM     21  N   UNL d   1      20.686 -17.978  -1.068  0.00  0.00    -0.278 N 
ATOM     22  H   UNL d   1      20.675 -17.133  -1.628  0.00  0.00     0.189 HD
ENDBRANCH  15  17
ENDBRANCH   9  11
ENDBRANCH   4   7
BRANCH   1  23
ATOM     23  N   UNL d   1      26.391  -9.730  -5.228  0.00  0.00    -0.380 N 
ATOM     24  C   UNL d   1      25.999  -9.303  -6.568  0.00  0.00     0.123 C 
ATOM     25  C   UNL d   1      25.090  -8.079  -6.417  0.00  0.00     0.021 C 
ATOM     26  C   UNL d   1      25.763  -6.977  -5.602  0.00  0.00     0.017 C 
ATOM     27  C   UNL d   1      26.320  -7.479  -4.256  0.00  0.00     0.095 C 
ATOM     28  C   UNL d   1      27.167  -8.741  -4.459  0.00  0.00     0.137 C 
BRANCH  27  29
ATOM     29  C   UNL d   1      27.125  -6.349  -3.634  0.00  0.00     0.221 C 
ATOM     30  N   UNL d   1      28.324  -6.055  -4.204  0.00  0.00    -0.370 N 
ATOM     31  H   UNL d   1      28.895  -5.373  -3.717  0.00  0.00     0.159 HD
ATOM     32  H   UNL d   1      28.751  -6.600  -4.938  0.00  0.00     0.159 HD
ATOM     33  O   UNL d   1      26.751  -5.701  -2.657  0.00  0.00    -0.273 OA
ENDBRANCH  27  29
ENDBRANCH   1  23
TORSDOF 5
ENDMDL
MODEL 4
REMARK VINA RESULT:   -30.390      1.823      2.791
REMARK INTER + INTRA:         -32.708
REMARK INTER:                 -31.881
REMARK INTRA:                  -0.827
REMARK CONF_INDEPENDENT:        1.492
REMARK UNBOUND:                -0.827
REMARK  5 active torsions:
REMARK  status: ('A' for Active; 'I' for Inactive)
REMARK       I    between atoms: N_1  and  C_2 
REMARK    1  A    between atoms: C_4  and  C_2 
REMARK    2  A    between atoms: N_8  and  C_9 
REMARK    3  A    between atoms: C_12  and  C_13 
REMARK       I    between atoms: C_13  and  N_15 
REMARK    4  A    between atoms: N_15  and  C_16 
REMARK    5  A    between atoms: C_20  and  C_21 
ROOT
ATOM      1  C   UNL d   1      26.605 -11.168  -5.164  0.00  0.00     0.030 A 
ATOM      2  C   UNL d   1      27.023 -12.401  -5.672  0.00  0.00     0.030 A 
ATOM      3  C   UNL d   1      26.585 -13.616  -5.115  0.00  0.00     0.019 A 
ATOM      4  C   UNL d   1      25.759 -13.643  -3.980  0.00  0.00     0.032 A 
ATOM      5  C   UNL d   1      25.344 -12.418  -3.454  0.00  0.00     0.019 A 
ATOM      6  C   UNL d   1      25.775 -11.204  -4.035  0.00  0.00     0.030 A 
ENDROOT
BRANCH   4   7
ATOM      7  C   UNL d   1      25.433 -14.981  -3.375  0.00  0.00     0.256 C 
ATOM      8  O   UNL d   1      25.532 -15.978  -4.100  0.00  0.00    -0.267 OA
ATOM      9  N   UNL d   1      25.010 -15.042  -2.050  0.00  0.00    -0.323 N 
ATOM     10  H   UNL d   1      24.765 -14.197  -1.555  0.00  0.00     0.169 HD
BRANCH   9  11
ATOM     11  C   UNL d   1      24.767 -16.260  -1.367  0.00  0.00     0.035 A 
ATOM     12  C   UNL d   1      25.833 -17.087  -1.006  0.00  0.00     0.029 A 
ATOM     13  C   UNL d   1      25.593 -18.325  -0.392  0.00  0.00     0.003 A 
ATOM     14  C   UNL d   1      24.286 -18.734  -0.122  0.00  0.00     0.014 A 
ATOM     15  C   UNL d   1      23.214 -17.927  -0.507  0.00  0.00    -0.006 A 
ATOM     16  C   UNL d   1      23.462 -16.690  -1.117  0.00  0.00     0.043 A 
BRANCH  15  17
ATOM     17  C   UNL d   1      21.846 -18.398  -0.396  0.00  0.00     0.061 A 
ATOM     18  C   UNL d   1      21.298 -19.323   0.468  0.00  0.00     0.053 A 
ATOM     19  C   UNL d   1      19.941 -19.391   0.117  0.00  0.00     0.141 A 
ATOM     20  N   UNL d   1      19.637 -18.575  -0.895  0.00  0.00    -0.187 NA
ATOM     21  N   UNL d   1      20.813 -17.992  -1.197  0.00  0.00    -0.278 N 
ATOM     22  H   UNL d   1      20.844 -17.334  -1.967  0.00  0.00     0.189 HD
ENDBRANCH  15  17
ENDBRANCH   9  11
ENDBRANCH   4   7
BRANCH   1  23
ATOM     23  N   UNL d   1      26.981  -9.984  -5.761  0.00  0.00    -0.380 N 
ATOM     24  C   UNL d   1      26.604  -8.681  -5.222  0.00  0.00     0.123 C 
ATOM     25  C   UNL d   1      27.893  -7.885  -4.990  0.00  0.00     0.021 C 
ATOM     26  C   UNL d   1      28.734  -7.795  -6.262  0.00  0.00     0.017 C 
ATOM     27  C   UNL d   1      28.987  -9.168  -6.913  0.00  0.00     0.095 C 
ATOM     28  C   UNL d   1      27.674  -9.946  -7.062  0.00  0.00     0.137 C 
BRANCH  27  29
ATOM     29  C   UNL d   1      29.660  -8.930  -8.256  0.00  0.00     0.221 C 
ATOM     30  N   UNL d   1      30.995  -8.672  -8.243  0.00  0.00    -0.370 N 
ATOM     31  H   UNL d   1      31.409  -8.413  -9.132  0.00  0.00     0.159 HD
ATOM     32  H   UNL d   1      31.537  -8.528  -7.404  0.00  0.00     0.159 HD
ATOM     33  O   UNL d   1      29.066  -8.958  -9.334  0.00  0.00    -0.273 OA
ENDBRANCH  27  29
ENDBRANCH   1  23
TORSDOF 5
ENDMDL
MODEL 5
REMARK VINA RESULT:   -29.049      6.802      8.897
REMARK INTER + INTRA:         -31.290
REMARK INTER:                 -30.541
REMARK INTRA:                  -0.749
REMARK CONF_INDEPENDENT:        1.492
REMARK UNBOUND:                -0.749
REMARK  5 active torsions:
REMARK  status: ('A' for Active; 'I' for Inactive)
REMARK       I    between atoms: N_1  and  C_2 
REMARK    1  A    between atoms: C_4  and  C_2 
REMARK    2  A    between atoms: N_8  and  C_9 
REMARK    3  A    between atoms: C_12  and  C_13 
REMARK       I    between atoms: C_13  and  N_15 
REMARK    4  A    between atoms: N_15  and  C_16 
REMARK    5  A    between atoms: C_20  and  C_21 
ROOT
ATOM      1  C   UNL d   1      28.363 -12.568   4.061  0.00  0.00     0.030 A 
ATOM      2  C   UNL d   1      28.546 -13.954   4.026  0.00  0.00     0.030 A 
ATOM      3  C   UNL d   1      28.176 -14.719   2.905  0.00  0.00     0.019 A 
ATOM      4  C   UNL d   1      27.543 -14.132   1.797  0.00  0.00     0.032 A 
ATOM      5  C   UNL d   1      27.342 -12.751   1.825  0.00  0.00     0.019 A 
ATOM      6  C   UNL d   1      27.737 -11.990   2.949  0.00  0.00     0.030 A 
ENDROOT
BRANCH   4   7
ATOM      7  C   UNL d   1      27.070 -15.037   0.693  0.00  0.00     0.256 C 
ATOM      8  O   UNL d   1      27.929 -15.564  -0.025  0.00  0.00    -0.267 OA
ATOM      9  N   UNL d   1      25.704 -15.221   0.504  0.00  0.00    -0.323 N 
ATOM     10  H   UNL d   1      25.040 -14.633   0.985  0.00  0.00     0.169 HD
BRANCH   9  11
ATOM     11  C   UNL d   1      25.164 -16.121  -0.449  0.00  0.00     0.035 A 
ATOM     12  C   UNL d   1      25.747 -16.235  -1.715  0.00  0.00     0.029 A 
ATOM     13  C   UNL d   1      25.175 -17.072  -2.684  0.00  0.00     0.003 A 
ATOM     14  C   UNL d   1      24.029 -17.811  -2.389  0.00  0.00     0.014 A 
ATOM     15  C   UNL d   1      23.425 -17.680  -1.137  0.00  0.00    -0.006 A 
ATOM     16  C   UNL d   1      24.003 -16.845  -0.172  0.00  0.00     0.043 A 
BRANCH  15  17
ATOM     17  C   UNL d   1      22.143 -18.301  -0.858  0.00  0.00     0.061 A 
ATOM     18  C   UNL d   1      21.854 -19.457  -0.164  0.00  0.00     0.053 A 
ATOM     19  C   UNL d   1      20.457 -19.576  -0.219  0.00  0.00     0.141 A 
ATOM     20  N   UNL d   1      19.888 -18.575  -0.895  0.00  0.00    -0.187 NA
ATOM     21  N   UNL d   1      20.934 -17.821  -1.284  0.00  0.00    -0.278 N 
ATOM     22  H   UNL d   1      20.754 -16.997  -1.846  0.00  0.00     0.189 HD
ENDBRANCH  15  17
ENDBRANCH   9  11
ENDBRANCH   4   7
BRANCH   1  23
ATOM     23  N   UNL d   1      28.796 -11.817   5.133  0.00  0.00    -0.380 N 
ATOM     24  C   UNL d   1      27.927 -11.486   6.259  0.00  0.00     0.123 C 
ATOM     25  C   UNL d   1      28.613 -11.985   7.535  0.00  0.00     0.021 C 
ATOM     26  C   UNL d   1      30.025 -11.421   7.671  0.00  0.00     0.017 C 
ATOM     27  C   UNL d   1      30.882 -11.633   6.409  0.00  0.00     0.095 C 
ATOM     28  C   UNL d   1      30.123 -11.176   5.157  0.00  0.00     0.137 C 
BRANCH  27  29
ATOM     29  C   UNL d   1      32.183 -10.867   6.594  0.00  0.00     0.221 C 
ATOM     30  N   UNL d   1      33.339 -11.542   6.353  0.00  0.00    -0.370 N 
ATOM     31  H   UNL d   1      34.198 -11.052   6.581  0.00  0.00     0.159 HD
ATOM     32  H   UNL d   1      33.389 -12.532   6.164  0.00  0.00     0.159 HD
ATOM     33  O   UNL d   1      32.239  -9.689   6.945  0.00  0.00    -0.273 OA
ENDBRANCH  27  29
ENDBRANCH   1  23
TORSDOF 5
ENDMDL
MODEL 6
REMARK VINA RESULT:   -28.998      2.891      3.769
REMARK INTER + INTRA:         -31.266
REMARK INTER:                 -30.489
REMARK INTRA:                  -0.776
REMARK CONF_INDEPENDENT:        1.492
REMARK UNBOUND:                -0.776
REMARK  5 active torsions:
REMARK  status: ('A' for Active; 'I' for Inactive)
REMARK       I    between atoms: N_1  and  C_2 
REMARK    1  A    between atoms: C_4  and  C_2 
REMARK    2  A    between atoms: N_8  and  C_9 
REMARK    3  A    between atoms: C_12  and  C_13 
REMARK       I    between atoms: C_13  and  N_15 
REMARK    4  A    between atoms: N_15  and  C_16 
REMARK    5  A    between atoms: C_20  and  C_21 
ROOT
ATOM      1  C   UNL d   1      27.508 -12.497  -5.461  0.00  0.00     0.030 A 
ATOM      2  C   UNL d   1      27.195 -11.924  -4.225  0.00  0.00     0.030 A 
ATOM      3  C   UNL d   1      26.837 -12.711  -3.115  0.00  0.00     0.019 A 
ATOM      4  C   UNL d   1      26.714 -14.106  -3.220  0.00  0.00     0.032 A 
ATOM      5  C   UNL d   1      27.011 -14.691  -4.452  0.00  0.00     0.019 A 
ATOM      6  C   UNL d   1      27.389 -13.890  -5.554  0.00  0.00     0.030 A 
ENDROOT
BRANCH   4   7
ATOM      7  C   UNL d   1      26.212 -14.862  -2.020  0.00  0.00     0.256 C 
ATOM      8  O   UNL d   1      26.200 -14.273  -0.933  0.00  0.00    -0.267 OA
ATOM      9  N   UNL d   1      25.812 -16.187  -2.172  0.00  0.00    -0.323 N 
ATOM     10  H   UNL d   1      26.012 -16.684  -3.027  0.00  0.00     0.169 HD
BRANCH   9  11
ATOM     11  C   UNL d   1      25.242 -16.952  -1.124  0.00  0.00     0.035 A 
ATOM     12  C   UNL d   1      26.057 -17.489  -0.124  0.00  0.00     0.029 A 
ATOM     13  C   UNL d   1      25.507 -18.304   0.876  0.00  0.00     0.003 A 
ATOM     14  C   UNL d   1      24.137 -18.574   0.890  0.00  0.00     0.014 A 
ATOM     15  C   UNL d   1      23.322 -18.066  -0.122  0.00  0.00    -0.006 A 
ATOM     16  C   UNL d   1      23.878 -17.249  -1.116  0.00  0.00     0.043 A 
BRANCH  15  17
ATOM     17  C   UNL d   1      21.931 -18.465  -0.232  0.00  0.00     0.061 A 
ATOM     18  C   UNL d   1      21.186 -19.304   0.571  0.00  0.00     0.053 A 
ATOM     19  C   UNL d   1      19.912 -19.333  -0.015  0.00  0.00     0.141 A 
ATOM     20  N   UNL d   1      19.838 -18.574  -1.111  0.00  0.00    -0.187 NA
ATOM     21  N   UNL d   1      21.081 -18.068  -1.229  0.00  0.00    -0.278 N 
ATOM     22  H   UNL d   1      21.285 -17.465  -2.018  0.00  0.00     0.189 HD
ENDBRANCH  15  17
ENDBRANCH   9  11
ENDBRANCH   4   7
BRANCH   1  23
ATOM     23  N   UNL d   1      27.928 -11.723  -6.522  0.00  0.00    -0.380 N 
ATOM     24  C   UNL d   1      27.161 -10.581  -7.011  0.00  0.00     0.123 C 
ATOM     25  C   UNL d   1      28.077  -9.355  -6.968  0.00  0.00     0.021 C 
ATOM     26  C   UNL d   1      29.371  -9.593  -7.744  0.00  0.00     0.017 C 
ATOM     27  C   UNL d   1      30.089 -10.892  -7.330  0.00  0.00     0.095 C 
ATOM     28  C   UNL d   1      29.112 -12.073  -7.328  0.00  0.00     0.137 C 
BRANCH  27  29
ATOM     29  C   UNL d   1      31.244 -11.113  -8.295  0.00  0.00     0.221 C 
ATOM     30  N   UNL d   1      31.077 -12.065  -9.252  0.00  0.00    -0.370 N 
ATOM     31  H   UNL d   1      31.892 -12.274  -9.821  0.00  0.00     0.159 HD
ATOM     32  H   UNL d   1      30.290 -12.693  -9.296  0.00  0.00     0.159 HD
ATOM     33  O   UNL d   1      32.302 -10.486  -8.251  0.00  0.00    -0.273 OA
ENDBRANCH  27  29
ENDBRANCH   1  23
TORSDOF 5
ENDMDL
MODEL 7
REMARK VINA RESULT:   -28.910      2.491      2.908
REMARK INTER + INTRA:         -31.098
REMARK INTER:                 -30.402
REMARK INTRA:                  -0.696
REMARK CONF_INDEPENDENT:        1.492
REMARK UNBOUND:                -0.696
REMARK  5 active torsions:
REMARK  status: ('A' for Active; 'I' for Inactive)
REMARK       I    between atoms: N_1  and  C_2 
REMARK    1  A    between atoms: C_4  and  C_2 
REMARK    2  A    between atoms: N_8  and  C_9 
REMARK    3  A    between atoms: C_12  and  C_13 
REMARK       I    between atoms: C_13  and  N_15 
REMARK    4  A    between atoms: N_15  and  C_16 
REMARK    5  A    between atoms: C_20  and  C_21 
ROOT
ATOM      1  C   UNL d   1      26.993 -10.426  -3.246  0.00  0.00     0.030 A 
ATOM      2  C   UNL d   1      27.982 -11.106  -2.530  0.00  0.00     0.030 A 
ATOM      3  C   UNL d   1      27.774 -12.408  -2.038  0.00  0.00     0.019 A 
ATOM      4  C   UNL d   1      26.537 -13.055  -2.188  0.00  0.00     0.032 A 
ATOM      5  C   UNL d   1      25.535 -12.381  -2.890  0.00  0.00     0.019 A 
ATOM      6  C   UNL d   1      25.764 -11.082  -3.396  0.00  0.00     0.030 A 
ENDROOT
BRANCH   4   7
ATOM      7  C   UNL d   1      26.357 -14.396  -1.530  0.00  0.00     0.256 C 
ATOM      8  O   UNL d   1      27.257 -14.793  -0.780  0.00  0.00    -0.267 OA
ATOM      9  N   UNL d   1      25.215 -15.141  -1.809  0.00  0.00    -0.323 N 
ATOM     10  H   UNL d   1      24.602 -14.870  -2.563  0.00  0.00     0.169 HD
BRANCH   9  11
ATOM     11  C   UNL d   1      24.914 -16.371  -1.171  0.00  0.00     0.035 A 
ATOM     12  C   UNL d   1      25.942 -17.254  -0.829  0.00  0.00     0.029 A 
ATOM     13  C   UNL d   1      25.644 -18.501  -0.262  0.00  0.00     0.003 A 
ATOM     14  C   UNL d   1      24.319 -18.866  -0.019  0.00  0.00     0.014 A 
ATOM     15  C   UNL d   1      23.286 -18.002  -0.386  0.00  0.00    -0.006 A 
ATOM     16  C   UNL d   1      23.591 -16.756  -0.950  0.00  0.00     0.043 A 
BRANCH  15  17
ATOM     17  C   UNL d   1      21.898 -18.421  -0.305  0.00  0.00     0.061 A 
ATOM     18  C   UNL d   1      21.276 -19.247   0.607  0.00  0.00     0.053 A 
ATOM     19  C   UNL d   1      19.937 -19.306   0.193  0.00  0.00     0.141 A 
ATOM     20  N   UNL d   1      19.711 -18.575  -0.902  0.00  0.00    -0.187 NA
ATOM     21  N   UNL d   1      20.921 -18.057  -1.192  0.00  0.00    -0.278 N 
ATOM     22  H   UNL d   1      21.012 -17.472  -2.015  0.00  0.00     0.189 HD
ENDBRANCH  15  17
ENDBRANCH   9  11
ENDBRANCH   4   7
BRANCH   1  23
ATOM     23  N   UNL d   1      27.231  -9.180  -3.787  0.00  0.00    -0.380 N 
ATOM     24  C   UNL d   1      26.418  -8.626  -4.866  0.00  0.00     0.123 C 
ATOM     25  C   UNL d   1      25.869  -7.279  -4.388  0.00  0.00     0.021 C 
ATOM     26  C   UNL d   1      26.988  -6.346  -3.931  0.00  0.00     0.017 C 
ATOM     27  C   UNL d   1      27.938  -7.001  -2.910  0.00  0.00     0.095 C 
ATOM     28  C   UNL d   1      28.406  -8.373  -3.411  0.00  0.00     0.137 C 
BRANCH  27  29
ATOM     29  C   UNL d   1      29.104  -6.052  -2.683  0.00  0.00     0.221 C 
ATOM     30  N   UNL d   1      30.252  -6.307  -3.366  0.00  0.00    -0.370 N 
ATOM     31  H   UNL d   1      31.052  -5.731  -3.127  0.00  0.00     0.159 HD
ATOM     32  H   UNL d   1      30.409  -7.133  -3.924  0.00  0.00     0.159 HD
ATOM     33  O   UNL d   1      29.061  -5.083  -1.926  0.00  0.00    -0.273 OA
ENDBRANCH  27  29
ENDBRANCH   1  23
TORSDOF 5
ENDMDL
MODEL 8
REMARK VINA RESULT:   -28.867      6.783      8.996
REMARK INTER + INTRA:         -31.109
REMARK INTER:                 -30.358
REMARK INTRA:                  -0.751
REMARK CONF_INDEPENDENT:        1.492
REMARK UNBOUND:                -0.751
REMARK  5 active torsions:
REMARK  status: ('A' for Active; 'I' for Inactive)
REMARK       I    between atoms: N_1  and  C_2 
REMARK    1  A    between atoms: C_4  and  C_2 
REMARK    2  A    between atoms: N_8  and  C_9 
REMARK    3  A    between atoms: C_12  and  C_13 
REMARK       I    between atoms: C_13  and  N_15 
REMARK    4  A    between atoms: N_15  and  C_16 
REMARK    5  A    between atoms: C_20  and  C_21 
ROOT
ATOM      1  C   UNL d   1      28.706 -12.663   3.938  0.00  0.00     0.030 A 
ATOM      2  C   UNL d   1      29.413 -13.734   3.383  0.00  0.00     0.030 A 
ATOM      3  C   UNL d   1      28.918 -14.454   2.281  0.00  0.00     0.019 A 
ATOM      4  C   UNL d   1      27.657 -14.170   1.731  0.00  0.00     0.032 A 
ATOM      5  C   UNL d   1      26.934 -13.111   2.283  0.00  0.00     0.019 A 
ATOM      6  C   UNL d   1      27.452 -12.383   3.378  0.00  0.00     0.030 A 
ENDROOT
BRANCH   4   7
ATOM      7  C   UNL d   1      27.149 -15.063   0.632  0.00  0.00     0.256 C 
ATOM      8  O   UNL d   1      27.985 -15.586  -0.115  0.00  0.00    -0.267 OA
ATOM      9  N   UNL d   1      25.777 -15.240   0.482  0.00  0.00    -0.323 N 
ATOM     10  H   UNL d   1      25.130 -14.654   0.987  0.00  0.00     0.169 HD
BRANCH   9  11
ATOM     11  C   UNL d   1      25.207 -16.130  -0.464  0.00  0.00     0.035 A 
ATOM     12  C   UNL d   1      25.761 -16.245  -1.742  0.00  0.00     0.029 A 
ATOM     13  C   UNL d   1      25.159 -17.071  -2.702  0.00  0.00     0.003 A 
ATOM     14  C   UNL d   1      24.010 -17.797  -2.386  0.00  0.00     0.014 A 
ATOM     15  C   UNL d   1      23.433 -17.663  -1.122  0.00  0.00    -0.006 A 
ATOM     16  C   UNL d   1      24.042 -16.839  -0.165  0.00  0.00     0.043 A 
BRANCH  15  17
ATOM     17  C   UNL d   1      22.150 -18.268  -0.818  0.00  0.00     0.061 A 
ATOM     18  C   UNL d   1      21.850 -19.350  -0.016  0.00  0.00     0.053 A 
ATOM     19  C   UNL d   1      20.457 -19.492  -0.101  0.00  0.00     0.141 A 
ATOM     20  N   UNL d   1      19.899 -18.575  -0.895  0.00  0.00    -0.187 NA
ATOM     21  N   UNL d   1      20.950 -17.851  -1.329  0.00  0.00    -0.278 N 
ATOM     22  H   UNL d   1      20.780 -17.093  -1.979  0.00  0.00     0.189 HD
ENDBRANCH  15  17
ENDBRANCH   9  11
ENDBRANCH   4   7
BRANCH   1  23
ATOM     23  N   UNL d   1      29.232 -11.917   4.971  0.00  0.00    -0.380 N 
ATOM     24  C   UNL d   1      29.585 -10.508   4.819  0.00  0.00     0.123 C 
ATOM     25  C   UNL d   1      28.820  -9.721   5.888  0.00  0.00     0.021 C 
ATOM     26  C   UNL d   1      29.090 -10.267   7.288  0.00  0.00     0.017 C 
ATOM     27  C   UNL d   1      28.870 -11.788   7.393  0.00  0.00     0.095 C 
ATOM     28  C   UNL d   1      29.605 -12.520   6.264  0.00  0.00     0.137 C 
BRANCH  27  29
ATOM     29  C   UNL d   1      29.352 -12.235   8.765  0.00  0.00     0.221 C 
ATOM     30  N   UNL d   1      29.015 -11.452   9.825  0.00  0.00    -0.370 N 
ATOM     31  H   UNL d   1      29.430 -11.704  10.716  0.00  0.00     0.159 HD
ATOM     32  H   UNL d   1      28.563 -10.554   9.746  0.00  0.00     0.159 HD
ATOM     33  O   UNL d   1      30.018 -13.251   8.959  0.00  0.00    -0.273 OA
ENDBRANCH  27  29
ENDBRANCH   1  23
TORSDOF 5
ENDMDL
