MODEL 1
REMARK VINA RESULT:    -9.786      0.000      0.000
REMARK INTER + INTRA:         -12.989
REMARK INTER:                 -12.173
REMARK INTRA:                  -0.816
REMARK CONF_INDEPENDENT:        2.386
REMARK UNBOUND:                -0.816
REMARK  8 active torsions:
REMARK  status: ('A' for Active; 'I' for Inactive)
REMARK    1  A    between atoms: C_2  and  C_3 
REMARK       I    between atoms: C_2  and  N_21 
REMARK    2  A    between atoms: C_3  and  S_4 
REMARK    3  A    between atoms: S_4  and  C_5 
REMARK    4  A    between atoms: C_8  and  N_9 
REMARK    5  A    between atoms: N_9  and  N_10 
REMARK    6  A    between atoms: C_11  and  C_12 
REMARK    7  A    between atoms: N_21  and  C_22 
REMARK    8  A    between atoms: C_22  and  C_23 
ROOT
ATOM      1  C   UNL d   1      27.144 -16.145  -0.474  0.00  0.00     0.226 A 
ATOM      2  N   UNL d   1      27.686 -15.641   0.641  0.00  0.00    -0.132 NA
ATOM      3  N   UNL d   1      28.915 -16.186   0.617  0.00  0.00    -0.103 N 
ATOM      4  C   UNL d   1      29.095 -16.993  -0.478  0.00  0.00     0.739 A 
ATOM      5  N   UNL d   1      27.970 -16.984  -1.174  0.00  0.00    -0.034 NA
ATOM      6  H   UNL d   1      29.566 -15.950   1.355  0.00  0.00     0.208 HD
ENDROOT
BRANCH   1   7
ATOM      7  S   UNL d   1      25.629 -15.520  -1.076  0.00  0.00    -0.079 SA
BRANCH   7   8
ATOM      8  C   UNL d   1      24.704 -16.976  -1.653  0.00  0.00     0.185 C 
BRANCH   8   9
ATOM      9  C   UNL d   1      24.654 -18.060  -0.561  0.00  0.00     0.227 C 
ATOM     10  O   UNL d   1      25.648 -18.596  -0.058  0.00  0.00    -0.273 OA
ATOM     11  N   UNL d   1      23.434 -18.478  -0.102  0.00  0.00    -0.356 N 
ATOM     12  H   UNL d   1      23.491 -19.198   0.611  0.00  0.00     0.162 HD
BRANCH  11  13
ATOM     13  C   UNL d   1      22.123 -18.015  -0.506  0.00  0.00     0.161 C 
BRANCH  13  14
ATOM     14  C   UNL d   1      21.039 -18.954  -0.034  0.00  0.00    -0.040 A 
ATOM     15  C   UNL d   1      20.944 -19.346   1.310  0.00  0.00     0.010 A 
ATOM     16  C   UNL d   1      19.898 -20.174   1.737  0.00  0.00     0.024 A 
ATOM     17  C   UNL d   1      18.945 -20.615   0.823  0.00  0.00     0.034 A 
ATOM     18 CL   UNL d   1      17.645 -21.613   1.350  0.00  0.00    -0.084 Cl
ATOM     19  C   UNL d   1      19.034 -20.250  -0.518  0.00  0.00     0.024 A 
ATOM     20  C   UNL d   1      20.083 -19.432  -0.946  0.00  0.00     0.010 A 
ENDBRANCH  13  14
ENDBRANCH  11  13
ENDBRANCH   8   9
ENDBRANCH   7   8
ENDBRANCH   1   7
BRANCH   4  21
ATOM     21  N   UNL d   1      30.276 -17.637  -0.721  0.00  0.00    -0.106 N 
ATOM     22  H   UNL d   1      30.966 -17.759   0.019  0.00  0.00     0.208 HD
BRANCH  21  23
ATOM     23  N   UNL d   1      30.565 -18.093  -1.978  0.00  0.00    -0.172 NA
ATOM     24  C   UNL d   1      30.314 -17.331  -2.996  0.00  0.00     0.152 C 
BRANCH  24  25
ATOM     25  C   UNL d   1      30.626 -17.809  -4.372  0.00  0.00     0.006 A 
ATOM     26  C   UNL d   1      30.401 -19.165  -4.656  0.00  0.00     0.015 A 
ATOM     27  C   UNL d   1      30.662 -19.679  -5.928  0.00  0.00     0.003 A 
ATOM     28  C   UNL d   1      31.149 -18.841  -6.929  0.00  0.00     0.026 A 
ATOM     29  C   UNL d   1      31.375 -17.487  -6.658  0.00  0.00     0.056 A 
ATOM     30 CL   UNL d   1      31.964 -16.518  -7.968  0.00  0.00    -0.083 Cl
ATOM     31  C   UNL d   1      31.119 -16.960  -5.376  0.00  0.00     0.067 A 
ATOM     32 CL   UNL d   1      31.456 -15.294  -5.031  0.00  0.00    -0.082 Cl
ENDBRANCH  24  25
ENDBRANCH  21  23
ENDBRANCH   4  21
TORSDOF 8
ENDMDL
MODEL 2
REMARK VINA RESULT:    -9.754      2.504      3.127
REMARK INTER + INTRA:         -12.396
REMARK INTER:                 -12.140
REMARK INTRA:                  -0.256
REMARK CONF_INDEPENDENT:        2.386
REMARK UNBOUND:                -0.256
REMARK  8 active torsions:
REMARK  status: ('A' for Active; 'I' for Inactive)
REMARK    1  A    between atoms: C_2  and  C_3 
REMARK       I    between atoms: C_2  and  N_21 
REMARK    2  A    between atoms: C_3  and  S_4 
REMARK    3  A    between atoms: S_4  and  C_5 
REMARK    4  A    between atoms: C_8  and  N_9 
REMARK    5  A    between atoms: N_9  and  N_10 
REMARK    6  A    between atoms: C_11  and  C_12 
REMARK    7  A    between atoms: N_21  and  C_22 
REMARK    8  A    between atoms: C_22  and  C_23 
ROOT
ATOM      1  C   UNL d   1      24.990 -14.880  -3.012  0.00  0.00     0.226 A 
ATOM      2  N   UNL d   1      24.366 -13.778  -3.445  0.00  0.00    -0.132 NA
ATOM      3  N   UNL d   1      25.108 -13.450  -4.518  0.00  0.00    -0.103 N 
ATOM      4  C   UNL d   1      26.144 -14.329  -4.711  0.00  0.00     0.739 A 
ATOM      5  N   UNL d   1      26.086 -15.237  -3.751  0.00  0.00    -0.034 NA
ATOM      6  H   UNL d   1      24.840 -12.642  -5.065  0.00  0.00     0.208 HD
ENDROOT
BRANCH   1   7
ATOM      7  S   UNL d   1      24.252 -15.885  -1.790  0.00  0.00    -0.079 SA
BRANCH   7   8
ATOM      8  C   UNL d   1      25.334 -17.339  -1.645  0.00  0.00     0.185 C 
BRANCH   8   9
ATOM      9  C   UNL d   1      25.090 -18.071  -0.313  0.00  0.00     0.227 C 
ATOM     10  O   UNL d   1      25.983 -18.540   0.404  0.00  0.00    -0.273 OA
ATOM     11  N   UNL d   1      23.804 -18.229   0.129  0.00  0.00    -0.356 N 
ATOM     12  H   UNL d   1      23.733 -18.728   1.010  0.00  0.00     0.162 HD
BRANCH  11  13
ATOM     13  C   UNL d   1      22.583 -17.773  -0.502  0.00  0.00     0.161 C 
BRANCH  13  14
ATOM     14  C   UNL d   1      21.414 -18.657  -0.140  0.00  0.00    -0.040 A 
ATOM     15  C   UNL d   1      20.588 -19.220  -1.126  0.00  0.00     0.010 A 
ATOM     16  C   UNL d   1      19.543 -20.081  -0.770  0.00  0.00     0.024 A 
ATOM     17  C   UNL d   1      19.316 -20.382   0.570  0.00  0.00     0.034 A 
ATOM     18 CL   UNL d   1      18.047 -21.460   1.007  0.00  0.00    -0.084 Cl
ATOM     19  C   UNL d   1      20.115 -19.819   1.561  0.00  0.00     0.024 A 
ATOM     20  C   UNL d   1      21.152 -18.952   1.208  0.00  0.00     0.010 A 
ENDBRANCH  13  14
ENDBRANCH  11  13
ENDBRANCH   8   9
ENDBRANCH   7   8
ENDBRANCH   1   7
BRANCH   4  21
ATOM     21  N   UNL d   1      27.019 -14.204  -5.754  0.00  0.00    -0.106 N 
ATOM     22  H   UNL d   1      26.992 -13.388  -6.363  0.00  0.00     0.208 HD
BRANCH  21  23
ATOM     23  N   UNL d   1      27.920 -15.199  -6.018  0.00  0.00    -0.172 NA
ATOM     24  C   UNL d   1      29.091 -15.149  -5.464  0.00  0.00     0.152 C 
BRANCH  24  25
ATOM     25  C   UNL d   1      30.085 -16.224  -5.737  0.00  0.00     0.006 A 
ATOM     26  C   UNL d   1      29.976 -17.413  -5.000  0.00  0.00     0.015 A 
ATOM     27  C   UNL d   1      30.869 -18.467  -5.212  0.00  0.00     0.003 A 
ATOM     28  C   UNL d   1      31.878 -18.341  -6.164  0.00  0.00     0.026 A 
ATOM     29  C   UNL d   1      31.995 -17.160  -6.906  0.00  0.00     0.056 A 
ATOM     30 CL   UNL d   1      33.269 -17.101  -8.079  0.00  0.00    -0.083 Cl
ATOM     31  C   UNL d   1      31.102 -16.090  -6.697  0.00  0.00     0.067 A 
ATOM     32 CL   UNL d   1      31.289 -14.609  -7.578  0.00  0.00    -0.082 Cl
ENDBRANCH  24  25
ENDBRANCH  21  23
ENDBRANCH   4  21
TORSDOF 8
ENDMDL
MODEL 3
REMARK VINA RESULT:    -9.634      1.446      2.082
REMARK INTER + INTRA:         -12.676
REMARK INTER:                 -12.020
REMARK INTRA:                  -0.656
REMARK CONF_INDEPENDENT:        2.386
REMARK UNBOUND:                -0.656
REMARK  8 active torsions:
REMARK  status: ('A' for Active; 'I' for Inactive)
REMARK    1  A    between atoms: C_2  and  C_3 
REMARK       I    between atoms: C_2  and  N_21 
REMARK    2  A    between atoms: C_3  and  S_4 
REMARK    3  A    between atoms: S_4  and  C_5 
REMARK    4  A    between atoms: C_8  and  N_9 
REMARK    5  A    between atoms: N_9  and  N_10 
REMARK    6  A    between atoms: C_11  and  C_12 
REMARK    7  A    between atoms: N_21  and  C_22 
REMARK    8  A    between atoms: C_22  and  C_23 
ROOT
ATOM      1  C   UNL d   1      27.540 -16.609  -1.144  0.00  0.00     0.226 A 
ATOM      2  N   UNL d   1      27.975 -17.247  -0.050  0.00  0.00    -0.132 NA
ATOM      3  N   UNL d   1      29.259 -17.490  -0.370  0.00  0.00    -0.103 N 
ATOM      4  C   UNL d   1      29.574 -17.015  -1.619  0.00  0.00     0.739 A 
ATOM      5  N   UNL d   1      28.484 -16.463  -2.125  0.00  0.00    -0.034 NA
ATOM      6  H   UNL d   1      29.848 -17.958   0.307  0.00  0.00     0.208 HD
ENDROOT
BRANCH   1   7
ATOM      7  S   UNL d   1      25.989 -15.808  -1.135  0.00  0.00    -0.079 SA
BRANCH   7   8
ATOM      8  C   UNL d   1      24.788 -17.080  -1.630  0.00  0.00     0.185 C 
BRANCH   8   9
ATOM      9  C   UNL d   1      24.635 -18.146  -0.530  0.00  0.00     0.227 C 
ATOM     10  O   UNL d   1      25.578 -18.696   0.051  0.00  0.00    -0.273 OA
ATOM     11  N   UNL d   1      23.376 -18.530  -0.153  0.00  0.00    -0.356 N 
ATOM     12  H   UNL d   1      23.366 -19.240   0.572  0.00  0.00     0.162 HD
BRANCH  11  13
ATOM     13  C   UNL d   1      22.108 -18.045  -0.657  0.00  0.00     0.161 C 
BRANCH  13  14
ATOM     14  C   UNL d   1      20.960 -18.888  -0.158  0.00  0.00    -0.040 A 
ATOM     15  C   UNL d   1      19.910 -19.273  -1.007  0.00  0.00     0.010 A 
ATOM     16  C   UNL d   1      18.884 -20.101  -0.537  0.00  0.00     0.024 A 
ATOM     17  C   UNL d   1      18.898 -20.545   0.783  0.00  0.00     0.034 A 
ATOM     18 CL   UNL d   1      17.649 -21.582   1.355  0.00  0.00    -0.084 Cl
ATOM     19  C   UNL d   1      19.922 -20.158   1.643  0.00  0.00     0.024 A 
ATOM     20  C   UNL d   1      20.942 -19.324   1.177  0.00  0.00     0.010 A 
ENDBRANCH  13  14
ENDBRANCH  11  13
ENDBRANCH   8   9
ENDBRANCH   7   8
ENDBRANCH   1   7
BRANCH   4  21
ATOM     21  N   UNL d   1      30.828 -17.132  -2.146  0.00  0.00    -0.106 N 
ATOM     22  H   UNL d   1      31.633 -17.313  -1.547  0.00  0.00     0.208 HD
BRANCH  21  23
ATOM     23  N   UNL d   1      31.028 -16.968  -3.490  0.00  0.00    -0.172 NA
ATOM     24  C   UNL d   1      31.453 -17.973  -4.189  0.00  0.00     0.152 C 
BRANCH  24  25
ATOM     25  C   UNL d   1      31.673 -17.814  -5.655  0.00  0.00     0.006 A 
ATOM     26  C   UNL d   1      32.325 -16.651  -6.092  0.00  0.00     0.015 A 
ATOM     27  C   UNL d   1      32.572 -16.443  -7.451  0.00  0.00     0.003 A 
ATOM     28  C   UNL d   1      32.171 -17.395  -8.384  0.00  0.00     0.026 A 
ATOM     29  C   UNL d   1      31.521 -18.560  -7.959  0.00  0.00     0.056 A 
ATOM     30 CL   UNL d   1      31.075 -19.696  -9.189  0.00  0.00    -0.083 Cl
ATOM     31  C   UNL d   1      31.263 -18.778  -6.591  0.00  0.00     0.067 A 
ATOM     32 CL   UNL d   1      30.407 -20.195  -6.077  0.00  0.00    -0.082 Cl
ENDBRANCH  24  25
ENDBRANCH  21  23
ENDBRANCH   4  21
TORSDOF 8
ENDMDL
MODEL 4
REMARK VINA RESULT:    -9.438      6.232      7.769
REMARK INTER + INTRA:         -12.462
REMARK INTER:                 -11.825
REMARK INTRA:                  -0.637
REMARK CONF_INDEPENDENT:        2.386
REMARK UNBOUND:                -0.637
REMARK  8 active torsions:
REMARK  status: ('A' for Active; 'I' for Inactive)
REMARK    1  A    between atoms: C_2  and  C_3 
REMARK       I    between atoms: C_2  and  N_21 
REMARK    2  A    between atoms: C_3  and  S_4 
REMARK    3  A    between atoms: S_4  and  C_5 
REMARK    4  A    between atoms: C_8  and  N_9 
REMARK    5  A    between atoms: N_9  and  N_10 
REMARK    6  A    between atoms: C_11  and  C_12 
REMARK    7  A    between atoms: N_21  and  C_22 
REMARK    8  A    between atoms: C_22  and  C_23 
ROOT
ATOM      1  C   UNL d   1      25.235 -14.729  -2.942  0.00  0.00     0.226 A 
ATOM      2  N   UNL d   1      24.408 -14.307  -3.906  0.00  0.00    -0.132 NA
ATOM      3  N   UNL d   1      24.842 -13.049  -4.105  0.00  0.00    -0.103 N 
ATOM      4  C   UNL d   1      25.892 -12.735  -3.280  0.00  0.00     0.739 A 
ATOM      5  N   UNL d   1      26.143 -13.793  -2.526  0.00  0.00    -0.034 NA
ATOM      6  H   UNL d   1      24.394 -12.488  -4.817  0.00  0.00     0.208 HD
ENDROOT
BRANCH   1   7
ATOM      7  S   UNL d   1      25.288 -16.419  -2.508  0.00  0.00    -0.079 SA
BRANCH   7   8
ATOM      8  C   UNL d   1      25.265 -16.449  -0.689  0.00  0.00     0.185 C 
BRANCH   8   9
ATOM      9  C   UNL d   1      25.131 -17.892  -0.168  0.00  0.00     0.227 C 
ATOM     10  O   UNL d   1      26.041 -18.529   0.375  0.00  0.00    -0.273 OA
ATOM     11  N   UNL d   1      23.930 -18.535  -0.306  0.00  0.00    -0.356 N 
ATOM     12  H   UNL d   1      23.930 -19.482   0.058  0.00  0.00     0.162 HD
BRANCH  11  13
ATOM     13  C   UNL d   1      22.708 -18.024  -0.890  0.00  0.00     0.161 C 
BRANCH  13  14
ATOM     14  C   UNL d   1      21.498 -18.757  -0.362  0.00  0.00    -0.040 A 
ATOM     15  C   UNL d   1      20.523 -19.280  -1.226  0.00  0.00     0.010 A 
ATOM     16  C   UNL d   1      19.438 -20.004  -0.718  0.00  0.00     0.024 A 
ATOM     17  C   UNL d   1      19.320 -20.207   0.655  0.00  0.00     0.034 A 
ATOM     18 CL   UNL d   1      17.999 -21.118   1.279  0.00  0.00    -0.084 Cl
ATOM     19  C   UNL d   1      20.268 -19.680   1.527  0.00  0.00     0.024 A 
ATOM     20  C   UNL d   1      21.346 -18.949   1.022  0.00  0.00     0.010 A 
ENDBRANCH  13  14
ENDBRANCH  11  13
ENDBRANCH   8   9
ENDBRANCH   7   8
ENDBRANCH   1   7
BRANCH   4  21
ATOM     21  N   UNL d   1      26.508 -11.516  -3.320  0.00  0.00    -0.106 N 
ATOM     22  H   UNL d   1      27.516 -11.435  -3.185  0.00  0.00     0.208 HD
BRANCH  21  23
ATOM     23  N   UNL d   1      25.771 -10.378  -3.503  0.00  0.00    -0.172 NA
ATOM     24  C   UNL d   1      26.347  -9.226  -3.356  0.00  0.00     0.152 C 
BRANCH  24  25
ATOM     25  C   UNL d   1      25.561  -7.976  -3.555  0.00  0.00     0.006 A 
ATOM     26  C   UNL d   1      25.630  -6.997  -2.551  0.00  0.00     0.015 A 
ATOM     27  C   UNL d   1      24.927  -5.797  -2.678  0.00  0.00     0.003 A 
ATOM     28  C   UNL d   1      24.149  -5.564  -3.809  0.00  0.00     0.026 A 
ATOM     29  C   UNL d   1      24.074  -6.532  -4.818  0.00  0.00     0.056 A 
ATOM     30 CL   UNL d   1      23.096  -6.148  -6.195  0.00  0.00    -0.083 Cl
ATOM     31  C   UNL d   1      24.776  -7.748  -4.698  0.00  0.00     0.067 A 
ATOM     32 CL   UNL d   1      24.632  -8.966  -5.923  0.00  0.00    -0.082 Cl
ENDBRANCH  24  25
ENDBRANCH  21  23
ENDBRANCH   4  21
TORSDOF 8
ENDMDL
MODEL 5
REMARK VINA RESULT:    -9.340      8.370     10.702
REMARK INTER + INTRA:         -12.406
REMARK INTER:                 -11.726
REMARK INTRA:                  -0.680
REMARK CONF_INDEPENDENT:        2.386
REMARK UNBOUND:                -0.680
REMARK  8 active torsions:
REMARK  status: ('A' for Active; 'I' for Inactive)
REMARK    1  A    between atoms: C_2  and  C_3 
REMARK       I    between atoms: C_2  and  N_21 
REMARK    2  A    between atoms: C_3  and  S_4 
REMARK    3  A    between atoms: S_4  and  C_5 
REMARK    4  A    between atoms: C_8  and  N_9 
REMARK    5  A    between atoms: N_9  and  N_10 
REMARK    6  A    between atoms: C_11  and  C_12 
REMARK    7  A    between atoms: N_21  and  C_22 
REMARK    8  A    between atoms: C_22  and  C_23 
ROOT
ATOM      1  C   UNL d   1      28.292 -13.347   5.328  0.00  0.00     0.226 A 
ATOM      2  N   UNL d   1      28.640 -14.558   5.779  0.00  0.00    -0.132 NA
ATOM      3  N   UNL d   1      28.934 -15.200   4.634  0.00  0.00    -0.103 N 
ATOM      4  C   UNL d   1      28.760 -14.394   3.537  0.00  0.00     0.739 A 
ATOM      5  N   UNL d   1      28.340 -13.215   3.965  0.00  0.00    -0.034 NA
ATOM      6  H   UNL d   1      29.256 -16.158   4.683  0.00  0.00     0.208 HD
ENDROOT
BRANCH   1   7
ATOM      7  S   UNL d   1      28.090 -12.019   6.443  0.00  0.00    -0.079 SA
BRANCH   7   8
ATOM      8  C   UNL d   1      29.766 -11.616   7.020  0.00  0.00     0.185 C 
BRANCH   8   9
ATOM      9  C   UNL d   1      29.714 -10.695   8.253  0.00  0.00     0.227 C 
ATOM     10  O   UNL d   1      30.316  -9.619   8.351  0.00  0.00    -0.273 OA
ATOM     11  N   UNL d   1      28.957 -11.075   9.328  0.00  0.00    -0.356 N 
ATOM     12  H   UNL d   1      28.984 -10.415  10.099  0.00  0.00     0.162 HD
BRANCH  11  13
ATOM     13  C   UNL d   1      28.152 -12.269   9.474  0.00  0.00     0.161 C 
BRANCH  13  14
ATOM     14  C   UNL d   1      28.927 -13.377  10.145  0.00  0.00    -0.040 A 
ATOM     15  C   UNL d   1      28.662 -13.759  11.470  0.00  0.00     0.010 A 
ATOM     16  C   UNL d   1      29.355 -14.825  12.054  0.00  0.00     0.024 A 
ATOM     17  C   UNL d   1      30.318 -15.513  11.320  0.00  0.00     0.034 A 
ATOM     18 CL   UNL d   1      31.155 -16.840  12.029  0.00  0.00    -0.084 Cl
ATOM     19  C   UNL d   1      30.606 -15.136  10.011  0.00  0.00     0.024 A 
ATOM     20  C   UNL d   1      29.921 -14.066   9.430  0.00  0.00     0.010 A 
ENDBRANCH  13  14
ENDBRANCH  11  13
ENDBRANCH   8   9
ENDBRANCH   7   8
ENDBRANCH   1   7
BRANCH   4  21
ATOM     21  N   UNL d   1      29.018 -14.829   2.267  0.00  0.00    -0.106 N 
ATOM     22  H   UNL d   1      29.954 -15.129   1.998  0.00  0.00     0.208 HD
BRANCH  21  23
ATOM     23  N   UNL d   1      28.025 -14.829   1.325  0.00  0.00    -0.172 NA
ATOM     24  C   UNL d   1      27.818 -15.904   0.631  0.00  0.00     0.152 C 
BRANCH  24  25
ATOM     25  C   UNL d   1      26.740 -15.924  -0.397  0.00  0.00     0.006 A 
ATOM     26  C   UNL d   1      26.716 -14.881  -1.335  0.00  0.00     0.015 A 
ATOM     27  C   UNL d   1      25.738 -14.843  -2.332  0.00  0.00     0.003 A 
ATOM     28  C   UNL d   1      24.777 -15.849  -2.401  0.00  0.00     0.026 A 
ATOM     29  C   UNL d   1      24.792 -16.895  -1.471  0.00  0.00     0.056 A 
ATOM     30 CL   UNL d   1      23.569 -18.110  -1.645  0.00  0.00    -0.083 Cl
ATOM     31  C   UNL d   1      25.772 -16.940  -0.458  0.00  0.00     0.067 A 
ATOM     32 CL   UNL d   1      25.750 -18.208   0.724  0.00  0.00    -0.082 Cl
ENDBRANCH  24  25
ENDBRANCH  21  23
ENDBRANCH   4  21
TORSDOF 8
ENDMDL
MODEL 6
REMARK VINA RESULT:    -9.202      6.570      9.295
REMARK INTER + INTRA:         -12.320
REMARK INTER:                 -11.588
REMARK INTRA:                  -0.732
REMARK CONF_INDEPENDENT:        2.386
REMARK UNBOUND:                -0.732
REMARK  8 active torsions:
REMARK  status: ('A' for Active; 'I' for Inactive)
REMARK    1  A    between atoms: C_2  and  C_3 
REMARK       I    between atoms: C_2  and  N_21 
REMARK    2  A    between atoms: C_3  and  S_4 
REMARK    3  A    between atoms: S_4  and  C_5 
REMARK    4  A    between atoms: C_8  and  N_9 
REMARK    5  A    between atoms: N_9  and  N_10 
REMARK    6  A    between atoms: C_11  and  C_12 
REMARK    7  A    between atoms: N_21  and  C_22 
REMARK    8  A    between atoms: C_22  and  C_23 
ROOT
ATOM      1  C   UNL d   1      27.723 -13.784   0.910  0.00  0.00     0.226 A 
ATOM      2  N   UNL d   1      28.587 -14.715   0.487  0.00  0.00    -0.132 NA
ATOM      3  N   UNL d   1      29.093 -15.165   1.650  0.00  0.00    -0.103 N 
ATOM      4  C   UNL d   1      28.548 -14.516   2.729  0.00  0.00     0.739 A 
ATOM      5  N   UNL d   1      27.683 -13.626   2.270  0.00  0.00    -0.034 NA
ATOM      6  H   UNL d   1      29.776 -15.911   1.626  0.00  0.00     0.208 HD
ENDROOT
BRANCH   1   7
ATOM      7  S   UNL d   1      26.574 -13.082  -0.201  0.00  0.00    -0.079 SA
BRANCH   7   8
ATOM      8  C   UNL d   1      27.198 -13.490  -1.860  0.00  0.00     0.185 C 
BRANCH   8   9
ATOM      9  C   UNL d   1      26.065 -14.024  -2.755  0.00  0.00     0.227 C 
ATOM     10  O   UNL d   1      25.641 -13.453  -3.766  0.00  0.00    -0.273 OA
ATOM     11  N   UNL d   1      25.468 -15.211  -2.425  0.00  0.00    -0.356 N 
ATOM     12  H   UNL d   1      24.728 -15.486  -3.063  0.00  0.00     0.162 HD
BRANCH  11  13
ATOM     13  C   UNL d   1      25.773 -16.083  -1.310  0.00  0.00     0.161 C 
BRANCH  13  14
ATOM     14  C   UNL d   1      24.562 -16.880  -0.889  0.00  0.00    -0.040 A 
ATOM     15  C   UNL d   1      23.272 -16.325  -0.920  0.00  0.00     0.010 A 
ATOM     16  C   UNL d   1      22.158 -17.099  -0.577  0.00  0.00     0.024 A 
ATOM     17  C   UNL d   1      22.325 -18.429  -0.199  0.00  0.00     0.034 A 
ATOM     18 CL   UNL d   1      20.952 -19.389   0.200  0.00  0.00    -0.084 Cl
ATOM     19  C   UNL d   1      23.598 -18.989  -0.145  0.00  0.00     0.024 A 
ATOM     20  C   UNL d   1      24.712 -18.215  -0.478  0.00  0.00     0.010 A 
ENDBRANCH  13  14
ENDBRANCH  11  13
ENDBRANCH   8   9
ENDBRANCH   7   8
ENDBRANCH   1   7
BRANCH   4  21
ATOM     21  N   UNL d   1      28.898 -14.822   4.014  0.00  0.00    -0.106 N 
ATOM     22  H   UNL d   1      28.902 -15.788   4.338  0.00  0.00     0.208 HD
BRANCH  21  23
ATOM     23  N   UNL d   1      29.211 -13.825   4.898  0.00  0.00    -0.172 NA
ATOM     24  C   UNL d   1      28.389 -13.561   5.863  0.00  0.00     0.152 C 
BRANCH  24  25
ATOM     25  C   UNL d   1      28.714 -12.481   6.838  0.00  0.00     0.006 A 
ATOM     26  C   UNL d   1      28.699 -11.158   6.371  0.00  0.00     0.015 A 
ATOM     27  C   UNL d   1      28.985 -10.096   7.232  0.00  0.00     0.003 A 
ATOM     28  C   UNL d   1      29.287 -10.348   8.568  0.00  0.00     0.026 A 
ATOM     29  C   UNL d   1      29.303 -11.664   9.045  0.00  0.00     0.056 A 
ATOM     30 CL   UNL d   1      29.672 -11.879  10.725  0.00  0.00    -0.083 Cl
ATOM     31  C   UNL d   1      29.021 -12.742   8.183  0.00  0.00     0.067 A 
ATOM     32 CL   UNL d   1      29.099 -14.373   8.767  0.00  0.00    -0.082 Cl
ENDBRANCH  24  25
ENDBRANCH  21  23
ENDBRANCH   4  21
TORSDOF 8
ENDMDL
MODEL 7
REMARK VINA RESULT:    -9.173      6.170      9.024
REMARK INTER + INTRA:         -12.606
REMARK INTER:                 -11.559
REMARK INTRA:                  -1.047
REMARK CONF_INDEPENDENT:        2.386
REMARK UNBOUND:                -1.047
REMARK  8 active torsions:
REMARK  status: ('A' for Active; 'I' for Inactive)
REMARK    1  A    between atoms: C_2  and  C_3 
REMARK       I    between atoms: C_2  and  N_21 
REMARK    2  A    between atoms: C_3  and  S_4 
REMARK    3  A    between atoms: S_4  and  C_5 
REMARK    4  A    between atoms: C_8  and  N_9 
REMARK    5  A    between atoms: N_9  and  N_10 
REMARK    6  A    between atoms: C_11  and  C_12 
REMARK    7  A    between atoms: N_21  and  C_22 
REMARK    8  A    between atoms: C_22  and  C_23 
ROOT
ATOM      1  C   UNL d   1      28.069 -13.453   0.789  0.00  0.00     0.226 A 
ATOM      2  N   UNL d   1      29.039 -14.332   0.513  0.00  0.00    -0.132 NA
ATOM      3  N   UNL d   1      29.144 -14.995   1.679  0.00  0.00    -0.103 N 
ATOM      4  C   UNL d   1      28.266 -14.518   2.619  0.00  0.00     0.739 A 
ATOM      5  N   UNL d   1      27.584 -13.528   2.067  0.00  0.00    -0.034 NA
ATOM      6  H   UNL d   1      29.810 -15.753   1.748  0.00  0.00     0.208 HD
ENDROOT
BRANCH   1   7
ATOM      7  S   UNL d   1      27.335 -12.523  -0.494  0.00  0.00    -0.079 SA
BRANCH   7   8
ATOM      8  C   UNL d   1      26.272 -13.696  -1.391  0.00  0.00     0.185 C 
BRANCH   8   9
ATOM      9  C   UNL d   1      27.111 -14.825  -2.018  0.00  0.00     0.227 C 
ATOM     10  O   UNL d   1      27.729 -14.730  -3.085  0.00  0.00    -0.273 OA
ATOM     11  N   UNL d   1      27.191 -16.027  -1.367  0.00  0.00    -0.356 N 
ATOM     12  H   UNL d   1      27.757 -16.716  -1.852  0.00  0.00     0.162 HD
BRANCH  11  13
ATOM     13  C   UNL d   1      26.581 -16.402  -0.109  0.00  0.00     0.161 C 
BRANCH  13  14
ATOM     14  C   UNL d   1      25.236 -17.054  -0.324  0.00  0.00    -0.040 A 
ATOM     15  C   UNL d   1      25.040 -18.424  -0.085  0.00  0.00     0.010 A 
ATOM     16  C   UNL d   1      23.772 -18.997  -0.237  0.00  0.00     0.024 A 
ATOM     17  C   UNL d   1      22.695 -18.207  -0.631  0.00  0.00     0.034 A 
ATOM     18 CL   UNL d   1      21.130 -18.905  -0.796  0.00  0.00    -0.084 Cl
ATOM     19  C   UNL d   1      22.876 -16.851  -0.890  0.00  0.00     0.024 A 
ATOM     20  C   UNL d   1      24.143 -16.280  -0.747  0.00  0.00     0.010 A 
ENDBRANCH  13  14
ENDBRANCH  11  13
ENDBRANCH   8   9
ENDBRANCH   7   8
ENDBRANCH   1   7
BRANCH   4  21
ATOM     21  N   UNL d   1      28.182 -15.053   3.874  0.00  0.00    -0.106 N 
ATOM     22  H   UNL d   1      28.114 -16.061   4.008  0.00  0.00     0.208 HD
BRANCH  21  23
ATOM     23  N   UNL d   1      28.147 -14.235   4.970  0.00  0.00    -0.172 NA
ATOM     24  C   UNL d   1      29.071 -14.352   5.871  0.00  0.00     0.152 C 
BRANCH  24  25
ATOM     25  C   UNL d   1      29.052 -13.468   7.070  0.00  0.00     0.006 A 
ATOM     26  C   UNL d   1      28.934 -14.080   8.327  0.00  0.00     0.015 A 
ATOM     27  C   UNL d   1      28.919 -13.312   9.494  0.00  0.00     0.003 A 
ATOM     28  C   UNL d   1      29.024 -11.925   9.414  0.00  0.00     0.026 A 
ATOM     29  C   UNL d   1      29.143 -11.304   8.165  0.00  0.00     0.056 A 
ATOM     30 CL   UNL d   1      29.285  -9.577   8.164  0.00  0.00    -0.083 Cl
ATOM     31  C   UNL d   1      29.154 -12.070   6.982  0.00  0.00     0.067 A 
ATOM     32 CL   UNL d   1      29.244 -11.290   5.436  0.00  0.00    -0.082 Cl
ENDBRANCH  24  25
ENDBRANCH  21  23
ENDBRANCH   4  21
TORSDOF 8
ENDMDL
MODEL 8
REMARK VINA RESULT:    -9.160      7.236      9.881
REMARK INTER + INTRA:         -12.408
REMARK INTER:                 -11.546
REMARK INTRA:                  -0.862
REMARK CONF_INDEPENDENT:        2.386
REMARK UNBOUND:                -0.862
REMARK  8 active torsions:
REMARK  status: ('A' for Active; 'I' for Inactive)
REMARK    1  A    between atoms: C_2  and  C_3 
REMARK       I    between atoms: C_2  and  N_21 
REMARK    2  A    between atoms: C_3  and  S_4 
REMARK    3  A    between atoms: S_4  and  C_5 
REMARK    4  A    between atoms: C_8  and  N_9 
REMARK    5  A    between atoms: N_9  and  N_10 
REMARK    6  A    between atoms: C_11  and  C_12 
REMARK    7  A    between atoms: N_21  and  C_22 
REMARK    8  A    between atoms: C_22  and  C_23 
ROOT
ATOM      1  C   UNL d   1      27.747 -14.117   2.692  0.00  0.00     0.226 A 
ATOM      2  N   UNL d   1      27.017 -13.692   3.730  0.00  0.00    -0.132 NA
ATOM      3  N   UNL d   1      27.912 -13.751   4.733  0.00  0.00    -0.103 N 
ATOM      4  C   UNL d   1      29.134 -14.203   4.302  0.00  0.00     0.739 A 
ATOM      5  N   UNL d   1      29.037 -14.450   3.006  0.00  0.00    -0.034 NA
ATOM      6  H   UNL d   1      27.625 -13.456   5.658  0.00  0.00     0.208 HD
ENDROOT
BRANCH   1   7
ATOM      7  S   UNL d   1      27.135 -13.958   1.064  0.00  0.00    -0.079 SA
BRANCH   7   8
ATOM      8  C   UNL d   1      28.413 -14.688  -0.003  0.00  0.00     0.185 C 
BRANCH   8   9
ATOM      9  C   UNL d   1      28.255 -16.217  -0.080  0.00  0.00     0.227 C 
ATOM     10  O   UNL d   1      29.135 -17.030   0.225  0.00  0.00    -0.273 OA
ATOM     11  N   UNL d   1      27.065 -16.736  -0.518  0.00  0.00    -0.356 N 
ATOM     12  H   UNL d   1      27.048 -17.750  -0.545  0.00  0.00     0.162 HD
BRANCH  11  13
ATOM     13  C   UNL d   1      25.876 -16.018  -0.926  0.00  0.00     0.161 C 
BRANCH  13  14
ATOM     14  C   UNL d   1      24.640 -16.871  -0.774  0.00  0.00    -0.040 A 
ATOM     15  C   UNL d   1      24.726 -18.236  -0.455  0.00  0.00     0.010 A 
ATOM     16  C   UNL d   1      23.566 -18.995  -0.265  0.00  0.00     0.024 A 
ATOM     17  C   UNL d   1      22.315 -18.397  -0.396  0.00  0.00     0.034 A 
ATOM     18 CL   UNL d   1      20.887 -19.325  -0.140  0.00  0.00    -0.084 Cl
ATOM     19  C   UNL d   1      22.211 -17.050  -0.730  0.00  0.00     0.024 A 
ATOM     20  C   UNL d   1      23.369 -16.293  -0.929  0.00  0.00     0.010 A 
ENDBRANCH  13  14
ENDBRANCH  11  13
ENDBRANCH   8   9
ENDBRANCH   7   8
ENDBRANCH   1   7
BRANCH   4  21
ATOM     21  N   UNL d   1      30.202 -14.326   5.145  0.00  0.00    -0.106 N 
ATOM     22  H   UNL d   1      31.155 -14.231   4.797  0.00  0.00     0.208 HD
BRANCH  21  23
ATOM     23  N   UNL d   1      30.005 -14.617   6.467  0.00  0.00    -0.172 NA
ATOM     24  C   UNL d   1      30.698 -13.984   7.360  0.00  0.00     0.152 C 
BRANCH  24  25
ATOM     25  C   UNL d   1      30.496 -14.286   8.805  0.00  0.00     0.006 A 
ATOM     26  C   UNL d   1      31.374 -15.199   9.408  0.00  0.00     0.015 A 
ATOM     27  C   UNL d   1      31.247 -15.521  10.761  0.00  0.00     0.003 A 
ATOM     28  C   UNL d   1      30.243 -14.931  11.525  0.00  0.00     0.026 A 
ATOM     29  C   UNL d   1      29.362 -14.017  10.934  0.00  0.00     0.056 A 
ATOM     30 CL   UNL d   1      28.155 -13.321  11.965  0.00  0.00    -0.083 Cl
ATOM     31  C   UNL d   1      29.478 -13.689   9.568  0.00  0.00     0.067 A 
ATOM     32 CL   UNL d   1      28.349 -12.600   8.830  0.00  0.00    -0.082 Cl
ENDBRANCH  24  25
ENDBRANCH  21  23
ENDBRANCH   4  21
TORSDOF 8
ENDMDL
MODEL 9
REMARK VINA RESULT:    -8.047      4.937      7.579
REMARK INTER + INTRA:         -12.662
REMARK INTER:                 -10.434
REMARK INTRA:                  -2.229
REMARK CONF_INDEPENDENT:        2.386
REMARK UNBOUND:                -2.229
REMARK  8 active torsions:
REMARK  status: ('A' for Active; 'I' for Inactive)
REMARK    1  A    between atoms: C_2  and  C_3 
REMARK       I    between atoms: C_2  and  N_21 
REMARK    2  A    between atoms: C_3  and  S_4 
REMARK    3  A    between atoms: S_4  and  C_5 
REMARK    4  A    between atoms: C_8  and  N_9 
REMARK    5  A    between atoms: N_9  and  N_10 
REMARK    6  A    between atoms: C_11  and  C_12 
REMARK    7  A    between atoms: N_21  and  C_22 
REMARK    8  A    between atoms: C_22  and  C_23 
ROOT
ATOM      1  C   UNL d   1      29.452 -16.287  -2.006  0.00  0.00     0.226 A 
ATOM      2  N   UNL d   1      29.582 -17.482  -1.418  0.00  0.00    -0.132 NA
ATOM      3  N   UNL d   1      29.714 -17.136  -0.125  0.00  0.00    -0.103 N 
ATOM      4  C   UNL d   1      29.669 -15.776   0.048  0.00  0.00     0.739 A 
ATOM      5  N   UNL d   1      29.514 -15.224  -1.144  0.00  0.00    -0.034 NA
ATOM      6  H   UNL d   1      29.811 -17.869   0.567  0.00  0.00     0.208 HD
ENDROOT
BRANCH   1   7
ATOM      7  S   UNL d   1      28.958 -16.178  -3.677  0.00  0.00    -0.079 SA
BRANCH   7   8
ATOM      8  C   UNL d   1      27.920 -14.688  -3.776  0.00  0.00     0.185 C 
BRANCH   8   9
ATOM      9  C   UNL d   1      26.839 -14.845  -4.861  0.00  0.00     0.227 C 
ATOM     10  O   UNL d   1      27.060 -15.195  -6.026  0.00  0.00    -0.273 OA
ATOM     11  N   UNL d   1      25.536 -14.581  -4.536  0.00  0.00    -0.356 N 
ATOM     12  H   UNL d   1      24.890 -14.703  -5.310  0.00  0.00     0.162 HD
BRANCH  11  13
ATOM     13  C   UNL d   1      25.002 -14.168  -3.255  0.00  0.00     0.161 C 
BRANCH  13  14
ATOM     14  C   UNL d   1      25.305 -15.184  -2.180  0.00  0.00    -0.040 A 
ATOM     15  C   UNL d   1      24.824 -16.500  -2.259  0.00  0.00     0.010 A 
ATOM     16  C   UNL d   1      25.163 -17.440  -1.278  0.00  0.00     0.024 A 
ATOM     17  C   UNL d   1      25.981 -17.070  -0.214  0.00  0.00     0.034 A 
ATOM     18 CL   UNL d   1      26.418 -18.231   0.980  0.00  0.00    -0.084 Cl
ATOM     19  C   UNL d   1      26.451 -15.764  -0.111  0.00  0.00     0.024 A 
ATOM     20  C   UNL d   1      26.106 -14.823  -1.084  0.00  0.00     0.010 A 
ENDBRANCH  13  14
ENDBRANCH  11  13
ENDBRANCH   8   9
ENDBRANCH   7   8
ENDBRANCH   1   7
BRANCH   4  21
ATOM     21  N   UNL d   1      29.763 -15.196   1.281  0.00  0.00    -0.106 N 
ATOM     22  H   UNL d   1      30.100 -15.726   2.084  0.00  0.00     0.208 HD
BRANCH  21  23
ATOM     23  N   UNL d   1      29.368 -13.898   1.463  0.00  0.00    -0.172 NA
ATOM     24  C   UNL d   1      28.102 -13.620   1.451  0.00  0.00     0.152 C 
BRANCH  24  25
ATOM     25  C   UNL d   1      27.652 -12.214   1.651  0.00  0.00     0.006 A 
ATOM     26  C   UNL d   1      27.439 -11.781   2.969  0.00  0.00     0.015 A 
ATOM     27  C   UNL d   1      27.026 -10.472   3.230  0.00  0.00     0.003 A 
ATOM     28  C   UNL d   1      26.823  -9.585   2.176  0.00  0.00     0.026 A 
ATOM     29  C   UNL d   1      27.034 -10.005   0.857  0.00  0.00     0.056 A 
ATOM     30 CL   UNL d   1      26.774  -8.828  -0.387  0.00  0.00    -0.083 Cl
ATOM     31  C   UNL d   1      27.447 -11.325   0.583  0.00  0.00     0.067 A 
ATOM     32 CL   UNL d   1      27.650 -11.856  -1.055  0.00  0.00    -0.082 Cl
ENDBRANCH  24  25
ENDBRANCH  21  23
ENDBRANCH   4  21
TORSDOF 8
ENDMDL
