MODEL 1
REMARK VINA RESULT:    -8.533      0.000      0.000
REMARK INTER + INTRA:         -13.162
REMARK INTER:                 -11.218
REMARK INTRA:                  -1.944
REMARK CONF_INDEPENDENT:        2.685
REMARK UNBOUND:                -1.944
REMARK  9 active torsions:
REMARK  status: ('A' for Active; 'I' for Inactive)
REMARK    1  A    between atoms: C_2  and  O_3 
REMARK    2  A    between atoms: O_3  and  C_4 
REMARK    3  A    between atoms: C_8  and  C_9 
REMARK       I    between atoms: C_9  and  N_11 
REMARK    4  A    between atoms: N_11  and  C_12 
REMARK    5  A    between atoms: C_12  and  N_14 
REMARK    6  A    between atoms: N_14  and  N_15 
REMARK       I    between atoms: N_15  and  C_16 
REMARK    7  A    between atoms: C_18  and  C_16 
REMARK    8  A    between atoms: C_18  and  O_20 
REMARK    9  A    between atoms: O_20  and  C_21 
ROOT
ATOM      1  N   UNL d   1      25.436 -13.052  -4.856  0.00  0.00    -0.273 N 
ATOM      2  H   UNL d   1      24.760 -13.602  -5.386  0.00  0.00     0.189 HD
ENDROOT
BRANCH   1   3
ATOM      3  C   UNL d   1      26.543 -12.361  -5.409  0.00  0.00     0.193 C 
ATOM      4  S   UNL d   1      26.472 -10.720  -5.767  0.00  0.00    -0.039 SA
BRANCH   3   5
ATOM      5  N   UNL d   1      27.659 -13.154  -5.718  0.00  0.00    -0.298 N 
ATOM      6  C   UNL d   1      27.702 -14.580  -5.657  0.00  0.00     0.258 C 
ATOM      7  O   UNL d   1      26.742 -15.305  -5.847  0.00  0.00    -0.267 OA
ATOM      8  H   UNL d   1      28.530 -12.655  -5.718  0.00  0.00     0.171 HD
BRANCH   6   9
ATOM      9  C   UNL d   1      29.009 -15.282  -5.456  0.00  0.00     0.035 A 
ATOM     10  C   UNL d   1      29.549 -15.350  -4.152  0.00  0.00     0.017 A 
ATOM     11  C   UNL d   1      30.713 -16.077  -3.898  0.00  0.00     0.004 A 
ATOM     12  C   UNL d   1      31.382 -16.688  -4.955  0.00  0.00     0.037 A 
ATOM     13  C   UNL d   1      30.863 -16.614  -6.249  0.00  0.00     0.069 A 
ATOM     14  C   UNL d   1      29.682 -15.912  -6.494  0.00  0.00     0.053 A 
BRANCH  13  15
ATOM     15  O   UNL d   1      31.499 -17.353  -7.209  0.00  0.00    -0.351 OA
BRANCH  15  16
ATOM     16  C   UNL d   1      30.794 -18.515  -7.653  0.00  0.00     0.171 C 
ATOM     17  C   UNL d   1      30.405 -19.322  -6.434  0.00  0.00     0.034 C 
ENDBRANCH  15  16
ENDBRANCH  13  15
ENDBRANCH   6   9
ENDBRANCH   3   5
ENDBRANCH   1   3
BRANCH   1  18
ATOM     18  N   UNL d   1      25.416 -13.318  -3.395  0.00  0.00    -0.266 N 
ATOM     19  C   UNL d   1      25.519 -14.622  -2.895  0.00  0.00     0.265 C 
ATOM     20  O   UNL d   1      25.174 -15.600  -3.562  0.00  0.00    -0.269 OA
ATOM     21  H   UNL d   1      25.941 -12.609  -2.894  0.00  0.00     0.190 HD
BRANCH  19  22
ATOM     22  C   UNL d   1      26.178 -14.794  -1.435  0.00  0.00     0.218 C 
ATOM     23  C   UNL d   1      27.496 -15.586  -1.642  0.00  0.00     0.050 C 
BRANCH  22  24
ATOM     24  O   UNL d   1      25.494 -15.351  -0.313  0.00  0.00    -0.335 OA
BRANCH  24  25
ATOM     25  C   UNL d   1      24.647 -16.428  -0.438  0.00  0.00     0.091 C 
ATOM     26  C   UNL d   1      23.390 -16.139  -0.997  0.00  0.00     0.040 C 
ATOM     27  C   UNL d   1      22.318 -17.049  -0.894  0.00  0.00     0.026 C 
ATOM     28  C   UNL d   1      22.481 -18.230  -0.185  0.00  0.00     0.035 C 
ATOM     29 CL   UNL d   1      21.228 -19.395  -0.039  0.00  0.00    -0.084 Cl
ATOM     30  C   UNL d   1      23.735 -18.566   0.271  0.00  0.00     0.050 C 
ATOM     31  C   UNL d   1      24.828 -17.741   0.005  0.00  0.00     0.069 C 
ATOM     32 CL   UNL d   1      26.339 -18.576   0.091  0.00  0.00    -0.081 Cl
ENDBRANCH  24  25
ENDBRANCH  22  24
ENDBRANCH  19  22
ENDBRANCH   1  18
TORSDOF 9
ENDMDL
MODEL 2
REMARK VINA RESULT:    -8.483      6.868      9.713
REMARK INTER + INTRA:         -13.006
REMARK INTER:                 -11.168
REMARK INTRA:                  -1.838
REMARK CONF_INDEPENDENT:        2.685
REMARK UNBOUND:                -1.838
REMARK  9 active torsions:
REMARK  status: ('A' for Active; 'I' for Inactive)
REMARK    1  A    between atoms: C_2  and  O_3 
REMARK    2  A    between atoms: O_3  and  C_4 
REMARK    3  A    between atoms: C_8  and  C_9 
REMARK       I    between atoms: C_9  and  N_11 
REMARK    4  A    between atoms: N_11  and  C_12 
REMARK    5  A    between atoms: C_12  and  N_14 
REMARK    6  A    between atoms: N_14  and  N_15 
REMARK       I    between atoms: N_15  and  C_16 
REMARK    7  A    between atoms: C_18  and  C_16 
REMARK    8  A    between atoms: C_18  and  O_20 
REMARK    9  A    between atoms: O_20  and  C_21 
ROOT
ATOM      1  N   UNL d   1      30.496 -14.151   1.668  0.00  0.00    -0.273 N 
ATOM      2  H   UNL d   1      30.721 -13.323   1.117  0.00  0.00     0.189 HD
ENDROOT
BRANCH   1   3
ATOM      3  C   UNL d   1      31.311 -14.704   2.688  0.00  0.00     0.193 C 
ATOM      4  S   UNL d   1      32.728 -15.534   2.333  0.00  0.00    -0.039 SA
BRANCH   3   5
ATOM      5  N   UNL d   1      30.809 -14.588   3.993  0.00  0.00    -0.298 N 
ATOM      6  C   UNL d   1      29.448 -14.326   4.336  0.00  0.00     0.258 C 
ATOM      7  O   UNL d   1      28.492 -14.670   3.663  0.00  0.00    -0.267 OA
ATOM      8  H   UNL d   1      31.512 -14.419   4.689  0.00  0.00     0.171 HD
BRANCH   6   9
ATOM      9  C   UNL d   1      29.116 -13.685   5.647  0.00  0.00     0.035 A 
ATOM     10  C   UNL d   1      28.548 -12.391   5.645  0.00  0.00     0.017 A 
ATOM     11  C   UNL d   1      28.131 -11.793   6.835  0.00  0.00     0.004 A 
ATOM     12  C   UNL d   1      28.335 -12.456   8.042  0.00  0.00     0.037 A 
ATOM     13  C   UNL d   1      28.908 -13.729   8.055  0.00  0.00     0.069 A 
ATOM     14  C   UNL d   1      29.295 -14.337   6.860  0.00  0.00     0.053 A 
BRANCH  13  15
ATOM     15  O   UNL d   1      28.949 -14.372   9.261  0.00  0.00    -0.351 OA
BRANCH  15  16
ATOM     16  C   UNL d   1      29.077 -13.523  10.404  0.00  0.00     0.171 C 
ATOM     17  C   UNL d   1      27.774 -13.571  11.173  0.00  0.00     0.034 C 
ENDBRANCH  15  16
ENDBRANCH  13  15
ENDBRANCH   6   9
ENDBRANCH   3   5
ENDBRANCH   1   3
BRANCH   1  18
ATOM     18  N   UNL d   1      29.416 -14.987   1.084  0.00  0.00    -0.266 N 
ATOM     19  C   UNL d   1      29.500 -15.464  -0.230  0.00  0.00     0.265 C 
ATOM     20  O   UNL d   1      30.170 -14.884  -1.088  0.00  0.00    -0.269 OA
ATOM     21  H   UNL d   1      29.058 -15.642   1.770  0.00  0.00     0.190 HD
BRANCH  19  22
ATOM     22  C   UNL d   1      28.741 -16.847  -0.555  0.00  0.00     0.218 C 
ATOM     23  C   UNL d   1      29.844 -17.880  -0.903  0.00  0.00     0.050 C 
BRANCH  22  24
ATOM     24  O   UNL d   1      27.691 -16.974  -1.515  0.00  0.00    -0.335 OA
BRANCH  24  25
ATOM     25  C   UNL d   1      26.370 -17.051  -1.142  0.00  0.00     0.091 C 
ATOM     26  C   UNL d   1      26.115 -17.829   0.001  0.00  0.00     0.040 C 
ATOM     27  C   UNL d   1      24.810 -18.262   0.313  0.00  0.00     0.026 C 
ATOM     28  C   UNL d   1      23.761 -17.967  -0.543  0.00  0.00     0.035 C 
ATOM     29 CL   UNL d   1      22.144 -18.440  -0.214  0.00  0.00    -0.084 Cl
ATOM     30  C   UNL d   1      23.984 -17.118  -1.603  0.00  0.00     0.050 C 
ATOM     31  C   UNL d   1      25.243 -16.548  -1.798  0.00  0.00     0.069 C 
ATOM     32 CL   UNL d   1      25.188 -15.100  -2.740  0.00  0.00    -0.081 Cl
ENDBRANCH  24  25
ENDBRANCH  22  24
ENDBRANCH  19  22
ENDBRANCH   1  18
TORSDOF 9
ENDMDL
MODEL 3
REMARK VINA RESULT:    -8.149      3.428      8.248
REMARK INTER + INTRA:         -12.996
REMARK INTER:                 -10.834
REMARK INTRA:                  -2.162
REMARK CONF_INDEPENDENT:        2.685
REMARK UNBOUND:                -2.162
REMARK  9 active torsions:
REMARK  status: ('A' for Active; 'I' for Inactive)
REMARK    1  A    between atoms: C_2  and  O_3 
REMARK    2  A    between atoms: O_3  and  C_4 
REMARK    3  A    between atoms: C_8  and  C_9 
REMARK       I    between atoms: C_9  and  N_11 
REMARK    4  A    between atoms: N_11  and  C_12 
REMARK    5  A    between atoms: C_12  and  N_14 
REMARK    6  A    between atoms: N_14  and  N_15 
REMARK       I    between atoms: N_15  and  C_16 
REMARK    7  A    between atoms: C_18  and  C_16 
REMARK    8  A    between atoms: C_18  and  O_20 
REMARK    9  A    between atoms: O_20  and  C_21 
ROOT
ATOM      1  N   UNL d   1      26.100 -14.760  -4.762  0.00  0.00    -0.273 N 
ATOM      2  H   UNL d   1      25.959 -14.693  -5.770  0.00  0.00     0.189 HD
ENDROOT
BRANCH   1   3
ATOM      3  C   UNL d   1      25.440 -13.969  -3.788  0.00  0.00     0.193 C 
ATOM      4  S   UNL d   1      25.526 -12.291  -3.806  0.00  0.00    -0.039 SA
BRANCH   3   5
ATOM      5  N   UNL d   1      24.792 -14.682  -2.767  0.00  0.00    -0.298 N 
ATOM      6  C   UNL d   1      25.434 -15.540  -1.823  0.00  0.00     0.258 C 
ATOM      7  O   UNL d   1      26.575 -15.391  -1.424  0.00  0.00    -0.267 OA
ATOM      8  H   UNL d   1      23.803 -14.784  -2.901  0.00  0.00     0.171 HD
BRANCH   6   9
ATOM      9  C   UNL d   1      24.662 -16.644  -1.170  0.00  0.00     0.035 A 
ATOM     10  C   UNL d   1      25.360 -17.583  -0.379  0.00  0.00     0.017 A 
ATOM     11  C   UNL d   1      24.674 -18.571   0.329  0.00  0.00     0.004 A 
ATOM     12  C   UNL d   1      23.291 -18.668   0.202  0.00  0.00     0.037 A 
ATOM     13  C   UNL d   1      22.594 -17.752  -0.589  0.00  0.00     0.069 A 
ATOM     14  C   UNL d   1      23.281 -16.746  -1.270  0.00  0.00     0.053 A 
BRANCH  13  15
ATOM     15  O   UNL d   1      21.228 -17.824  -0.554  0.00  0.00    -0.351 OA
BRANCH  15  16
ATOM     16  C   UNL d   1      20.670 -19.064  -0.996  0.00  0.00     0.171 C 
ATOM     17  C   UNL d   1      19.654 -19.514   0.033  0.00  0.00     0.034 C 
ENDBRANCH  15  16
ENDBRANCH  13  15
ENDBRANCH   6   9
ENDBRANCH   3   5
ENDBRANCH   1   3
BRANCH   1  18
ATOM     18  N   UNL d   1      27.334 -15.490  -4.374  0.00  0.00    -0.266 N 
ATOM     19  C   UNL d   1      28.486 -15.440  -5.168  0.00  0.00     0.265 C 
ATOM     20  O   UNL d   1      28.427 -15.214  -6.379  0.00  0.00    -0.269 OA
ATOM     21  H   UNL d   1      27.484 -15.434  -3.372  0.00  0.00     0.190 HD
BRANCH  19  22
ATOM     22  C   UNL d   1      29.899 -15.617  -4.417  0.00  0.00     0.218 C 
ATOM     23  C   UNL d   1      30.700 -14.315  -4.678  0.00  0.00     0.050 C 
BRANCH  22  24
ATOM     24  O   UNL d   1      30.774 -16.728  -4.618  0.00  0.00    -0.335 OA
BRANCH  24  25
ATOM     25  C   UNL d   1      30.800 -17.429  -5.802  0.00  0.00     0.091 C 
ATOM     26  C   UNL d   1      30.248 -18.720  -5.745  0.00  0.00     0.040 C 
ATOM     27  C   UNL d   1      30.487 -19.662  -6.766  0.00  0.00     0.026 C 
ATOM     28  C   UNL d   1      31.324 -19.337  -7.823  0.00  0.00     0.035 C 
ATOM     29 CL   UNL d   1      31.641 -20.424  -9.114  0.00  0.00    -0.084 Cl
ATOM     30  C   UNL d   1      31.779 -18.043  -7.939  0.00  0.00     0.050 C 
ATOM     31  C   UNL d   1      31.387 -17.071  -7.019  0.00  0.00     0.069 C 
ATOM     32 CL   UNL d   1      31.525 -15.463  -7.637  0.00  0.00    -0.081 Cl
ENDBRANCH  24  25
ENDBRANCH  22  24
ENDBRANCH  19  22
ENDBRANCH   1  18
TORSDOF 9
ENDMDL
MODEL 4
REMARK VINA RESULT:    -8.099      1.259      1.586
REMARK INTER + INTRA:         -12.990
REMARK INTER:                 -10.784
REMARK INTRA:                  -2.206
REMARK CONF_INDEPENDENT:        2.685
REMARK UNBOUND:                -2.206
REMARK  9 active torsions:
REMARK  status: ('A' for Active; 'I' for Inactive)
REMARK    1  A    between atoms: C_2  and  O_3 
REMARK    2  A    between atoms: O_3  and  C_4 
REMARK    3  A    between atoms: C_8  and  C_9 
REMARK       I    between atoms: C_9  and  N_11 
REMARK    4  A    between atoms: N_11  and  C_12 
REMARK    5  A    between atoms: C_12  and  N_14 
REMARK    6  A    between atoms: N_14  and  N_15 
REMARK       I    between atoms: N_15  and  C_16 
REMARK    7  A    between atoms: C_18  and  C_16 
REMARK    8  A    between atoms: C_18  and  O_20 
REMARK    9  A    between atoms: O_20  and  C_21 
ROOT
ATOM      1  N   UNL d   1      25.465 -12.260  -4.367  0.00  0.00    -0.273 N 
ATOM      2  H   UNL d   1      24.528 -11.980  -4.656  0.00  0.00     0.189 HD
ENDROOT
BRANCH   1   3
ATOM      3  C   UNL d   1      26.598 -12.331  -5.218  0.00  0.00     0.193 C 
ATOM      4  S   UNL d   1      26.899 -11.164  -6.389  0.00  0.00    -0.039 SA
BRANCH   3   5
ATOM      5  N   UNL d   1      27.390 -13.481  -5.075  0.00  0.00    -0.298 N 
ATOM      6  C   UNL d   1      28.793 -13.556  -5.337  0.00  0.00     0.258 C 
ATOM      7  O   UNL d   1      29.567 -12.624  -5.206  0.00  0.00    -0.267 OA
ATOM      8  H   UNL d   1      26.870 -14.338  -5.046  0.00  0.00     0.171 HD
BRANCH   6   9
ATOM      9  C   UNL d   1      29.418 -14.868  -5.694  0.00  0.00     0.035 A 
ATOM     10  C   UNL d   1      30.119 -14.975  -6.916  0.00  0.00     0.017 A 
ATOM     11  C   UNL d   1      30.802 -16.147  -7.247  0.00  0.00     0.004 A 
ATOM     12  C   UNL d   1      30.738 -17.241  -6.389  0.00  0.00     0.037 A 
ATOM     13  C   UNL d   1      30.036 -17.149  -5.186  0.00  0.00     0.069 A 
ATOM     14  C   UNL d   1      29.380 -15.965  -4.843  0.00  0.00     0.053 A 
BRANCH  13  15
ATOM     15  O   UNL d   1      30.134 -18.215  -4.334  0.00  0.00    -0.351 OA
BRANCH  15  16
ATOM     16  C   UNL d   1      31.077 -19.219  -4.716  0.00  0.00     0.171 C 
ATOM     17  C   UNL d   1      30.313 -20.489  -5.021  0.00  0.00     0.034 C 
ENDBRANCH  15  16
ENDBRANCH  13  15
ENDBRANCH   6   9
ENDBRANCH   3   5
ENDBRANCH   1   3
BRANCH   1  18
ATOM     18  N   UNL d   1      25.509 -12.962  -3.059  0.00  0.00    -0.266 N 
ATOM     19  C   UNL d   1      25.585 -14.358  -2.988  0.00  0.00     0.265 C 
ATOM     20  O   UNL d   1      25.169 -15.076  -3.901  0.00  0.00    -0.269 OA
ATOM     21  H   UNL d   1      26.085 -12.453  -2.398  0.00  0.00     0.190 HD
BRANCH  19  22
ATOM     22  C   UNL d   1      26.309 -14.985  -1.693  0.00  0.00     0.218 C 
ATOM     23  C   UNL d   1      27.159 -16.178  -2.203  0.00  0.00     0.050 C 
BRANCH  22  24
ATOM     24  O   UNL d   1      25.616 -15.400  -0.516  0.00  0.00    -0.335 OA
BRANCH  24  25
ATOM     25  C   UNL d   1      24.752 -16.471  -0.520  0.00  0.00     0.091 C 
ATOM     26  C   UNL d   1      23.497 -16.225  -1.101  0.00  0.00     0.040 C 
ATOM     27  C   UNL d   1      22.412 -17.102  -0.895  0.00  0.00     0.026 C 
ATOM     28  C   UNL d   1      22.562 -18.201  -0.063  0.00  0.00     0.035 C 
ATOM     29 CL   UNL d   1      21.293 -19.325   0.214  0.00  0.00    -0.084 Cl
ATOM     30  C   UNL d   1      23.814 -18.506   0.420  0.00  0.00     0.050 C 
ATOM     31  C   UNL d   1      24.917 -17.732   0.061  0.00  0.00     0.069 C 
ATOM     32 CL   UNL d   1      26.416 -18.575   0.230  0.00  0.00    -0.081 Cl
ENDBRANCH  24  25
ENDBRANCH  22  24
ENDBRANCH  19  22
ENDBRANCH   1  18
TORSDOF 9
ENDMDL
MODEL 5
REMARK VINA RESULT:    -7.967      2.730      7.065
REMARK INTER + INTRA:         -13.528
REMARK INTER:                 -10.651
REMARK INTRA:                  -2.877
REMARK CONF_INDEPENDENT:        2.685
REMARK UNBOUND:                -2.877
REMARK  9 active torsions:
REMARK  status: ('A' for Active; 'I' for Inactive)
REMARK    1  A    between atoms: C_2  and  O_3 
REMARK    2  A    between atoms: O_3  and  C_4 
REMARK    3  A    between atoms: C_8  and  C_9 
REMARK       I    between atoms: C_9  and  N_11 
REMARK    4  A    between atoms: N_11  and  C_12 
REMARK    5  A    between atoms: C_12  and  N_14 
REMARK    6  A    between atoms: N_14  and  N_15 
REMARK       I    between atoms: N_15  and  C_16 
REMARK    7  A    between atoms: C_18  and  C_16 
REMARK    8  A    between atoms: C_18  and  O_20 
REMARK    9  A    between atoms: O_20  and  C_21 
ROOT
ATOM      1  N   UNL d   1      25.552 -12.531  -4.076  0.00  0.00    -0.273 N 
ATOM      2  H   UNL d   1      24.780 -11.910  -4.315  0.00  0.00     0.189 HD
ENDROOT
BRANCH   1   3
ATOM      3  C   UNL d   1      26.179 -12.609  -2.807  0.00  0.00     0.193 C 
ATOM      4  S   UNL d   1      26.920 -11.276  -2.103  0.00  0.00    -0.039 SA
BRANCH   3   5
ATOM      5  N   UNL d   1      26.215 -13.887  -2.227  0.00  0.00    -0.298 N 
ATOM      6  C   UNL d   1      25.476 -15.022  -2.681  0.00  0.00     0.258 C 
ATOM      7  O   UNL d   1      25.155 -15.214  -3.841  0.00  0.00    -0.267 OA
ATOM      8  H   UNL d   1      26.577 -13.904  -1.292  0.00  0.00     0.171 HD
BRANCH   6   9
ATOM      9  C   UNL d   1      25.143 -16.128  -1.729  0.00  0.00     0.035 A 
ATOM     10  C   UNL d   1      26.197 -16.771  -1.042  0.00  0.00     0.017 A 
ATOM     11  C   UNL d   1      25.931 -17.740  -0.072  0.00  0.00     0.004 A 
ATOM     12  C   UNL d   1      24.614 -18.118   0.173  0.00  0.00     0.037 A 
ATOM     13  C   UNL d   1      23.567 -17.497  -0.512  0.00  0.00     0.069 A 
ATOM     14  C   UNL d   1      23.835 -16.507  -1.458  0.00  0.00     0.053 A 
BRANCH  13  15
ATOM     15  O   UNL d   1      22.297 -17.822  -0.118  0.00  0.00    -0.351 OA
BRANCH  15  16
ATOM     16  C   UNL d   1      21.657 -18.837  -0.895  0.00  0.00     0.171 C 
ATOM     17  C   UNL d   1      20.449 -19.325  -0.125  0.00  0.00     0.034 C 
ENDBRANCH  15  16
ENDBRANCH  13  15
ENDBRANCH   6   9
ENDBRANCH   3   5
ENDBRANCH   1   3
BRANCH   1  18
ATOM     18  N   UNL d   1      26.252 -13.102  -5.256  0.00  0.00    -0.266 N 
ATOM     19  C   UNL d   1      27.393 -12.489  -5.788  0.00  0.00     0.265 C 
ATOM     20  O   UNL d   1      27.605 -11.283  -5.647  0.00  0.00    -0.269 OA
ATOM     21  H   UNL d   1      26.278 -14.115  -5.201  0.00  0.00     0.190 HD
BRANCH  19  22
ATOM     22  C   UNL d   1      28.456 -13.445  -6.531  0.00  0.00     0.218 C 
ATOM     23  C   UNL d   1      28.535 -12.951  -7.999  0.00  0.00     0.050 C 
BRANCH  22  24
ATOM     24  O   UNL d   1      28.374 -14.870  -6.542  0.00  0.00    -0.335 OA
BRANCH  24  25
ATOM     25  C   UNL d   1      28.884 -15.636  -5.519  0.00  0.00     0.091 C 
ATOM     26  C   UNL d   1      28.168 -15.575  -4.312  0.00  0.00     0.040 C 
ATOM     27  C   UNL d   1      28.731 -16.035  -3.104  0.00  0.00     0.026 C 
ATOM     28  C   UNL d   1      30.034 -16.508  -3.086  0.00  0.00     0.035 C 
ATOM     29 CL   UNL d   1      30.776 -17.107  -1.658  0.00  0.00    -0.084 Cl
ATOM     30  C   UNL d   1      30.700 -16.670  -4.279  0.00  0.00     0.050 C 
ATOM     31  C   UNL d   1      30.066 -16.381  -5.487  0.00  0.00     0.069 C 
ATOM     32 CL   UNL d   1      30.780 -17.195  -6.835  0.00  0.00    -0.081 Cl
ENDBRANCH  24  25
ENDBRANCH  22  24
ENDBRANCH  19  22
ENDBRANCH   1  18
TORSDOF 9
ENDMDL
MODEL 6
REMARK VINA RESULT:    -7.173      1.753      3.022
REMARK INTER + INTRA:         -12.804
REMARK INTER:                  -9.857
REMARK INTRA:                  -2.947
REMARK CONF_INDEPENDENT:        2.685
REMARK UNBOUND:                -2.947
REMARK  9 active torsions:
REMARK  status: ('A' for Active; 'I' for Inactive)
REMARK    1  A    between atoms: C_2  and  O_3 
REMARK    2  A    between atoms: O_3  and  C_4 
REMARK    3  A    between atoms: C_8  and  C_9 
REMARK       I    between atoms: C_9  and  N_11 
REMARK    4  A    between atoms: N_11  and  C_12 
REMARK    5  A    between atoms: C_12  and  N_14 
REMARK    6  A    between atoms: N_14  and  N_15 
REMARK       I    between atoms: N_15  and  C_16 
REMARK    7  A    between atoms: C_18  and  C_16 
REMARK    8  A    between atoms: C_18  and  O_20 
REMARK    9  A    between atoms: O_20  and  C_21 
ROOT
ATOM      1  N   UNL d   1      25.625 -12.422  -4.130  0.00  0.00    -0.273 N 
ATOM      2  H   UNL d   1      24.701 -12.004  -4.234  0.00  0.00     0.189 HD
ENDROOT
BRANCH   1   3
ATOM      3  C   UNL d   1      26.665 -12.363  -5.093  0.00  0.00     0.193 C 
ATOM      4  S   UNL d   1      26.554 -11.385  -6.455  0.00  0.00    -0.039 SA
BRANCH   3   5
ATOM      5  N   UNL d   1      27.741 -13.238  -4.876  0.00  0.00    -0.298 N 
ATOM      6  C   UNL d   1      27.719 -14.648  -5.105  0.00  0.00     0.258 C 
ATOM      7  O   UNL d   1      27.036 -15.196  -5.952  0.00  0.00    -0.267 OA
ATOM      8  H   UNL d   1      28.457 -12.868  -4.279  0.00  0.00     0.171 HD
BRANCH   6   9
ATOM      9  C   UNL d   1      28.656 -15.542  -4.355  0.00  0.00     0.035 A 
ATOM     10  C   UNL d   1      29.318 -16.573  -5.058  0.00  0.00     0.017 A 
ATOM     11  C   UNL d   1      30.275 -17.369  -4.426  0.00  0.00     0.004 A 
ATOM     12  C   UNL d   1      30.530 -17.184  -3.070  0.00  0.00     0.037 A 
ATOM     13  C   UNL d   1      29.870 -16.176  -2.364  0.00  0.00     0.069 A 
ATOM     14  C   UNL d   1      28.937 -15.361  -3.007  0.00  0.00     0.053 A 
BRANCH  13  15
ATOM     15  O   UNL d   1      30.274 -15.965  -1.074  0.00  0.00    -0.351 OA
BRANCH  15  16
ATOM     16  C   UNL d   1      29.255 -16.108  -0.082  0.00  0.00     0.171 C 
ATOM     17  C   UNL d   1      29.476 -15.048   0.976  0.00  0.00     0.034 C 
ENDBRANCH  15  16
ENDBRANCH  13  15
ENDBRANCH   6   9
ENDBRANCH   3   5
ENDBRANCH   1   3
BRANCH   1  18
ATOM     18  N   UNL d   1      25.710 -13.436  -3.048  0.00  0.00    -0.266 N 
ATOM     19  C   UNL d   1      26.667 -13.333  -2.032  0.00  0.00     0.265 C 
ATOM     20  O   UNL d   1      27.729 -12.728  -2.202  0.00  0.00    -0.269 OA
ATOM     21  H   UNL d   1      24.783 -13.726  -2.755  0.00  0.00     0.190 HD
BRANCH  19  22
ATOM     22  C   UNL d   1      26.290 -13.977  -0.605  0.00  0.00     0.218 C 
ATOM     23  C   UNL d   1      26.922 -13.055   0.471  0.00  0.00     0.050 C 
BRANCH  22  24
ATOM     24  O   UNL d   1      26.560 -15.332  -0.246  0.00  0.00    -0.335 OA
BRANCH  24  25
ATOM     25  C   UNL d   1      25.639 -16.335  -0.448  0.00  0.00     0.091 C 
ATOM     26  C   UNL d   1      24.533 -15.982  -1.240  0.00  0.00     0.040 C 
ATOM     27  C   UNL d   1      23.371 -16.778  -1.268  0.00  0.00     0.026 C 
ATOM     28  C   UNL d   1      23.285 -17.904  -0.463  0.00  0.00     0.035 C 
ATOM     29 CL   UNL d   1      21.912 -18.934  -0.465  0.00  0.00    -0.084 Cl
ATOM     30  C   UNL d   1      24.401 -18.313   0.231  0.00  0.00     0.050 C 
ATOM     31  C   UNL d   1      25.604 -17.617   0.108  0.00  0.00     0.069 C 
ATOM     32 CL   UNL d   1      26.982 -18.575   0.519  0.00  0.00    -0.081 Cl
ENDBRANCH  24  25
ENDBRANCH  22  24
ENDBRANCH  19  22
ENDBRANCH   1  18
TORSDOF 9
ENDMDL
MODEL 7
REMARK VINA RESULT:    -7.168      2.389      6.938
REMARK INTER + INTRA:         -12.867
REMARK INTER:                  -9.853
REMARK INTRA:                  -3.015
REMARK CONF_INDEPENDENT:        2.685
REMARK UNBOUND:                -3.015
REMARK  9 active torsions:
REMARK  status: ('A' for Active; 'I' for Inactive)
REMARK    1  A    between atoms: C_2  and  O_3 
REMARK    2  A    between atoms: O_3  and  C_4 
REMARK    3  A    between atoms: C_8  and  C_9 
REMARK       I    between atoms: C_9  and  N_11 
REMARK    4  A    between atoms: N_11  and  C_12 
REMARK    5  A    between atoms: C_12  and  N_14 
REMARK    6  A    between atoms: N_14  and  N_15 
REMARK       I    between atoms: N_15  and  C_16 
REMARK    7  A    between atoms: C_18  and  C_16 
REMARK    8  A    between atoms: C_18  and  O_20 
REMARK    9  A    between atoms: O_20  and  C_21 
ROOT
ATOM      1  N   UNL d   1      25.988 -14.426  -4.562  0.00  0.00    -0.273 N 
ATOM      2  H   UNL d   1      25.974 -14.165  -5.547  0.00  0.00     0.189 HD
ENDROOT
BRANCH   1   3
ATOM      3  C   UNL d   1      25.347 -13.713  -3.517  0.00  0.00     0.193 C 
ATOM      4  S   UNL d   1      25.515 -12.049  -3.349  0.00  0.00    -0.039 SA
BRANCH   3   5
ATOM      5  N   UNL d   1      24.645 -14.498  -2.590  0.00  0.00    -0.298 N 
ATOM      6  C   UNL d   1      25.239 -15.376  -1.632  0.00  0.00     0.258 C 
ATOM      7  O   UNL d   1      26.335 -15.202  -1.128  0.00  0.00    -0.267 OA
ATOM      8  H   UNL d   1      23.677 -14.632  -2.814  0.00  0.00     0.171 HD
BRANCH   6   9
ATOM      9  C   UNL d   1      24.462 -16.539  -1.099  0.00  0.00     0.035 A 
ATOM     10  C   UNL d   1      25.144 -17.525  -0.351  0.00  0.00     0.017 A 
ATOM     11  C   UNL d   1      24.447 -18.575   0.249  0.00  0.00     0.004 A 
ATOM     12  C   UNL d   1      23.074 -18.684   0.053  0.00  0.00     0.037 A 
ATOM     13  C   UNL d   1      22.393 -17.722  -0.697  0.00  0.00     0.069 A 
ATOM     14  C   UNL d   1      23.089 -16.656  -1.269  0.00  0.00     0.053 A 
BRANCH  13  15
ATOM     15  O   UNL d   1      21.029 -17.820  -0.729  0.00  0.00    -0.351 OA
BRANCH  15  16
ATOM     16  C   UNL d   1      20.513 -19.147  -0.845  0.00  0.00     0.171 C 
ATOM     17  C   UNL d   1      20.127 -19.624   0.539  0.00  0.00     0.034 C 
ENDBRANCH  15  16
ENDBRANCH  13  15
ENDBRANCH   6   9
ENDBRANCH   3   5
ENDBRANCH   1   3
BRANCH   1  18
ATOM     18  N   UNL d   1      27.045 -15.410  -4.213  0.00  0.00    -0.266 N 
ATOM     19  C   UNL d   1      28.195 -15.545  -4.999  0.00  0.00     0.265 C 
ATOM     20  O   UNL d   1      28.201 -15.243  -6.195  0.00  0.00    -0.269 OA
ATOM     21  H   UNL d   1      27.187 -15.442  -3.210  0.00  0.00     0.190 HD
BRANCH  19  22
ATOM     22  C   UNL d   1      29.533 -16.046  -4.255  0.00  0.00     0.218 C 
ATOM     23  C   UNL d   1      30.199 -17.079  -5.202  0.00  0.00     0.050 C 
BRANCH  22  24
ATOM     24  O   UNL d   1      29.557 -16.574  -2.929  0.00  0.00    -0.335 OA
BRANCH  24  25
ATOM     25  C   UNL d   1      29.121 -15.844  -1.847  0.00  0.00     0.091 C 
ATOM     26  C   UNL d   1      29.066 -14.454  -2.046  0.00  0.00     0.040 C 
ATOM     27  C   UNL d   1      28.954 -13.565  -0.959  0.00  0.00     0.026 C 
ATOM     28  C   UNL d   1      28.951 -14.056   0.338  0.00  0.00     0.035 C 
ATOM     29 CL   UNL d   1      28.792 -13.035   1.709  0.00  0.00    -0.084 Cl
ATOM     30  C   UNL d   1      28.896 -15.417   0.534  0.00  0.00     0.050 C 
ATOM     31  C   UNL d   1      28.823 -16.286  -0.555  0.00  0.00     0.069 C 
ATOM     32 CL   UNL d   1      28.158 -17.827  -0.145  0.00  0.00    -0.081 Cl
ENDBRANCH  24  25
ENDBRANCH  22  24
ENDBRANCH  19  22
ENDBRANCH   1  18
TORSDOF 9
ENDMDL
MODEL 8
REMARK VINA RESULT:    -7.077      3.988      6.763
REMARK INTER + INTRA:         -12.771
REMARK INTER:                  -9.762
REMARK INTRA:                  -3.009
REMARK CONF_INDEPENDENT:        2.685
REMARK UNBOUND:                -3.009
REMARK  9 active torsions:
REMARK  status: ('A' for Active; 'I' for Inactive)
REMARK    1  A    between atoms: C_2  and  O_3 
REMARK    2  A    between atoms: O_3  and  C_4 
REMARK    3  A    between atoms: C_8  and  C_9 
REMARK       I    between atoms: C_9  and  N_11 
REMARK    4  A    between atoms: N_11  and  C_12 
REMARK    5  A    between atoms: C_12  and  N_14 
REMARK    6  A    between atoms: N_14  and  N_15 
REMARK       I    between atoms: N_15  and  C_16 
REMARK    7  A    between atoms: C_18  and  C_16 
REMARK    8  A    between atoms: C_18  and  O_20 
REMARK    9  A    between atoms: O_20  and  C_21 
ROOT
ATOM      1  N   UNL d   1      26.332 -12.898  -4.191  0.00  0.00    -0.273 N 
ATOM      2  H   UNL d   1      25.667 -12.213  -4.549  0.00  0.00     0.189 HD
ENDROOT
BRANCH   1   3
ATOM      3  C   UNL d   1      26.256 -14.299  -4.398  0.00  0.00     0.193 C 
ATOM      4  S   UNL d   1      27.029 -15.045  -5.689  0.00  0.00    -0.039 SA
BRANCH   3   5
ATOM      5  N   UNL d   1      25.424 -14.997  -3.508  0.00  0.00    -0.298 N 
ATOM      6  C   UNL d   1      25.612 -15.083  -2.095  0.00  0.00     0.258 C 
ATOM      7  O   UNL d   1      26.135 -14.216  -1.418  0.00  0.00    -0.267 OA
ATOM      8  H   UNL d   1      24.834 -15.679  -3.948  0.00  0.00     0.171 HD
BRANCH   6   9
ATOM      9  C   UNL d   1      25.051 -16.245  -1.335  0.00  0.00     0.035 A 
ATOM     10  C   UNL d   1      25.934 -17.053  -0.584  0.00  0.00     0.017 A 
ATOM     11  C   UNL d   1      25.448 -18.086   0.219  0.00  0.00     0.004 A 
ATOM     12  C   UNL d   1      24.083 -18.359   0.229  0.00  0.00     0.037 A 
ATOM     13  C   UNL d   1      23.205 -17.574  -0.521  0.00  0.00     0.069 A 
ATOM     14  C   UNL d   1      23.691 -16.522  -1.298  0.00  0.00     0.053 A 
BRANCH  13  15
ATOM     15  O   UNL d   1      21.868 -17.815  -0.352  0.00  0.00    -0.351 OA
BRANCH  15  16
ATOM     16  C   UNL d   1      21.478 -19.188  -0.436  0.00  0.00     0.171 C 
ATOM     17  C   UNL d   1      19.996 -19.237  -0.739  0.00  0.00     0.034 C 
ENDBRANCH  15  16
ENDBRANCH  13  15
ENDBRANCH   6   9
ENDBRANCH   3   5
ENDBRANCH   1   3
BRANCH   1  18
ATOM     18  N   UNL d   1      27.203 -12.381  -3.105  0.00  0.00    -0.266 N 
ATOM     19  C   UNL d   1      26.840 -11.254  -2.360  0.00  0.00     0.265 C 
ATOM     20  O   UNL d   1      26.086 -10.391  -2.816  0.00  0.00    -0.269 OA
ATOM     21  H   UNL d   1      27.614 -13.146  -2.580  0.00  0.00     0.190 HD
BRANCH  19  22
ATOM     22  C   UNL d   1      27.391 -11.169  -0.848  0.00  0.00     0.218 C 
ATOM     23  C   UNL d   1      27.992  -9.749  -0.682  0.00  0.00     0.050 C 
BRANCH  22  24
ATOM     24  O   UNL d   1      28.302 -12.109  -0.278  0.00  0.00    -0.335 OA
BRANCH  24  25
ATOM     25  C   UNL d   1      27.991 -12.829   0.852  0.00  0.00     0.091 C 
ATOM     26  C   UNL d   1      27.169 -12.164   1.778  0.00  0.00     0.040 C 
ATOM     27  C   UNL d   1      27.032 -12.632   3.101  0.00  0.00     0.026 C 
ATOM     28  C   UNL d   1      27.758 -13.736   3.522  0.00  0.00     0.035 C 
ATOM     29 CL   UNL d   1      27.622 -14.376   5.109  0.00  0.00    -0.084 Cl
ATOM     30  C   UNL d   1      28.479 -14.452   2.594  0.00  0.00     0.050 C 
ATOM     31  C   UNL d   1      28.461 -14.084   1.248  0.00  0.00     0.069 C 
ATOM     32 CL   UNL d   1      28.878 -15.384   0.189  0.00  0.00    -0.081 Cl
ENDBRANCH  24  25
ENDBRANCH  22  24
ENDBRANCH  19  22
ENDBRANCH   1  18
TORSDOF 9
ENDMDL
MODEL 9
REMARK VINA RESULT:    -6.815      3.026      7.180
REMARK INTER + INTRA:         -12.782
REMARK INTER:                  -9.500
REMARK INTRA:                  -3.282
REMARK CONF_INDEPENDENT:        2.685
REMARK UNBOUND:                -3.282
REMARK  9 active torsions:
REMARK  status: ('A' for Active; 'I' for Inactive)
REMARK    1  A    between atoms: C_2  and  O_3 
REMARK    2  A    between atoms: O_3  and  C_4 
REMARK    3  A    between atoms: C_8  and  C_9 
REMARK       I    between atoms: C_9  and  N_11 
REMARK    4  A    between atoms: N_11  and  C_12 
REMARK    5  A    between atoms: C_12  and  N_14 
REMARK    6  A    between atoms: N_14  and  N_15 
REMARK       I    between atoms: N_15  and  C_16 
REMARK    7  A    between atoms: C_18  and  C_16 
REMARK    8  A    between atoms: C_18  and  O_20 
REMARK    9  A    between atoms: O_20  and  C_21 
ROOT
ATOM      1  N   UNL d   1      29.610 -13.604  -1.894  0.00  0.00    -0.273 N 
ATOM      2  H   UNL d   1      30.453 -13.740  -1.338  0.00  0.00     0.189 HD
ENDROOT
BRANCH   1   3
ATOM      3  C   UNL d   1      28.352 -13.188  -1.388  0.00  0.00     0.193 C 
ATOM      4  S   UNL d   1      28.134 -11.671  -0.700  0.00  0.00    -0.039 SA
BRANCH   3   5
ATOM      5  N   UNL d   1      27.337 -14.157  -1.420  0.00  0.00    -0.298 N 
ATOM      6  C   UNL d   1      26.580 -14.599  -0.293  0.00  0.00     0.258 C 
ATOM      7  O   UNL d   1      26.319 -13.906   0.675  0.00  0.00    -0.267 OA
ATOM      8  H   UNL d   1      27.351 -14.740  -2.237  0.00  0.00     0.171 HD
BRANCH   6   9
ATOM      9  C   UNL d   1      25.953 -15.959  -0.299  0.00  0.00     0.035 A 
ATOM     10  C   UNL d   1      26.722 -17.062   0.133  0.00  0.00     0.017 A 
ATOM     11  C   UNL d   1      26.152 -18.332   0.239  0.00  0.00     0.004 A 
ATOM     12  C   UNL d   1      24.828 -18.521  -0.146  0.00  0.00     0.037 A 
ATOM     13  C   UNL d   1      24.064 -17.439  -0.587  0.00  0.00     0.069 A 
ATOM     14  C   UNL d   1      24.628 -16.164  -0.662  0.00  0.00     0.053 A 
BRANCH  13  15
ATOM     15  O   UNL d   1      22.736 -17.676  -0.815  0.00  0.00    -0.351 OA
BRANCH  15  16
ATOM     16  C   UNL d   1      22.218 -18.871  -0.226  0.00  0.00     0.171 C 
ATOM     17  C   UNL d   1      20.872 -19.158  -0.854  0.00  0.00     0.034 C 
ENDBRANCH  15  16
ENDBRANCH  13  15
ENDBRANCH   6   9
ENDBRANCH   3   5
ENDBRANCH   1   3
BRANCH   1  18
ATOM     18  N   UNL d   1      29.667 -14.233  -3.239  0.00  0.00    -0.266 N 
ATOM     19  C   UNL d   1      29.037 -15.456  -3.493  0.00  0.00     0.265 C 
ATOM     20  O   UNL d   1      28.822 -16.273  -2.594  0.00  0.00    -0.269 OA
ATOM     21  H   UNL d   1      29.583 -13.531  -3.967  0.00  0.00     0.190 HD
BRANCH  19  22
ATOM     22  C   UNL d   1      28.538 -15.721  -5.002  0.00  0.00     0.218 C 
ATOM     23  C   UNL d   1      29.705 -15.295  -5.930  0.00  0.00     0.050 C 
BRANCH  22  24
ATOM     24  O   UNL d   1      27.323 -15.199  -5.542  0.00  0.00    -0.335 OA
BRANCH  24  25
ATOM     25  C   UNL d   1      26.878 -13.933  -5.240  0.00  0.00     0.091 C 
ATOM     26  C   UNL d   1      27.403 -12.906  -6.042  0.00  0.00     0.040 C 
ATOM     27  C   UNL d   1      27.298 -11.554  -5.659  0.00  0.00     0.026 C 
ATOM     28  C   UNL d   1      26.717 -11.223  -4.444  0.00  0.00     0.035 C 
ATOM     29 CL   UNL d   1      26.533  -9.597  -3.924  0.00  0.00    -0.084 Cl
ATOM     30  C   UNL d   1      26.107 -12.212  -3.706  0.00  0.00     0.050 C 
ATOM     31  C   UNL d   1      26.058 -13.522  -4.185  0.00  0.00     0.069 C 
ATOM     32 CL   UNL d   1      24.781 -14.449  -3.481  0.00  0.00    -0.081 Cl
ENDBRANCH  24  25
ENDBRANCH  22  24
ENDBRANCH  19  22
ENDBRANCH   1  18
TORSDOF 9
ENDMDL
