MODEL 1
REMARK VINA RESULT:    -7.148      0.000      0.000
REMARK INTER + INTRA:         -10.567
REMARK INTER:                  -8.640
REMARK INTRA:                  -1.928
REMARK CONF_INDEPENDENT:        1.492
REMARK UNBOUND:                -1.928
REMARK  5 active torsions:
REMARK  status: ('A' for Active; 'I' for Inactive)
REMARK    1  A    between atoms: C_2  and  C_4 
REMARK    2  A    between atoms: C_4  and  N_5 
REMARK    3  A    between atoms: C_4  and  C_14 
REMARK       I    between atoms: N_5  and  C_6 
REMARK    4  A    between atoms: C_6  and  C_8 
REMARK       I    between atoms: C_14  and  N_16 
REMARK    5  A    between atoms: N_16  and  C_17 
ROOT
ATOM      1  C   UNL d   1      29.637 -16.536  -5.213  0.00  0.00     0.055 A 
ATOM      2  C   UNL d   1      30.030 -17.846  -4.897  0.00  0.00     0.031 A 
ATOM      3  C   UNL d   1      30.900 -18.553  -5.742  0.00  0.00     0.002 A 
ATOM      4  C   UNL d   1      31.336 -17.986  -6.937  0.00  0.00     0.002 A 
ATOM      5  C   UNL d   1      30.945 -16.692  -7.269  0.00  0.00     0.025 A 
ATOM      6  C   UNL d   1      30.098 -15.963  -6.421  0.00  0.00     0.071 A 
ATOM      7  C   UNL d   1      29.805 -14.613  -6.799  0.00  0.00     0.102 C 
ATOM      8  N   UNL d   1      29.583 -13.507  -7.100  0.00  0.00    -0.191 NA
ENDROOT
BRANCH   1   9
ATOM      9  N   UNL d   1      28.831 -15.803  -4.287  0.00  0.00    -0.324 N 
ATOM     10  C   UNL d   1      27.620 -15.250  -4.684  0.00  0.00     0.245 C 
ATOM     11  O   UNL d   1      27.120 -15.557  -5.770  0.00  0.00    -0.271 OA
ATOM     12  H   UNL d   1      29.060 -15.848  -3.302  0.00  0.00     0.169 HD
BRANCH  10  13
ATOM     13  C   UNL d   1      26.872 -14.309  -3.685  0.00  0.00     0.180 C 
BRANCH  13  14
ATOM     14  C   UNL d   1      26.119 -13.227  -4.529  0.00  0.00     0.009 C 
ATOM     15  C   UNL d   1      25.530 -12.088  -3.705  0.00  0.00     0.012 C 
ATOM     16  C   UNL d   1      27.032 -12.565  -5.567  0.00  0.00     0.012 C 
ENDBRANCH  13  14
BRANCH  13  17
ATOM     17  N   UNL d   1      25.951 -15.132  -2.879  0.00  0.00    -0.343 N 
ATOM     18  C   UNL d   1      26.368 -16.155  -2.040  0.00  0.00     0.252 C 
ATOM     19  O   UNL d   1      27.481 -16.660  -2.013  0.00  0.00    -0.268 OA
ATOM     20  H   UNL d   1      24.976 -14.857  -2.859  0.00  0.00     0.163 HD
BRANCH  18  21
ATOM     21  C   UNL d   1      25.342 -16.758  -1.178  0.00  0.00     0.032 A 
ATOM     22  C   UNL d   1      25.589 -17.845  -0.323  0.00  0.00     0.017 A 
ATOM     23  C   UNL d   1      24.500 -18.528   0.229  0.00  0.00     0.001 A 
ATOM     24  C   UNL d   1      23.200 -18.074  -0.011  0.00  0.00     0.000 A 
ATOM     25  C   UNL d   1      22.976 -16.989  -0.856  0.00  0.00     0.001 A 
ATOM     26  C   UNL d   1      24.045 -16.338  -1.447  0.00  0.00     0.017 A 
ENDBRANCH  18  21
ENDBRANCH  13  17
ENDBRANCH  10  13
ENDBRANCH   1   9
TORSDOF 5
ENDMDL
MODEL 2
REMARK VINA RESULT:    -7.056      1.792      6.997
REMARK INTER + INTRA:          -9.882
REMARK INTER:                  -8.548
REMARK INTRA:                  -1.334
REMARK CONF_INDEPENDENT:        1.492
REMARK UNBOUND:                -1.334
REMARK  5 active torsions:
REMARK  status: ('A' for Active; 'I' for Inactive)
REMARK    1  A    between atoms: C_2  and  C_4 
REMARK    2  A    between atoms: C_4  and  N_5 
REMARK    3  A    between atoms: C_4  and  C_14 
REMARK       I    between atoms: N_5  and  C_6 
REMARK    4  A    between atoms: C_6  and  C_8 
REMARK       I    between atoms: C_14  and  N_16 
REMARK    5  A    between atoms: N_16  and  C_17 
ROOT
ATOM      1  C   UNL d   1      24.545 -16.528  -0.963  0.00  0.00     0.055 A 
ATOM      2  C   UNL d   1      23.176 -16.306  -1.181  0.00  0.00     0.031 A 
ATOM      3  C   UNL d   1      22.232 -17.291  -0.849  0.00  0.00     0.002 A 
ATOM      4  C   UNL d   1      22.647 -18.526  -0.356  0.00  0.00     0.002 A 
ATOM      5  C   UNL d   1      24.002 -18.764  -0.145  0.00  0.00     0.025 A 
ATOM      6  C   UNL d   1      24.955 -17.778  -0.446  0.00  0.00     0.071 A 
ATOM      7  C   UNL d   1      26.320 -18.075  -0.129  0.00  0.00     0.102 C 
ATOM      8  N   UNL d   1      27.428 -18.313   0.147  0.00  0.00    -0.191 NA
ENDROOT
BRANCH   1   9
ATOM      9  N   UNL d   1      25.474 -15.472  -1.216  0.00  0.00    -0.324 N 
ATOM     10  C   UNL d   1      25.604 -14.930  -2.489  0.00  0.00     0.245 C 
ATOM     11  O   UNL d   1      24.780 -15.200  -3.368  0.00  0.00    -0.271 OA
ATOM     12  H   UNL d   1      25.900 -15.000  -0.427  0.00  0.00     0.169 HD
BRANCH  10  13
ATOM     13  C   UNL d   1      26.759 -13.910  -2.746  0.00  0.00     0.180 C 
BRANCH  13  14
ATOM     14  C   UNL d   1      27.166 -13.298  -1.364  0.00  0.00     0.009 C 
ATOM     15  C   UNL d   1      28.277 -14.055  -0.647  0.00  0.00     0.012 C 
ATOM     16  C   UNL d   1      27.660 -11.853  -1.496  0.00  0.00     0.012 C 
ENDBRANCH  13  14
BRANCH  13  17
ATOM     17  N   UNL d   1      27.873 -14.630  -3.391  0.00  0.00    -0.343 N 
ATOM     18  C   UNL d   1      27.831 -15.105  -4.693  0.00  0.00     0.252 C 
ATOM     19  O   UNL d   1      26.835 -15.200  -5.396  0.00  0.00    -0.268 OA
ATOM     20  H   UNL d   1      28.751 -14.678  -2.886  0.00  0.00     0.163 HD
BRANCH  18  21
ATOM     21  C   UNL d   1      29.085 -15.642  -5.238  0.00  0.00     0.032 A 
ATOM     22  C   UNL d   1      29.584 -15.307  -6.508  0.00  0.00     0.017 A 
ATOM     23  C   UNL d   1      30.614 -16.082  -7.052  0.00  0.00     0.001 A 
ATOM     24  C   UNL d   1      31.179 -17.115  -6.300  0.00  0.00     0.000 A 
ATOM     25  C   UNL d   1      30.675 -17.427  -5.039  0.00  0.00     0.001 A 
ATOM     26  C   UNL d   1      29.622 -16.698  -4.513  0.00  0.00     0.017 A 
ENDBRANCH  18  21
ENDBRANCH  13  17
ENDBRANCH  10  13
ENDBRANCH   1   9
TORSDOF 5
ENDMDL
MODEL 3
REMARK VINA RESULT:    -7.041      2.811      7.552
REMARK INTER + INTRA:          -9.925
REMARK INTER:                  -8.532
REMARK INTRA:                  -1.392
REMARK CONF_INDEPENDENT:        1.492
REMARK UNBOUND:                -1.392
REMARK  5 active torsions:
REMARK  status: ('A' for Active; 'I' for Inactive)
REMARK    1  A    between atoms: C_2  and  C_4 
REMARK    2  A    between atoms: C_4  and  N_5 
REMARK    3  A    between atoms: C_4  and  C_14 
REMARK       I    between atoms: N_5  and  C_6 
REMARK    4  A    between atoms: C_6  and  C_8 
REMARK       I    between atoms: C_14  and  N_16 
REMARK    5  A    between atoms: N_16  and  C_17 
ROOT
ATOM      1  C   UNL d   1      24.644 -16.333  -1.181  0.00  0.00     0.055 A 
ATOM      2  C   UNL d   1      23.270 -16.059  -1.271  0.00  0.00     0.031 A 
ATOM      3  C   UNL d   1      22.332 -16.912  -0.667  0.00  0.00     0.002 A 
ATOM      4  C   UNL d   1      22.749 -18.074  -0.023  0.00  0.00     0.002 A 
ATOM      5  C   UNL d   1      24.108 -18.364   0.065  0.00  0.00     0.025 A 
ATOM      6  C   UNL d   1      25.059 -17.506  -0.510  0.00  0.00     0.071 A 
ATOM      7  C   UNL d   1      26.438 -17.837  -0.310  0.00  0.00     0.102 C 
ATOM      8  N   UNL d   1      27.561 -18.100  -0.130  0.00  0.00    -0.191 NA
ENDROOT
BRANCH   1   9
ATOM      9  N   UNL d   1      25.581 -15.396  -1.718  0.00  0.00    -0.324 N 
ATOM     10  C   UNL d   1      25.223 -14.556  -2.764  0.00  0.00     0.245 C 
ATOM     11  O   UNL d   1      24.041 -14.453  -3.105  0.00  0.00    -0.271 OA
ATOM     12  H   UNL d   1      26.441 -15.224  -1.211  0.00  0.00     0.169 HD
BRANCH  10  13
ATOM     13  C   UNL d   1      26.337 -13.685  -3.430  0.00  0.00     0.180 C 
BRANCH  13  14
ATOM     14  C   UNL d   1      26.887 -14.482  -4.661  0.00  0.00     0.009 C 
ATOM     15  C   UNL d   1      28.204 -15.202  -4.403  0.00  0.00     0.012 C 
ATOM     16  C   UNL d   1      25.906 -15.558  -5.138  0.00  0.00     0.012 C 
ENDBRANCH  13  14
BRANCH  13  17
ATOM     17  N   UNL d   1      25.740 -12.394  -3.820  0.00  0.00    -0.343 N 
ATOM     18  C   UNL d   1      26.479 -11.313  -4.279  0.00  0.00     0.252 C 
ATOM     19  O   UNL d   1      27.694 -11.189  -4.218  0.00  0.00    -0.268 OA
ATOM     20  H   UNL d   1      24.730 -12.339  -3.856  0.00  0.00     0.163 HD
BRANCH  18  21
ATOM     21  C   UNL d   1      25.717 -10.165  -4.790  0.00  0.00     0.032 A 
ATOM     22  C   UNL d   1      25.611  -9.852  -6.155  0.00  0.00     0.017 A 
ATOM     23  C   UNL d   1      25.119  -8.594  -6.520  0.00  0.00     0.001 A 
ATOM     24  C   UNL d   1      24.672  -7.709  -5.536  0.00  0.00     0.000 A 
ATOM     25  C   UNL d   1      24.780  -8.041  -4.186  0.00  0.00     0.001 A 
ATOM     26  C   UNL d   1      25.312  -9.264  -3.814  0.00  0.00     0.017 A 
ENDBRANCH  18  21
ENDBRANCH  13  17
ENDBRANCH  10  13
ENDBRANCH   1   9
TORSDOF 5
ENDMDL
MODEL 4
REMARK VINA RESULT:    -6.964      2.377      3.891
REMARK INTER + INTRA:         -10.635
REMARK INTER:                  -8.455
REMARK INTRA:                  -2.180
REMARK CONF_INDEPENDENT:        1.492
REMARK UNBOUND:                -2.180
REMARK  5 active torsions:
REMARK  status: ('A' for Active; 'I' for Inactive)
REMARK    1  A    between atoms: C_2  and  C_4 
REMARK    2  A    between atoms: C_4  and  N_5 
REMARK    3  A    between atoms: C_4  and  C_14 
REMARK       I    between atoms: N_5  and  C_6 
REMARK    4  A    between atoms: C_6  and  C_8 
REMARK       I    between atoms: C_14  and  N_16 
REMARK    5  A    between atoms: N_16  and  C_17 
ROOT
ATOM      1  C   UNL d   1      28.151 -15.226  -3.535  0.00  0.00     0.055 A 
ATOM      2  C   UNL d   1      29.450 -15.414  -4.033  0.00  0.00     0.031 A 
ATOM      3  C   UNL d   1      29.713 -15.283  -5.406  0.00  0.00     0.002 A 
ATOM      4  C   UNL d   1      28.677 -15.025  -6.301  0.00  0.00     0.002 A 
ATOM      5  C   UNL d   1      27.382 -14.847  -5.822  0.00  0.00     0.025 A 
ATOM      6  C   UNL d   1      27.108 -14.947  -4.449  0.00  0.00     0.071 A 
ATOM      7  C   UNL d   1      25.765 -14.676  -4.032  0.00  0.00     0.102 C 
ATOM      8  N   UNL d   1      24.674 -14.436  -3.694  0.00  0.00    -0.191 NA
ENDROOT
BRANCH   1   9
ATOM      9  N   UNL d   1      27.929 -15.266  -2.124  0.00  0.00    -0.324 N 
ATOM     10  C   UNL d   1      28.557 -16.221  -1.334  0.00  0.00     0.245 C 
ATOM     11  O   UNL d   1      29.471 -16.910  -1.797  0.00  0.00    -0.271 OA
ATOM     12  H   UNL d   1      27.460 -14.484  -1.683  0.00  0.00     0.169 HD
BRANCH  10  13
ATOM     13  C   UNL d   1      28.139 -16.333   0.167  0.00  0.00     0.180 C 
BRANCH  13  14
ATOM     14  C   UNL d   1      28.182 -14.893   0.780  0.00  0.00     0.009 C 
ATOM     15  C   UNL d   1      27.778 -14.824   2.247  0.00  0.00     0.012 C 
ATOM     16  C   UNL d   1      29.581 -14.274   0.699  0.00  0.00     0.012 C 
ENDBRANCH  13  14
BRANCH  13  17
ATOM     17  N   UNL d   1      26.789 -16.926   0.225  0.00  0.00    -0.343 N 
ATOM     18  C   UNL d   1      25.676 -16.365  -0.384  0.00  0.00     0.252 C 
ATOM     19  O   UNL d   1      25.597 -15.235  -0.845  0.00  0.00    -0.268 OA
ATOM     20  H   UNL d   1      26.701 -17.846   0.640  0.00  0.00     0.163 HD
BRANCH  18  21
ATOM     21  C   UNL d   1      24.447 -17.171  -0.379  0.00  0.00     0.032 A 
ATOM     22  C   UNL d   1      24.442 -18.575  -0.348  0.00  0.00     0.017 A 
ATOM     23  C   UNL d   1      23.251 -19.250  -0.639  0.00  0.00     0.001 A 
ATOM     24  C   UNL d   1      22.081 -18.525  -0.875  0.00  0.00     0.000 A 
ATOM     25  C   UNL d   1      22.105 -17.132  -0.894  0.00  0.00     0.001 A 
ATOM     26  C   UNL d   1      23.290 -16.456  -0.657  0.00  0.00     0.017 A 
ENDBRANCH  18  21
ENDBRANCH  13  17
ENDBRANCH  10  13
ENDBRANCH   1   9
TORSDOF 5
ENDMDL
MODEL 5
REMARK VINA RESULT:    -6.814      2.953      4.995
REMARK INTER + INTRA:         -10.223
REMARK INTER:                  -8.305
REMARK INTRA:                  -1.918
REMARK CONF_INDEPENDENT:        1.492
REMARK UNBOUND:                -1.918
REMARK  5 active torsions:
REMARK  status: ('A' for Active; 'I' for Inactive)
REMARK    1  A    between atoms: C_2  and  C_4 
REMARK    2  A    between atoms: C_4  and  N_5 
REMARK    3  A    between atoms: C_4  and  C_14 
REMARK       I    between atoms: N_5  and  C_6 
REMARK    4  A    between atoms: C_6  and  C_8 
REMARK       I    between atoms: C_14  and  N_16 
REMARK    5  A    between atoms: N_16  and  C_17 
ROOT
ATOM      1  C   UNL d   1      26.287 -12.533  -3.520  0.00  0.00     0.055 A 
ATOM      2  C   UNL d   1      25.860 -11.241  -3.176  0.00  0.00     0.031 A 
ATOM      3  C   UNL d   1      25.646 -10.273  -4.170  0.00  0.00     0.002 A 
ATOM      4  C   UNL d   1      25.915 -10.563  -5.506  0.00  0.00     0.002 A 
ATOM      5  C   UNL d   1      26.350 -11.837  -5.860  0.00  0.00     0.025 A 
ATOM      6  C   UNL d   1      26.541 -12.824  -4.881  0.00  0.00     0.071 A 
ATOM      7  C   UNL d   1      26.918 -14.128  -5.336  0.00  0.00     0.102 C 
ATOM      8  N   UNL d   1      27.207 -15.194  -5.713  0.00  0.00    -0.191 NA
ENDROOT
BRANCH   1   9
ATOM      9  N   UNL d   1      26.401 -13.528  -2.500  0.00  0.00    -0.324 N 
ATOM     10  C   UNL d   1      27.002 -13.231  -1.283  0.00  0.00     0.245 C 
ATOM     11  O   UNL d   1      27.256 -12.061  -0.982  0.00  0.00    -0.271 OA
ATOM     12  H   UNL d   1      25.879 -14.390  -2.601  0.00  0.00     0.169 HD
BRANCH  10  13
ATOM     13  C   UNL d   1      27.262 -14.400  -0.280  0.00  0.00     0.180 C 
BRANCH  13  14
ATOM     14  C   UNL d   1      27.685 -13.765   1.088  0.00  0.00     0.009 C 
ATOM     15  C   UNL d   1      26.577 -12.985   1.785  0.00  0.00     0.012 C 
ATOM     16  C   UNL d   1      28.153 -14.821   2.095  0.00  0.00     0.012 C 
ENDBRANCH  13  14
BRANCH  13  17
ATOM     17  N   UNL d   1      26.024 -15.195  -0.169  0.00  0.00    -0.343 N 
ATOM     18  C   UNL d   1      25.656 -16.175  -1.079  0.00  0.00     0.252 C 
ATOM     19  O   UNL d   1      26.155 -16.364  -2.179  0.00  0.00    -0.268 OA
ATOM     20  H   UNL d   1      25.477 -15.090   0.678  0.00  0.00     0.163 HD
BRANCH  18  21
ATOM     21  C   UNL d   1      24.486 -16.992  -0.728  0.00  0.00     0.032 A 
ATOM     22  C   UNL d   1      24.562 -18.358  -0.412  0.00  0.00     0.017 A 
ATOM     23  C   UNL d   1      23.382 -19.109  -0.380  0.00  0.00     0.001 A 
ATOM     24  C   UNL d   1      22.152 -18.479  -0.582  0.00  0.00     0.000 A 
ATOM     25  C   UNL d   1      22.096 -17.120  -0.888  0.00  0.00     0.001 A 
ATOM     26  C   UNL d   1      23.263 -16.380  -0.971  0.00  0.00     0.017 A 
ENDBRANCH  18  21
ENDBRANCH  13  17
ENDBRANCH  10  13
ENDBRANCH   1   9
TORSDOF 5
ENDMDL
MODEL 6
REMARK VINA RESULT:    -6.687      4.199      6.551
REMARK INTER + INTRA:         -10.405
REMARK INTER:                  -8.179
REMARK INTRA:                  -2.226
REMARK CONF_INDEPENDENT:        1.492
REMARK UNBOUND:                -2.226
REMARK  5 active torsions:
REMARK  status: ('A' for Active; 'I' for Inactive)
REMARK    1  A    between atoms: C_2  and  C_4 
REMARK    2  A    between atoms: C_4  and  N_5 
REMARK    3  A    between atoms: C_4  and  C_14 
REMARK       I    between atoms: N_5  and  C_6 
REMARK    4  A    between atoms: C_6  and  C_8 
REMARK       I    between atoms: C_14  and  N_16 
REMARK    5  A    between atoms: N_16  and  C_17 
ROOT
ATOM      1  C   UNL d   1      25.854 -16.710  -0.572  0.00  0.00     0.055 A 
ATOM      2  C   UNL d   1      25.658 -17.720   0.383  0.00  0.00     0.031 A 
ATOM      3  C   UNL d   1      24.547 -18.575   0.299  0.00  0.00     0.002 A 
ATOM      4  C   UNL d   1      23.592 -18.392  -0.698  0.00  0.00     0.002 A 
ATOM      5  C   UNL d   1      23.768 -17.388  -1.645  0.00  0.00     0.025 A 
ATOM      6  C   UNL d   1      24.887 -16.544  -1.591  0.00  0.00     0.071 A 
ATOM      7  C   UNL d   1      25.031 -15.586  -2.646  0.00  0.00     0.102 C 
ATOM      8  N   UNL d   1      25.155 -14.819  -3.517  0.00  0.00    -0.191 NA
ENDROOT
BRANCH   1   9
ATOM      9  N   UNL d   1      27.044 -15.919  -0.522  0.00  0.00    -0.324 N 
ATOM     10  C   UNL d   1      28.296 -16.518  -0.582  0.00  0.00     0.245 C 
ATOM     11  O   UNL d   1      28.404 -17.709  -0.889  0.00  0.00    -0.271 OA
ATOM     12  H   UNL d   1      26.965 -14.915  -0.629  0.00  0.00     0.169 HD
BRANCH  10  13
ATOM     13  C   UNL d   1      29.556 -15.626  -0.340  0.00  0.00     0.180 C 
BRANCH  13  14
ATOM     14  C   UNL d   1      29.469 -14.408  -1.320  0.00  0.00     0.009 C 
ATOM     15  C   UNL d   1      30.749 -13.587  -1.413  0.00  0.00     0.012 C 
ATOM     16  C   UNL d   1      29.143 -14.842  -2.752  0.00  0.00     0.012 C 
ENDBRANCH  13  14
BRANCH  13  17
ATOM     17  N   UNL d   1      29.559 -15.208   1.075  0.00  0.00    -0.343 N 
ATOM     18  C   UNL d   1      28.590 -14.388   1.636  0.00  0.00     0.252 C 
ATOM     19  O   UNL d   1      27.757 -13.732   1.027  0.00  0.00    -0.268 OA
ATOM     20  H   UNL d   1      30.244 -15.635   1.686  0.00  0.00     0.163 HD
BRANCH  18  21
ATOM     21  C   UNL d   1      28.642 -14.211   3.094  0.00  0.00     0.032 A 
ATOM     22  C   UNL d   1      29.795 -14.445   3.862  0.00  0.00     0.017 A 
ATOM     23  C   UNL d   1      29.670 -14.535   5.252  0.00  0.00     0.001 A 
ATOM     24  C   UNL d   1      28.429 -14.313   5.855  0.00  0.00     0.000 A 
ATOM     25  C   UNL d   1      27.298 -14.076   5.076  0.00  0.00     0.001 A 
ATOM     26  C   UNL d   1      27.403 -14.035   3.696  0.00  0.00     0.017 A 
ENDBRANCH  18  21
ENDBRANCH  13  17
ENDBRANCH  10  13
ENDBRANCH   1   9
TORSDOF 5
ENDMDL
MODEL 7
REMARK VINA RESULT:    -6.671      1.674      6.632
REMARK INTER + INTRA:         -10.289
REMARK INTER:                  -8.162
REMARK INTRA:                  -2.127
REMARK CONF_INDEPENDENT:        1.492
REMARK UNBOUND:                -2.127
REMARK  5 active torsions:
REMARK  status: ('A' for Active; 'I' for Inactive)
REMARK    1  A    between atoms: C_2  and  C_4 
REMARK    2  A    between atoms: C_4  and  N_5 
REMARK    3  A    between atoms: C_4  and  C_14 
REMARK       I    between atoms: N_5  and  C_6 
REMARK    4  A    between atoms: C_6  and  C_8 
REMARK       I    between atoms: C_14  and  N_16 
REMARK    5  A    between atoms: N_16  and  C_17 
ROOT
ATOM      1  C   UNL d   1      25.227 -16.545  -1.752  0.00  0.00     0.055 A 
ATOM      2  C   UNL d   1      23.882 -16.867  -1.512  0.00  0.00     0.031 A 
ATOM      3  C   UNL d   1      23.525 -17.665  -0.413  0.00  0.00     0.002 A 
ATOM      4  C   UNL d   1      24.507 -18.200   0.417  0.00  0.00     0.002 A 
ATOM      5  C   UNL d   1      25.846 -17.899   0.184  0.00  0.00     0.025 A 
ATOM      6  C   UNL d   1      26.216 -17.079  -0.893  0.00  0.00     0.071 A 
ATOM      7  C   UNL d   1      27.606 -16.757  -1.019  0.00  0.00     0.102 C 
ATOM      8  N   UNL d   1      28.736 -16.482  -1.106  0.00  0.00    -0.191 NA
ENDROOT
BRANCH   1   9
ATOM      9  N   UNL d   1      25.554 -15.650  -2.818  0.00  0.00    -0.324 N 
ATOM     10  C   UNL d   1      25.786 -14.303  -2.566  0.00  0.00     0.245 C 
ATOM     11  O   UNL d   1      25.922 -13.900  -1.408  0.00  0.00    -0.271 OA
ATOM     12  H   UNL d   1      25.795 -16.038  -3.722  0.00  0.00     0.169 HD
BRANCH  10  13
ATOM     13  C   UNL d   1      25.958 -13.341  -3.785  0.00  0.00     0.180 C 
BRANCH  13  14
ATOM     14  C   UNL d   1      25.991 -11.876  -3.230  0.00  0.00     0.009 C 
ATOM     15  C   UNL d   1      27.247 -11.535  -2.438  0.00  0.00     0.012 C 
ATOM     16  C   UNL d   1      25.904 -10.834  -4.350  0.00  0.00     0.012 C 
ENDBRANCH  13  14
BRANCH  13  17
ATOM     17  N   UNL d   1      27.205 -13.703  -4.485  0.00  0.00    -0.343 N 
ATOM     18  C   UNL d   1      27.291 -14.717  -5.427  0.00  0.00     0.252 C 
ATOM     19  O   UNL d   1      26.447 -15.574  -5.646  0.00  0.00    -0.268 OA
ATOM     20  H   UNL d   1      28.009 -13.102  -4.345  0.00  0.00     0.163 HD
BRANCH  18  21
ATOM     21  C   UNL d   1      28.562 -14.831  -6.156  0.00  0.00     0.032 A 
ATOM     22  C   UNL d   1      29.464 -15.893  -5.978  0.00  0.00     0.017 A 
ATOM     23  C   UNL d   1      30.761 -15.767  -6.488  0.00  0.00     0.001 A 
ATOM     24  C   UNL d   1      31.111 -14.633  -7.226  0.00  0.00     0.000 A 
ATOM     25  C   UNL d   1      30.200 -13.593  -7.398  0.00  0.00     0.001 A 
ATOM     26  C   UNL d   1      28.930 -13.688  -6.854  0.00  0.00     0.017 A 
ENDBRANCH  18  21
ENDBRANCH  13  17
ENDBRANCH  10  13
ENDBRANCH   1   9
TORSDOF 5
ENDMDL
MODEL 8
REMARK VINA RESULT:    -6.501      1.645      6.243
REMARK INTER + INTRA:         -10.046
REMARK INTER:                  -7.992
REMARK INTRA:                  -2.054
REMARK CONF_INDEPENDENT:        1.492
REMARK UNBOUND:                -2.054
REMARK  5 active torsions:
REMARK  status: ('A' for Active; 'I' for Inactive)
REMARK    1  A    between atoms: C_2  and  C_4 
REMARK    2  A    between atoms: C_4  and  N_5 
REMARK    3  A    between atoms: C_4  and  C_14 
REMARK       I    between atoms: N_5  and  C_6 
REMARK    4  A    between atoms: C_6  and  C_8 
REMARK       I    between atoms: C_14  and  N_16 
REMARK    5  A    between atoms: N_16  and  C_17 
ROOT
ATOM      1  C   UNL d   1      25.763 -16.658  -1.896  0.00  0.00     0.055 A 
ATOM      2  C   UNL d   1      24.421 -17.054  -2.016  0.00  0.00     0.031 A 
ATOM      3  C   UNL d   1      23.802 -17.794  -0.996  0.00  0.00     0.002 A 
ATOM      4  C   UNL d   1      24.529 -18.199   0.121  0.00  0.00     0.002 A 
ATOM      5  C   UNL d   1      25.864 -17.823   0.248  0.00  0.00     0.025 A 
ATOM      6  C   UNL d   1      26.488 -17.060  -0.750  0.00  0.00     0.071 A 
ATOM      7  C   UNL d   1      27.840 -16.652  -0.507  0.00  0.00     0.102 C 
ATOM      8  N   UNL d   1      28.934 -16.306  -0.298  0.00  0.00    -0.191 NA
ENDROOT
BRANCH   1   9
ATOM      9  N   UNL d   1      26.339 -15.821  -2.901  0.00  0.00    -0.324 N 
ATOM     10  C   UNL d   1      25.557 -14.910  -3.599  0.00  0.00     0.245 C 
ATOM     11  O   UNL d   1      24.408 -14.659  -3.225  0.00  0.00    -0.271 OA
ATOM     12  H   UNL d   1      27.349 -15.767  -2.969  0.00  0.00     0.169 HD
BRANCH  10  13
ATOM     13  C   UNL d   1      26.198 -14.154  -4.807  0.00  0.00     0.180 C 
BRANCH  13  14
ATOM     14  C   UNL d   1      26.608 -12.727  -4.309  0.00  0.00     0.009 C 
ATOM     15  C   UNL d   1      25.907 -11.586  -5.034  0.00  0.00     0.012 C 
ATOM     16  C   UNL d   1      26.307 -12.528  -2.820  0.00  0.00     0.012 C 
ENDBRANCH  13  14
BRANCH  13  17
ATOM     17  N   UNL d   1      27.357 -14.938  -5.277  0.00  0.00    -0.343 N 
ATOM     18  C   UNL d   1      28.545 -15.051  -4.571  0.00  0.00     0.252 C 
ATOM     19  O   UNL d   1      28.885 -14.371  -3.614  0.00  0.00    -0.268 OA
ATOM     20  H   UNL d   1      27.229 -15.508  -6.104  0.00  0.00     0.163 HD
BRANCH  18  21
ATOM     21  C   UNL d   1      29.531 -16.008  -5.092  0.00  0.00     0.032 A 
ATOM     22  C   UNL d   1      30.006 -15.989  -6.414  0.00  0.00     0.017 A 
ATOM     23  C   UNL d   1      30.707 -17.100  -6.894  0.00  0.00     0.001 A 
ATOM     24  C   UNL d   1      30.990 -18.167  -6.037  0.00  0.00     0.000 A 
ATOM     25  C   UNL d   1      30.516 -18.165  -4.726  0.00  0.00     0.001 A 
ATOM     26  C   UNL d   1      29.778 -17.091  -4.258  0.00  0.00     0.017 A 
ENDBRANCH  18  21
ENDBRANCH  13  17
ENDBRANCH  10  13
ENDBRANCH   1   9
TORSDOF 5
ENDMDL
MODEL 9
REMARK VINA RESULT:    -6.265      4.053      6.748
REMARK INTER + INTRA:         -10.023
REMARK INTER:                  -7.757
REMARK INTRA:                  -2.266
REMARK CONF_INDEPENDENT:        1.492
REMARK UNBOUND:                -2.266
REMARK  5 active torsions:
REMARK  status: ('A' for Active; 'I' for Inactive)
REMARK    1  A    between atoms: C_2  and  C_4 
REMARK    2  A    between atoms: C_4  and  N_5 
REMARK    3  A    between atoms: C_4  and  C_14 
REMARK       I    between atoms: N_5  and  C_6 
REMARK    4  A    between atoms: C_6  and  C_8 
REMARK       I    between atoms: C_14  and  N_16 
REMARK    5  A    between atoms: N_16  and  C_17 
ROOT
ATOM      1  C   UNL d   1      24.443 -16.608  -0.624  0.00  0.00     0.055 A 
ATOM      2  C   UNL d   1      23.079 -16.397  -0.876  0.00  0.00     0.031 A 
ATOM      3  C   UNL d   1      22.156 -17.445  -0.727  0.00  0.00     0.002 A 
ATOM      4  C   UNL d   1      22.591 -18.724  -0.387  0.00  0.00     0.002 A 
ATOM      5  C   UNL d   1      23.943 -18.950  -0.145  0.00  0.00     0.025 A 
ATOM      6  C   UNL d   1      24.873 -17.906  -0.262  0.00  0.00     0.071 A 
ATOM      7  C   UNL d   1      26.232 -18.205   0.077  0.00  0.00     0.102 C 
ATOM      8  N   UNL d   1      27.335 -18.447   0.372  0.00  0.00    -0.191 NA
ENDROOT
BRANCH   1   9
ATOM      9  N   UNL d   1      25.347 -15.502  -0.685  0.00  0.00    -0.324 N 
ATOM     10  C   UNL d   1      26.297 -15.418  -1.695  0.00  0.00     0.245 C 
ATOM     11  O   UNL d   1      26.243 -16.177  -2.667  0.00  0.00    -0.271 OA
ATOM     12  H   UNL d   1      25.167 -14.695  -0.101  0.00  0.00     0.169 HD
BRANCH  10  13
ATOM     13  C   UNL d   1      27.372 -14.287  -1.609  0.00  0.00     0.180 C 
BRANCH  13  14
ATOM     14  C   UNL d   1      26.649 -12.925  -1.885  0.00  0.00     0.009 C 
ATOM     15  C   UNL d   1      27.587 -11.784  -2.261  0.00  0.00     0.012 C 
ATOM     16  C   UNL d   1      25.636 -13.032  -3.030  0.00  0.00     0.012 C 
ENDBRANCH  13  14
BRANCH  13  17
ATOM     17  N   UNL d   1      27.983 -14.335  -0.267  0.00  0.00    -0.343 N 
ATOM     18  C   UNL d   1      27.325 -13.948   0.891  0.00  0.00     0.252 C 
ATOM     19  O   UNL d   1      26.275 -13.325   0.953  0.00  0.00    -0.268 OA
ATOM     20  H   UNL d   1      28.891 -14.777  -0.184  0.00  0.00     0.163 HD
BRANCH  18  21
ATOM     21  C   UNL d   1      28.012 -14.223   2.161  0.00  0.00     0.032 A 
ATOM     22  C   UNL d   1      27.405 -14.075   3.418  0.00  0.00     0.017 A 
ATOM     23  C   UNL d   1      28.213 -14.075   4.560  0.00  0.00     0.001 A 
ATOM     24  C   UNL d   1      29.587 -14.299   4.440  0.00  0.00     0.000 A 
ATOM     25  C   UNL d   1      30.171 -14.450   3.184  0.00  0.00     0.001 A 
ATOM     26  C   UNL d   1      29.385 -14.401   2.044  0.00  0.00     0.017 A 
ENDBRANCH  18  21
ENDBRANCH  13  17
ENDBRANCH  10  13
ENDBRANCH   1   9
TORSDOF 5
ENDMDL
