MODEL 1
REMARK VINA RESULT:   -10.041      0.000      0.000
REMARK INTER + INTRA:         -14.388
REMARK INTER:                 -13.024
REMARK INTRA:                  -1.363
REMARK CONF_INDEPENDENT:        2.983
REMARK UNBOUND:                -1.363
REMARK  10 active torsions:
REMARK  status: ('A' for Active; 'I' for Inactive)
REMARK    1  A    between atoms: C_2  and  O_3 
REMARK    2  A    between atoms: O_3  and  C_4 
REMARK    3  A    between atoms: C_8  and  C_9 
REMARK       I    between atoms: C_9  and  N_11 
REMARK    4  A    between atoms: N_11  and  C_12 
REMARK    5  A    between atoms: C_12  and  N_14 
REMARK    6  A    between atoms: N_14  and  N_15 
REMARK       I    between atoms: N_15  and  C_16 
REMARK    7  A    between atoms: C_16  and  C_18 
REMARK    8  A    between atoms: C_21  and  N_22 
REMARK       I    between atoms: N_22  and  C_23 
REMARK    9  A    between atoms: C_23  and  C_25 
REMARK   10  A    between atoms: C_25  and  C_26 
ROOT
ATOM      1  N   UNL d   1      27.556 -17.334  -0.017  0.00  0.00    -0.264 N 
ATOM      2  C   UNL d   1      26.593 -16.783  -0.848  0.00  0.00     0.270 C 
ATOM      3  O   UNL d   1      26.846 -15.906  -1.680  0.00  0.00    -0.266 OA
ATOM      4  H   UNL d   1      27.355 -18.111   0.614  0.00  0.00     0.190 HD
ENDROOT
BRANCH   1   5
ATOM      5  N   UNL d   1      28.951 -16.945  -0.075  0.00  0.00    -0.273 N 
ATOM      6  H   UNL d   1      29.599 -17.706  -0.272  0.00  0.00     0.189 HD
BRANCH   5   7
ATOM      7  C   UNL d   1      29.279 -15.589   0.116  0.00  0.00     0.193 C 
ATOM      8  S   UNL d   1      29.779 -14.661  -1.204  0.00  0.00    -0.039 SA
BRANCH   7   9
ATOM      9  N   UNL d   1      29.156 -15.116   1.442  0.00  0.00    -0.298 N 
ATOM     10  C   UNL d   1      28.105 -14.317   1.959  0.00  0.00     0.258 C 
ATOM     11  O   UNL d   1      27.147 -13.931   1.286  0.00  0.00    -0.267 OA
ATOM     12  H   UNL d   1      29.887 -15.390   2.079  0.00  0.00     0.171 HD
BRANCH  10  13
ATOM     13  C   UNL d   1      28.074 -13.885   3.398  0.00  0.00     0.035 A 
ATOM     14  C   UNL d   1      28.436 -14.837   4.382  0.00  0.00     0.017 A 
ATOM     15  C   UNL d   1      28.502 -14.498   5.737  0.00  0.00     0.004 A 
ATOM     16  C   UNL d   1      28.156 -13.213   6.136  0.00  0.00     0.037 A 
ATOM     17  C   UNL d   1      27.797 -12.259   5.178  0.00  0.00     0.069 A 
ATOM     18  C   UNL d   1      27.760 -12.594   3.816  0.00  0.00     0.053 A 
BRANCH  17  19
ATOM     19  O   UNL d   1      27.610 -10.987   5.651  0.00  0.00    -0.351 OA
BRANCH  19  20
ATOM     20  C   UNL d   1      27.873  -9.940   4.717  0.00  0.00     0.171 C 
ATOM     21  C   UNL d   1      29.375  -9.830   4.531  0.00  0.00     0.034 C 
ENDBRANCH  19  20
ENDBRANCH  17  19
ENDBRANCH  10  13
ENDBRANCH   7   9
ENDBRANCH   5   7
ENDBRANCH   1   5
BRANCH   2  22
ATOM     22  C   UNL d   1      25.179 -17.273  -0.682  0.00  0.00     0.033 A 
ATOM     23  C   UNL d   1      24.068 -16.434  -0.896  0.00  0.00     0.019 A 
ATOM     24  C   UNL d   1      22.745 -16.857  -0.587  0.00  0.00     0.030 A 
ATOM     25  C   UNL d   1      22.507 -18.150  -0.112  0.00  0.00     0.034 A 
ATOM     26  C   UNL d   1      23.635 -18.950   0.125  0.00  0.00     0.030 A 
ATOM     27  C   UNL d   1      24.943 -18.540  -0.165  0.00  0.00     0.019 A 
BRANCH  25  28
ATOM     28  N   UNL d   1      21.171 -18.630   0.100  0.00  0.00    -0.327 N 
ATOM     29  C   UNL d   1      20.455 -19.324  -0.867  0.00  0.00     0.222 C 
ATOM     30  O   UNL d   1      20.881 -19.548  -2.000  0.00  0.00    -0.273 OA
ATOM     31  H   UNL d   1      20.685 -18.328   0.938  0.00  0.00     0.169 HD
BRANCH  29  32
ATOM     32  C   UNL d   1      19.045 -19.794  -0.521  0.00  0.00     0.107 C 
BRANCH  32  33
ATOM     33  C   UNL d   1      19.115 -20.792   0.672  0.00  0.00    -0.014 C 
ATOM     34  C   UNL d   1      19.436 -20.080   1.998  0.00  0.00     0.010 C 
ATOM     35  C   UNL d   1      17.814 -21.570   0.840  0.00  0.00     0.010 C 
ENDBRANCH  32  33
ENDBRANCH  29  32
ENDBRANCH  25  28
ENDBRANCH   2  22
TORSDOF 10
ENDMDL
MODEL 2
REMARK VINA RESULT:   -10.011      4.702      7.821
REMARK INTER + INTRA:         -14.311
REMARK INTER:                 -12.994
REMARK INTRA:                  -1.316
REMARK CONF_INDEPENDENT:        2.983
REMARK UNBOUND:                -1.316
REMARK  10 active torsions:
REMARK  status: ('A' for Active; 'I' for Inactive)
REMARK    1  A    between atoms: C_2  and  O_3 
REMARK    2  A    between atoms: O_3  and  C_4 
REMARK    3  A    between atoms: C_8  and  C_9 
REMARK       I    between atoms: C_9  and  N_11 
REMARK    4  A    between atoms: N_11  and  C_12 
REMARK    5  A    between atoms: C_12  and  N_14 
REMARK    6  A    between atoms: N_14  and  N_15 
REMARK       I    between atoms: N_15  and  C_16 
REMARK    7  A    between atoms: C_16  and  C_18 
REMARK    8  A    between atoms: C_21  and  N_22 
REMARK       I    between atoms: N_22  and  C_23 
REMARK    9  A    between atoms: C_23  and  C_25 
REMARK   10  A    between atoms: C_25  and  C_26 
ROOT
ATOM      1  N   UNL d   1      26.384 -15.287  -1.998  0.00  0.00    -0.264 N 
ATOM      2  C   UNL d   1      26.203 -15.980  -0.811  0.00  0.00     0.270 C 
ATOM      3  O   UNL d   1      27.004 -15.925   0.127  0.00  0.00    -0.266 OA
ATOM      4  H   UNL d   1      25.680 -15.278  -2.738  0.00  0.00     0.190 HD
ENDROOT
BRANCH   1   5
ATOM      5  N   UNL d   1      27.518 -14.416  -2.227  0.00  0.00    -0.273 N 
ATOM      6  H   UNL d   1      28.201 -14.396  -1.471  0.00  0.00     0.189 HD
BRANCH   5   7
ATOM      7  C   UNL d   1      27.590 -13.710  -3.443  0.00  0.00     0.193 C 
ATOM      8  S   UNL d   1      26.464 -12.492  -3.763  0.00  0.00    -0.039 SA
BRANCH   7   9
ATOM      9  N   UNL d   1      28.632 -14.102  -4.312  0.00  0.00    -0.298 N 
ATOM     10  C   UNL d   1      28.507 -14.922  -5.463  0.00  0.00     0.258 C 
ATOM     11  O   UNL d   1      27.438 -15.401  -5.848  0.00  0.00    -0.267 OA
ATOM     12  H   UNL d   1      29.549 -13.750  -4.091  0.00  0.00     0.171 HD
BRANCH  10  13
ATOM     13  C   UNL d   1      29.691 -15.261  -6.324  0.00  0.00     0.035 A 
ATOM     14  C   UNL d   1      30.362 -14.198  -6.975  0.00  0.00     0.017 A 
ATOM     15  C   UNL d   1      31.514 -14.418  -7.736  0.00  0.00     0.004 A 
ATOM     16  C   UNL d   1      31.984 -15.716  -7.903  0.00  0.00     0.037 A 
ATOM     17  C   UNL d   1      31.334 -16.778  -7.267  0.00  0.00     0.069 A 
ATOM     18  C   UNL d   1      30.196 -16.551  -6.479  0.00  0.00     0.053 A 
BRANCH  17  19
ATOM     19  O   UNL d   1      31.950 -17.997  -7.374  0.00  0.00    -0.351 OA
BRANCH  19  20
ATOM     20  C   UNL d   1      31.142 -19.049  -7.903  0.00  0.00     0.171 C 
ATOM     21  C   UNL d   1      30.755 -19.975  -6.766  0.00  0.00     0.034 C 
ENDBRANCH  19  20
ENDBRANCH  17  19
ENDBRANCH  10  13
ENDBRANCH   7   9
ENDBRANCH   5   7
ENDBRANCH   1   5
BRANCH   2  22
ATOM     22  C   UNL d   1      24.984 -16.856  -0.704  0.00  0.00     0.033 A 
ATOM     23  C   UNL d   1      23.678 -16.332  -0.771  0.00  0.00     0.019 A 
ATOM     24  C   UNL d   1      22.536 -17.140  -0.514  0.00  0.00     0.030 A 
ATOM     25  C   UNL d   1      22.680 -18.504  -0.244  0.00  0.00     0.034 A 
ATOM     26  C   UNL d   1      23.991 -18.991  -0.149  0.00  0.00     0.030 A 
ATOM     27  C   UNL d   1      25.124 -18.201  -0.388  0.00  0.00     0.019 A 
BRANCH  25  28
ATOM     28  N   UNL d   1      21.535 -19.356  -0.092  0.00  0.00    -0.327 N 
ATOM     29  C   UNL d   1      20.294 -19.061  -0.643  0.00  0.00     0.222 C 
ATOM     30  O   UNL d   1      20.056 -18.027  -1.268  0.00  0.00    -0.273 OA
ATOM     31  H   UNL d   1      21.603 -20.132   0.558  0.00  0.00     0.169 HD
BRANCH  29  32
ATOM     32  C   UNL d   1      19.154 -20.050  -0.423  0.00  0.00     0.107 C 
BRANCH  32  33
ATOM     33  C   UNL d   1      19.323 -20.728   0.968  0.00  0.00    -0.014 C 
ATOM     34  C   UNL d   1      19.563 -19.697   2.084  0.00  0.00     0.010 C 
ATOM     35  C   UNL d   1      18.110 -21.574   1.340  0.00  0.00     0.010 C 
ENDBRANCH  32  33
ENDBRANCH  29  32
ENDBRANCH  25  28
ENDBRANCH   2  22
TORSDOF 10
ENDMDL
MODEL 3
REMARK VINA RESULT:    -9.833      1.570      2.440
REMARK INTER + INTRA:         -14.078
REMARK INTER:                 -12.816
REMARK INTRA:                  -1.263
REMARK CONF_INDEPENDENT:        2.983
REMARK UNBOUND:                -1.263
REMARK  10 active torsions:
REMARK  status: ('A' for Active; 'I' for Inactive)
REMARK    1  A    between atoms: C_2  and  O_3 
REMARK    2  A    between atoms: O_3  and  C_4 
REMARK    3  A    between atoms: C_8  and  C_9 
REMARK       I    between atoms: C_9  and  N_11 
REMARK    4  A    between atoms: N_11  and  C_12 
REMARK    5  A    between atoms: C_12  and  N_14 
REMARK    6  A    between atoms: N_14  and  N_15 
REMARK       I    between atoms: N_15  and  C_16 
REMARK    7  A    between atoms: C_16  and  C_18 
REMARK    8  A    between atoms: C_21  and  N_22 
REMARK       I    between atoms: N_22  and  C_23 
REMARK    9  A    between atoms: C_23  and  C_25 
REMARK   10  A    between atoms: C_25  and  C_26 
ROOT
ATOM      1  N   UNL d   1      27.095 -15.795   0.045  0.00  0.00    -0.264 N 
ATOM      2  C   UNL d   1      26.063 -15.754  -0.879  0.00  0.00     0.270 C 
ATOM      3  O   UNL d   1      26.049 -14.974  -1.836  0.00  0.00    -0.266 OA
ATOM      4  H   UNL d   1      27.136 -16.494   0.789  0.00  0.00     0.190 HD
ENDROOT
BRANCH   1   5
ATOM      5  N   UNL d   1      28.262 -14.943  -0.052  0.00  0.00    -0.273 N 
ATOM      6  H   UNL d   1      28.195 -14.204  -0.750  0.00  0.00     0.189 HD
BRANCH   5   7
ATOM      7  C   UNL d   1      29.346 -15.185   0.814  0.00  0.00     0.193 C 
ATOM      8  S   UNL d   1      30.736 -15.934   0.215  0.00  0.00    -0.039 SA
BRANCH   7   9
ATOM      9  N   UNL d   1      29.160 -14.765   2.150  0.00  0.00    -0.298 N 
ATOM     10  C   UNL d   1      28.931 -13.438   2.594  0.00  0.00     0.258 C 
ATOM     11  O   UNL d   1      28.867 -12.467   1.837  0.00  0.00    -0.267 OA
ATOM     12  H   UNL d   1      29.182 -15.491   2.849  0.00  0.00     0.171 HD
BRANCH  10  13
ATOM     13  C   UNL d   1      28.732 -13.113   4.048  0.00  0.00     0.035 A 
ATOM     14  C   UNL d   1      28.165 -11.858   4.373  0.00  0.00     0.017 A 
ATOM     15  C   UNL d   1      27.880 -11.505   5.696  0.00  0.00     0.004 A 
ATOM     16  C   UNL d   1      28.207 -12.385   6.721  0.00  0.00     0.037 A 
ATOM     17  C   UNL d   1      28.767 -13.629   6.419  0.00  0.00     0.069 A 
ATOM     18  C   UNL d   1      29.025 -13.993   5.088  0.00  0.00     0.053 A 
BRANCH  17  19
ATOM     19  O   UNL d   1      28.925 -14.481   7.480  0.00  0.00    -0.351 OA
BRANCH  19  20
ATOM     20  C   UNL d   1      29.303 -13.865   8.711  0.00  0.00     0.171 C 
ATOM     21  C   UNL d   1      28.432 -14.430   9.818  0.00  0.00     0.034 C 
ENDBRANCH  19  20
ENDBRANCH  17  19
ENDBRANCH  10  13
ENDBRANCH   7   9
ENDBRANCH   5   7
ENDBRANCH   1   5
BRANCH   2  22
ATOM     22  C   UNL d   1      24.904 -16.691  -0.659  0.00  0.00     0.033 A 
ATOM     23  C   UNL d   1      25.091 -18.031  -0.269  0.00  0.00     0.019 A 
ATOM     24  C   UNL d   1      24.006 -18.950  -0.215  0.00  0.00     0.030 A 
ATOM     25  C   UNL d   1      22.704 -18.525  -0.496  0.00  0.00     0.034 A 
ATOM     26  C   UNL d   1      22.553 -17.195  -0.915  0.00  0.00     0.030 A 
ATOM     27  C   UNL d   1      23.616 -16.285  -0.983  0.00  0.00     0.019 A 
BRANCH  25  28
ATOM     28  N   UNL d   1      21.584 -19.409  -0.339  0.00  0.00    -0.327 N 
ATOM     29  C   UNL d   1      20.272 -19.018  -0.576  0.00  0.00     0.222 C 
ATOM     30  O   UNL d   1      19.951 -17.873  -0.895  0.00  0.00    -0.273 OA
ATOM     31  H   UNL d   1      21.749 -20.311   0.094  0.00  0.00     0.169 HD
BRANCH  29  32
ATOM     32  C   UNL d   1      19.166 -20.051  -0.386  0.00  0.00     0.107 C 
BRANCH  32  33
ATOM     33  C   UNL d   1      19.340 -20.741   0.999  0.00  0.00    -0.014 C 
ATOM     34  C   UNL d   1      19.590 -19.719   2.122  0.00  0.00     0.010 C 
ATOM     35  C   UNL d   1      18.125 -21.584   1.371  0.00  0.00     0.010 C 
ENDBRANCH  32  33
ENDBRANCH  29  32
ENDBRANCH  25  28
ENDBRANCH   2  22
TORSDOF 10
ENDMDL
MODEL 4
REMARK VINA RESULT:    -9.551      2.991      5.500
REMARK INTER + INTRA:         -14.928
REMARK INTER:                 -12.534
REMARK INTRA:                  -2.394
REMARK CONF_INDEPENDENT:        2.983
REMARK UNBOUND:                -2.394
REMARK  10 active torsions:
REMARK  status: ('A' for Active; 'I' for Inactive)
REMARK    1  A    between atoms: C_2  and  O_3 
REMARK    2  A    between atoms: O_3  and  C_4 
REMARK    3  A    between atoms: C_8  and  C_9 
REMARK       I    between atoms: C_9  and  N_11 
REMARK    4  A    between atoms: N_11  and  C_12 
REMARK    5  A    between atoms: C_12  and  N_14 
REMARK    6  A    between atoms: N_14  and  N_15 
REMARK       I    between atoms: N_15  and  C_16 
REMARK    7  A    between atoms: C_16  and  C_18 
REMARK    8  A    between atoms: C_21  and  N_22 
REMARK       I    between atoms: N_22  and  C_23 
REMARK    9  A    between atoms: C_23  and  C_25 
REMARK   10  A    between atoms: C_25  and  C_26 
ROOT
ATOM      1  N   UNL d   1      27.798 -15.866   1.061  0.00  0.00    -0.264 N 
ATOM      2  C   UNL d   1      27.428 -16.241  -0.221  0.00  0.00     0.270 C 
ATOM      3  O   UNL d   1      28.060 -15.906  -1.227  0.00  0.00    -0.266 OA
ATOM      4  H   UNL d   1      27.315 -16.211   1.892  0.00  0.00     0.190 HD
ENDROOT
BRANCH   1   5
ATOM      5  N   UNL d   1      28.978 -15.070   1.330  0.00  0.00    -0.273 N 
ATOM      6  H   UNL d   1      29.696 -15.542   1.877  0.00  0.00     0.189 HD
BRANCH   5   7
ATOM      7  C   UNL d   1      29.039 -13.762   0.811  0.00  0.00     0.193 C 
ATOM      8  S   UNL d   1      29.888 -12.572   1.658  0.00  0.00    -0.039 SA
BRANCH   7   9
ATOM      9  N   UNL d   1      28.359 -13.562  -0.411  0.00  0.00    -0.298 N 
ATOM     10  C   UNL d   1      27.225 -12.736  -0.620  0.00  0.00     0.258 C 
ATOM     11  O   UNL d   1      26.686 -12.078   0.272  0.00  0.00    -0.267 OA
ATOM     12  H   UNL d   1      28.733 -14.048  -1.210  0.00  0.00     0.171 HD
BRANCH  10  13
ATOM     13  C   UNL d   1      26.594 -12.589  -1.976  0.00  0.00     0.035 A 
ATOM     14  C   UNL d   1      26.610 -11.308  -2.577  0.00  0.00     0.017 A 
ATOM     15  C   UNL d   1      26.109 -11.098  -3.866  0.00  0.00     0.004 A 
ATOM     16  C   UNL d   1      25.533 -12.161  -4.554  0.00  0.00     0.037 A 
ATOM     17  C   UNL d   1      25.508 -13.433  -3.976  0.00  0.00     0.069 A 
ATOM     18  C   UNL d   1      26.040 -13.647  -2.695  0.00  0.00     0.053 A 
BRANCH  17  19
ATOM     19  O   UNL d   1      25.050 -14.441  -4.782  0.00  0.00    -0.351 OA
BRANCH  19  20
ATOM     20  C   UNL d   1      25.910 -15.575  -4.898  0.00  0.00     0.171 C 
ATOM     21  C   UNL d   1      27.262 -15.102  -5.397  0.00  0.00     0.034 C 
ENDBRANCH  19  20
ENDBRANCH  17  19
ENDBRANCH  10  13
ENDBRANCH   7   9
ENDBRANCH   5   7
ENDBRANCH   1   5
BRANCH   2  22
ATOM     22  C   UNL d   1      26.176 -17.066  -0.362  0.00  0.00     0.033 A 
ATOM     23  C   UNL d   1      25.294 -16.906  -1.449  0.00  0.00     0.019 A 
ATOM     24  C   UNL d   1      24.040 -17.576  -1.496  0.00  0.00     0.030 A 
ATOM     25  C   UNL d   1      23.672 -18.463  -0.480  0.00  0.00     0.034 A 
ATOM     26  C   UNL d   1      24.553 -18.575   0.606  0.00  0.00     0.030 A 
ATOM     27  C   UNL d   1      25.786 -17.912   0.667  0.00  0.00     0.019 A 
BRANCH  25  28
ATOM     28  N   UNL d   1      22.462 -19.230  -0.565  0.00  0.00    -0.327 N 
ATOM     29  C   UNL d   1      21.222 -18.659  -0.825  0.00  0.00     0.222 C 
ATOM     30  O   UNL d   1      21.045 -17.449  -0.960  0.00  0.00    -0.273 OA
ATOM     31  H   UNL d   1      22.497 -20.205  -0.288  0.00  0.00     0.169 HD
BRANCH  29  32
ATOM     32  C   UNL d   1      20.008 -19.578  -0.904  0.00  0.00     0.107 C 
BRANCH  32  33
ATOM     33  C   UNL d   1      19.288 -19.598   0.477  0.00  0.00    -0.014 C 
ATOM     34  C   UNL d   1      18.376 -20.827   0.632  0.00  0.00     0.010 C 
ATOM     35  C   UNL d   1      20.279 -19.579   1.636  0.00  0.00     0.010 C 
ENDBRANCH  32  33
ENDBRANCH  29  32
ENDBRANCH  25  28
ENDBRANCH   2  22
TORSDOF 10
ENDMDL
MODEL 5
REMARK VINA RESULT:    -9.526      3.406      5.799
REMARK INTER + INTRA:         -14.478
REMARK INTER:                 -12.509
REMARK INTRA:                  -1.969
REMARK CONF_INDEPENDENT:        2.983
REMARK UNBOUND:                -1.969
REMARK  10 active torsions:
REMARK  status: ('A' for Active; 'I' for Inactive)
REMARK    1  A    between atoms: C_2  and  O_3 
REMARK    2  A    between atoms: O_3  and  C_4 
REMARK    3  A    between atoms: C_8  and  C_9 
REMARK       I    between atoms: C_9  and  N_11 
REMARK    4  A    between atoms: N_11  and  C_12 
REMARK    5  A    between atoms: C_12  and  N_14 
REMARK    6  A    between atoms: N_14  and  N_15 
REMARK       I    between atoms: N_15  and  C_16 
REMARK    7  A    between atoms: C_16  and  C_18 
REMARK    8  A    between atoms: C_21  and  N_22 
REMARK       I    between atoms: N_22  and  C_23 
REMARK    9  A    between atoms: C_23  and  C_25 
REMARK   10  A    between atoms: C_25  and  C_26 
ROOT
ATOM      1  N   UNL d   1      28.180 -16.126   0.836  0.00  0.00    -0.264 N 
ATOM      2  C   UNL d   1      27.087 -15.609   0.158  0.00  0.00     0.270 C 
ATOM      3  O   UNL d   1      27.048 -14.451  -0.267  0.00  0.00    -0.266 OA
ATOM      4  H   UNL d   1      28.235 -17.106   1.116  0.00  0.00     0.190 HD
ENDROOT
BRANCH   1   5
ATOM      5  N   UNL d   1      29.383 -15.356   1.078  0.00  0.00    -0.273 N 
ATOM      6  H   UNL d   1      29.610 -15.217   2.061  0.00  0.00     0.189 HD
BRANCH   5   7
ATOM      7  C   UNL d   1      30.123 -14.898  -0.029  0.00  0.00     0.193 C 
ATOM      8  S   UNL d   1      31.766 -14.552   0.156  0.00  0.00    -0.039 SA
BRANCH   7   9
ATOM      9  N   UNL d   1      29.395 -14.766  -1.233  0.00  0.00    -0.298 N 
ATOM     10  C   UNL d   1      29.767 -15.271  -2.504  0.00  0.00     0.258 C 
ATOM     11  O   UNL d   1      30.805 -15.905  -2.710  0.00  0.00    -0.267 OA
ATOM     12  H   UNL d   1      28.519 -14.272  -1.168  0.00  0.00     0.171 HD
BRANCH  10  13
ATOM     13  C   UNL d   1      28.900 -15.080  -3.716  0.00  0.00     0.035 A 
ATOM     14  C   UNL d   1      29.529 -15.069  -4.985  0.00  0.00     0.017 A 
ATOM     15  C   UNL d   1      28.789 -14.968  -6.167  0.00  0.00     0.004 A 
ATOM     16  C   UNL d   1      27.408 -14.823  -6.096  0.00  0.00     0.037 A 
ATOM     17  C   UNL d   1      26.770 -14.833  -4.852  0.00  0.00     0.069 A 
ATOM     18  C   UNL d   1      27.512 -14.965  -3.669  0.00  0.00     0.053 A 
BRANCH  17  19
ATOM     19  O   UNL d   1      25.400 -14.826  -4.890  0.00  0.00    -0.351 OA
BRANCH  19  20
ATOM     20  C   UNL d   1      24.774 -13.715  -4.247  0.00  0.00     0.171 C 
ATOM     21  C   UNL d   1      25.755 -12.558  -4.225  0.00  0.00     0.034 C 
ENDBRANCH  19  20
ENDBRANCH  17  19
ENDBRANCH  10  13
ENDBRANCH   7   9
ENDBRANCH   5   7
ENDBRANCH   1   5
BRANCH   2  22
ATOM     22  C   UNL d   1      25.898 -16.515  -0.023  0.00  0.00     0.033 A 
ATOM     23  C   UNL d   1      24.702 -16.069  -0.620  0.00  0.00     0.019 A 
ATOM     24  C   UNL d   1      23.534 -16.880  -0.646  0.00  0.00     0.030 A 
ATOM     25  C   UNL d   1      23.561 -18.178  -0.125  0.00  0.00     0.034 A 
ATOM     26  C   UNL d   1      24.753 -18.581   0.495  0.00  0.00     0.030 A 
ATOM     27  C   UNL d   1      25.906 -17.786   0.536  0.00  0.00     0.019 A 
BRANCH  25  28
ATOM     28  N   UNL d   1      22.426 -19.049  -0.241  0.00  0.00    -0.327 N 
ATOM     29  C   UNL d   1      21.217 -18.645  -0.794  0.00  0.00     0.222 C 
ATOM     30  O   UNL d   1      20.998 -17.501  -1.189  0.00  0.00    -0.273 OA
ATOM     31  H   UNL d   1      22.469 -19.949   0.224  0.00  0.00     0.169 HD
BRANCH  29  32
ATOM     32  C   UNL d   1      20.086 -19.665  -0.875  0.00  0.00     0.107 C 
BRANCH  32  33
ATOM     33  C   UNL d   1      19.889 -20.326   0.521  0.00  0.00    -0.014 C 
ATOM     34  C   UNL d   1      20.116 -19.325   1.667  0.00  0.00     0.010 C 
ATOM     35  C   UNL d   1      18.498 -20.932   0.673  0.00  0.00     0.010 C 
ENDBRANCH  32  33
ENDBRANCH  29  32
ENDBRANCH  25  28
ENDBRANCH   2  22
TORSDOF 10
ENDMDL
MODEL 6
REMARK VINA RESULT:    -9.352      1.805      2.345
REMARK INTER + INTRA:         -14.344
REMARK INTER:                 -12.335
REMARK INTRA:                  -2.009
REMARK CONF_INDEPENDENT:        2.983
REMARK UNBOUND:                -2.009
REMARK  10 active torsions:
REMARK  status: ('A' for Active; 'I' for Inactive)
REMARK    1  A    between atoms: C_2  and  O_3 
REMARK    2  A    between atoms: O_3  and  C_4 
REMARK    3  A    between atoms: C_8  and  C_9 
REMARK       I    between atoms: C_9  and  N_11 
REMARK    4  A    between atoms: N_11  and  C_12 
REMARK    5  A    between atoms: C_12  and  N_14 
REMARK    6  A    between atoms: N_14  and  N_15 
REMARK       I    between atoms: N_15  and  C_16 
REMARK    7  A    between atoms: C_16  and  C_18 
REMARK    8  A    between atoms: C_21  and  N_22 
REMARK       I    between atoms: N_22  and  C_23 
REMARK    9  A    between atoms: C_23  and  C_25 
REMARK   10  A    between atoms: C_25  and  C_26 
ROOT
ATOM      1  N   UNL d   1      27.035 -14.458  -0.446  0.00  0.00    -0.264 N 
ATOM      2  C   UNL d   1      27.075 -15.625  -1.193  0.00  0.00     0.270 C 
ATOM      3  O   UNL d   1      27.975 -15.875  -1.999  0.00  0.00    -0.266 OA
ATOM      4  H   UNL d   1      26.329 -14.293   0.274  0.00  0.00     0.190 HD
ENDROOT
BRANCH   1   5
ATOM      5  N   UNL d   1      28.066 -13.444  -0.529  0.00  0.00    -0.273 N 
ATOM      6  H   UNL d   1      28.772 -13.610  -1.245  0.00  0.00     0.189 HD
BRANCH   5   7
ATOM      7  C   UNL d   1      27.996 -12.340   0.342  0.00  0.00     0.193 C 
ATOM      8  S   UNL d   1      27.572 -10.824  -0.272  0.00  0.00    -0.039 SA
BRANCH   7   9
ATOM      9  N   UNL d   1      28.298 -12.613   1.694  0.00  0.00    -0.298 N 
ATOM     10  C   UNL d   1      27.441 -13.228   2.643  0.00  0.00     0.258 C 
ATOM     11  O   UNL d   1      26.296 -13.606   2.385  0.00  0.00    -0.267 OA
ATOM     12  H   UNL d   1      29.221 -12.354   2.003  0.00  0.00     0.171 HD
BRANCH  10  13
ATOM     13  C   UNL d   1      27.881 -13.483   4.057  0.00  0.00     0.035 A 
ATOM     14  C   UNL d   1      28.481 -14.732   4.348  0.00  0.00     0.017 A 
ATOM     15  C   UNL d   1      28.983 -15.022   5.621  0.00  0.00     0.004 A 
ATOM     16  C   UNL d   1      28.843 -14.086   6.639  0.00  0.00     0.037 A 
ATOM     17  C   UNL d   1      28.253 -12.848   6.370  0.00  0.00     0.069 A 
ATOM     18  C   UNL d   1      27.778 -12.547   5.084  0.00  0.00     0.053 A 
BRANCH  17  19
ATOM     19  O   UNL d   1      28.286 -11.941   7.396  0.00  0.00    -0.351 OA
BRANCH  19  20
ATOM     20  C   UNL d   1      29.177 -12.256   8.466  0.00  0.00     0.171 C 
ATOM     21  C   UNL d   1      28.351 -12.612   9.688  0.00  0.00     0.034 C 
ENDBRANCH  19  20
ENDBRANCH  17  19
ENDBRANCH  10  13
ENDBRANCH   7   9
ENDBRANCH   5   7
ENDBRANCH   1   5
BRANCH   2  22
ATOM     22  C   UNL d   1      25.937 -16.595  -1.015  0.00  0.00     0.033 A 
ATOM     23  C   UNL d   1      24.693 -16.412  -1.649  0.00  0.00     0.019 A 
ATOM     24  C   UNL d   1      23.577 -17.244  -1.355  0.00  0.00     0.030 A 
ATOM     25  C   UNL d   1      23.705 -18.312  -0.461  0.00  0.00     0.034 A 
ATOM     26  C   UNL d   1      24.944 -18.448   0.181  0.00  0.00     0.030 A 
ATOM     27  C   UNL d   1      26.047 -17.627  -0.093  0.00  0.00     0.019 A 
BRANCH  25  28
ATOM     28  N   UNL d   1      22.622 -19.227  -0.237  0.00  0.00    -0.327 N 
ATOM     29  C   UNL d   1      21.310 -18.948  -0.598  0.00  0.00     0.222 C 
ATOM     30  O   UNL d   1      20.953 -17.881  -1.097  0.00  0.00    -0.273 OA
ATOM     31  H   UNL d   1      22.804 -20.047   0.331  0.00  0.00     0.169 HD
BRANCH  29  32
ATOM     32  C   UNL d   1      20.246 -20.005  -0.318  0.00  0.00     0.107 C 
BRANCH  32  33
ATOM     33  C   UNL d   1      19.437 -19.597   0.948  0.00  0.00    -0.014 C 
ATOM     34  C   UNL d   1      18.412 -20.673   1.347  0.00  0.00     0.010 C 
ATOM     35  C   UNL d   1      20.346 -19.325   2.142  0.00  0.00     0.010 C 
ENDBRANCH  32  33
ENDBRANCH  29  32
ENDBRANCH  25  28
ENDBRANCH   2  22
TORSDOF 10
ENDMDL
MODEL 7
REMARK VINA RESULT:    -9.230      3.639      5.252
REMARK INTER + INTRA:         -14.328
REMARK INTER:                 -12.213
REMARK INTRA:                  -2.115
REMARK CONF_INDEPENDENT:        2.983
REMARK UNBOUND:                -2.115
REMARK  10 active torsions:
REMARK  status: ('A' for Active; 'I' for Inactive)
REMARK    1  A    between atoms: C_2  and  O_3 
REMARK    2  A    between atoms: O_3  and  C_4 
REMARK    3  A    between atoms: C_8  and  C_9 
REMARK       I    between atoms: C_9  and  N_11 
REMARK    4  A    between atoms: N_11  and  C_12 
REMARK    5  A    between atoms: C_12  and  N_14 
REMARK    6  A    between atoms: N_14  and  N_15 
REMARK       I    between atoms: N_15  and  C_16 
REMARK    7  A    between atoms: C_16  and  C_18 
REMARK    8  A    between atoms: C_21  and  N_22 
REMARK       I    between atoms: N_22  and  C_23 
REMARK    9  A    between atoms: C_23  and  C_25 
REMARK   10  A    between atoms: C_25  and  C_26 
ROOT
ATOM      1  N   UNL d   1      27.681 -16.402   0.595  0.00  0.00    -0.264 N 
ATOM      2  C   UNL d   1      27.102 -16.683  -0.633  0.00  0.00     0.270 C 
ATOM      3  O   UNL d   1      27.604 -16.338  -1.706  0.00  0.00    -0.266 OA
ATOM      4  H   UNL d   1      27.300 -16.756   1.473  0.00  0.00     0.190 HD
ENDROOT
BRANCH   1   5
ATOM      5  N   UNL d   1      28.943 -15.702   0.719  0.00  0.00    -0.273 N 
ATOM      6  H   UNL d   1      29.717 -16.273   1.056  0.00  0.00     0.189 HD
BRANCH   5   7
ATOM      7  C   UNL d   1      28.998 -14.343   0.353  0.00  0.00     0.193 C 
ATOM      8  S   UNL d   1      29.795 -13.245   1.358  0.00  0.00    -0.039 SA
BRANCH   7   9
ATOM      9  N   UNL d   1      28.356 -14.016  -0.862  0.00  0.00    -0.298 N 
ATOM     10  C   UNL d   1      27.404 -12.984  -1.062  0.00  0.00     0.258 C 
ATOM     11  O   UNL d   1      27.014 -12.231  -0.167  0.00  0.00    -0.267 OA
ATOM     12  H   UNL d   1      28.617 -14.567  -1.663  0.00  0.00     0.171 HD
BRANCH  10  13
ATOM     13  C   UNL d   1      26.797 -12.718  -2.411  0.00  0.00     0.035 A 
ATOM     14  C   UNL d   1      26.186 -13.802  -3.086  0.00  0.00     0.017 A 
ATOM     15  C   UNL d   1      25.536 -13.626  -4.312  0.00  0.00     0.004 A 
ATOM     16  C   UNL d   1      25.533 -12.371  -4.908  0.00  0.00     0.037 A 
ATOM     17  C   UNL d   1      26.132 -11.289  -4.256  0.00  0.00     0.069 A 
ATOM     18  C   UNL d   1      26.757 -11.461  -3.012  0.00  0.00     0.053 A 
BRANCH  17  19
ATOM     19  O   UNL d   1      25.957 -10.068  -4.852  0.00  0.00    -0.351 OA
BRANCH  19  20
ATOM     20  C   UNL d   1      25.151  -9.139  -4.126  0.00  0.00     0.171 C 
ATOM     21  C   UNL d   1      24.401  -8.274  -5.121  0.00  0.00     0.034 C 
ENDBRANCH  19  20
ENDBRANCH  17  19
ENDBRANCH  10  13
ENDBRANCH   7   9
ENDBRANCH   5   7
ENDBRANCH   1   5
BRANCH   2  22
ATOM     22  C   UNL d   1      25.785 -17.413  -0.621  0.00  0.00     0.033 A 
ATOM     23  C   UNL d   1      24.905 -17.386  -1.721  0.00  0.00     0.019 A 
ATOM     24  C   UNL d   1      23.600 -17.946  -1.646  0.00  0.00     0.030 A 
ATOM     25  C   UNL d   1      23.173 -18.595  -0.483  0.00  0.00     0.034 A 
ATOM     26  C   UNL d   1      24.056 -18.575   0.607  0.00  0.00     0.030 A 
ATOM     27  C   UNL d   1      25.340 -18.017   0.548  0.00  0.00     0.019 A 
BRANCH  25  28
ATOM     28  N   UNL d   1      21.903 -19.261  -0.427  0.00  0.00    -0.327 N 
ATOM     29  C   UNL d   1      20.720 -18.670  -0.852  0.00  0.00     0.222 C 
ATOM     30  O   UNL d   1      20.649 -17.514  -1.270  0.00  0.00    -0.273 OA
ATOM     31  H   UNL d   1      21.851 -20.143   0.071  0.00  0.00     0.169 HD
BRANCH  29  32
ATOM     32  C   UNL d   1      19.433 -19.482  -0.754  0.00  0.00     0.107 C 
BRANCH  32  33
ATOM     33  C   UNL d   1      19.524 -20.445   0.466  0.00  0.00    -0.014 C 
ATOM     34  C   UNL d   1      19.889 -19.699   1.761  0.00  0.00     0.010 C 
ATOM     35  C   UNL d   1      18.221 -21.204   0.691  0.00  0.00     0.010 C 
ENDBRANCH  32  33
ENDBRANCH  29  32
ENDBRANCH  25  28
ENDBRANCH   2  22
TORSDOF 10
ENDMDL
MODEL 8
REMARK VINA RESULT:    -9.101      4.451      5.865
REMARK INTER + INTRA:         -14.257
REMARK INTER:                 -12.084
REMARK INTRA:                  -2.173
REMARK CONF_INDEPENDENT:        2.983
REMARK UNBOUND:                -2.173
REMARK  10 active torsions:
REMARK  status: ('A' for Active; 'I' for Inactive)
REMARK    1  A    between atoms: C_2  and  O_3 
REMARK    2  A    between atoms: O_3  and  C_4 
REMARK    3  A    between atoms: C_8  and  C_9 
REMARK       I    between atoms: C_9  and  N_11 
REMARK    4  A    between atoms: N_11  and  C_12 
REMARK    5  A    between atoms: C_12  and  N_14 
REMARK    6  A    between atoms: N_14  and  N_15 
REMARK       I    between atoms: N_15  and  C_16 
REMARK    7  A    between atoms: C_16  and  C_18 
REMARK    8  A    between atoms: C_21  and  N_22 
REMARK       I    between atoms: N_22  and  C_23 
REMARK    9  A    between atoms: C_23  and  C_25 
REMARK   10  A    between atoms: C_25  and  C_26 
ROOT
ATOM      1  N   UNL d   1      27.343 -16.050  -2.594  0.00  0.00    -0.264 N 
ATOM      2  C   UNL d   1      27.200 -16.673  -1.364  0.00  0.00     0.270 C 
ATOM      3  O   UNL d   1      28.159 -16.952  -0.638  0.00  0.00    -0.266 OA
ATOM      4  H   UNL d   1      26.541 -15.754  -3.154  0.00  0.00     0.190 HD
ENDROOT
BRANCH   1   5
ATOM      5  N   UNL d   1      28.632 -15.648  -3.120  0.00  0.00    -0.273 N 
ATOM      6  H   UNL d   1      29.423 -15.852  -2.511  0.00  0.00     0.189 HD
BRANCH   5   7
ATOM      7  C   UNL d   1      28.682 -15.050  -4.394  0.00  0.00     0.193 C 
ATOM      8  S   UNL d   1      29.385 -15.892  -5.678  0.00  0.00    -0.039 SA
BRANCH   7   9
ATOM      9  N   UNL d   1      28.122 -13.756  -4.479  0.00  0.00    -0.298 N 
ATOM     10  C   UNL d   1      26.744 -13.438  -4.586  0.00  0.00     0.258 C 
ATOM     11  O   UNL d   1      25.849 -14.285  -4.619  0.00  0.00    -0.267 OA
ATOM     12  H   UNL d   1      28.774 -12.989  -4.447  0.00  0.00     0.171 HD
BRANCH  10  13
ATOM     13  C   UNL d   1      26.264 -12.016  -4.655  0.00  0.00     0.035 A 
ATOM     14  C   UNL d   1      25.990 -11.472  -5.932  0.00  0.00     0.017 A 
ATOM     15  C   UNL d   1      25.471 -10.181  -6.081  0.00  0.00     0.004 A 
ATOM     16  C   UNL d   1      25.269  -9.394  -4.953  0.00  0.00     0.037 A 
ATOM     17  C   UNL d   1      25.533  -9.915  -3.683  0.00  0.00     0.069 A 
ATOM     18  C   UNL d   1      26.024 -11.221  -3.535  0.00  0.00     0.053 A 
BRANCH  17  19
ATOM     19  O   UNL d   1      25.171  -9.119  -2.629  0.00  0.00    -0.351 OA
BRANCH  19  20
ATOM     20  C   UNL d   1      26.245  -8.449  -1.969  0.00  0.00     0.171 C 
ATOM     21  C   UNL d   1      26.914  -7.519  -2.963  0.00  0.00     0.034 C 
ENDBRANCH  19  20
ENDBRANCH  17  19
ENDBRANCH  10  13
ENDBRANCH   7   9
ENDBRANCH   5   7
ENDBRANCH   1   5
BRANCH   2  22
ATOM     22  C   UNL d   1      25.804 -17.043  -0.938  0.00  0.00     0.033 A 
ATOM     23  C   UNL d   1      25.551 -18.106  -0.049  0.00  0.00     0.019 A 
ATOM     24  C   UNL d   1      24.227 -18.548   0.226  0.00  0.00     0.030 A 
ATOM     25  C   UNL d   1      23.129 -17.893  -0.341  0.00  0.00     0.034 A 
ATOM     26  C   UNL d   1      23.412 -16.862  -1.248  0.00  0.00     0.030 A 
ATOM     27  C   UNL d   1      24.713 -16.426  -1.536  0.00  0.00     0.019 A 
BRANCH  25  28
ATOM     28  N   UNL d   1      21.785 -18.254   0.012  0.00  0.00    -0.327 N 
ATOM     29  C   UNL d   1      20.950 -18.974  -0.832  0.00  0.00     0.222 C 
ATOM     30  O   UNL d   1      21.268 -19.325  -1.968  0.00  0.00    -0.273 OA
ATOM     31  H   UNL d   1      21.390 -17.847   0.853  0.00  0.00     0.169 HD
BRANCH  29  32
ATOM     32  C   UNL d   1      19.545 -19.308  -0.342  0.00  0.00     0.107 C 
BRANCH  32  33
ATOM     33  C   UNL d   1      19.621 -20.491   0.668  0.00  0.00    -0.014 C 
ATOM     34  C   UNL d   1      19.891 -20.005   2.102  0.00  0.00     0.010 C 
ATOM     35  C   UNL d   1      18.342 -21.323   0.669  0.00  0.00     0.010 C 
ENDBRANCH  32  33
ENDBRANCH  29  32
ENDBRANCH  25  28
ENDBRANCH   2  22
TORSDOF 10
ENDMDL
MODEL 9
REMARK VINA RESULT:    -8.949      4.290      6.464
REMARK INTER + INTRA:         -14.004
REMARK INTER:                 -11.932
REMARK INTRA:                  -2.071
REMARK CONF_INDEPENDENT:        2.983
REMARK UNBOUND:                -2.071
REMARK  10 active torsions:
REMARK  status: ('A' for Active; 'I' for Inactive)
REMARK    1  A    between atoms: C_2  and  O_3 
REMARK    2  A    between atoms: O_3  and  C_4 
REMARK    3  A    between atoms: C_8  and  C_9 
REMARK       I    between atoms: C_9  and  N_11 
REMARK    4  A    between atoms: N_11  and  C_12 
REMARK    5  A    between atoms: C_12  and  N_14 
REMARK    6  A    between atoms: N_14  and  N_15 
REMARK       I    between atoms: N_15  and  C_16 
REMARK    7  A    between atoms: C_16  and  C_18 
REMARK    8  A    between atoms: C_21  and  N_22 
REMARK       I    between atoms: N_22  and  C_23 
REMARK    9  A    between atoms: C_23  and  C_25 
REMARK   10  A    between atoms: C_25  and  C_26 
ROOT
ATOM      1  N   UNL d   1      28.037 -17.251  -0.997  0.00  0.00    -0.264 N 
ATOM      2  C   UNL d   1      26.884 -16.486  -1.080  0.00  0.00     0.270 C 
ATOM      3  O   UNL d   1      26.898 -15.275  -1.319  0.00  0.00    -0.266 OA
ATOM      4  H   UNL d   1      28.013 -18.265  -0.875  0.00  0.00     0.190 HD
ENDROOT
BRANCH   1   5
ATOM      5  N   UNL d   1      29.358 -16.696  -1.211  0.00  0.00    -0.273 N 
ATOM      6  H   UNL d   1      29.961 -16.699  -0.389  0.00  0.00     0.189 HD
BRANCH   5   7
ATOM      7  C   UNL d   1      29.694 -16.235  -2.499  0.00  0.00     0.193 C 
ATOM      8  S   UNL d   1      31.001 -16.929  -3.314  0.00  0.00    -0.039 SA
BRANCH   7   9
ATOM      9  N   UNL d   1      28.877 -15.199  -3.004  0.00  0.00    -0.298 N 
ATOM     10  C   UNL d   1      28.338 -15.112  -4.313  0.00  0.00     0.258 C 
ATOM     11  O   UNL d   1      28.528 -15.960  -5.188  0.00  0.00    -0.267 OA
ATOM     12  H   UNL d   1      28.651 -14.459  -2.359  0.00  0.00     0.171 HD
BRANCH  10  13
ATOM     13  C   UNL d   1      27.466 -13.963  -4.734  0.00  0.00     0.035 A 
ATOM     14  C   UNL d   1      26.354 -13.643  -3.918  0.00  0.00     0.017 A 
ATOM     15  C   UNL d   1      25.533 -12.546  -4.198  0.00  0.00     0.004 A 
ATOM     16  C   UNL d   1      25.782 -11.781  -5.332  0.00  0.00     0.037 A 
ATOM     17  C   UNL d   1      26.876 -12.081  -6.149  0.00  0.00     0.069 A 
ATOM     18  C   UNL d   1      27.716 -13.165  -5.849  0.00  0.00     0.053 A 
BRANCH  17  19
ATOM     19  O   UNL d   1      27.122 -11.190  -7.160  0.00  0.00    -0.351 OA
BRANCH  19  20
ATOM     20  C   UNL d   1      28.330 -11.407  -7.889  0.00  0.00     0.171 C 
ATOM     21  C   UNL d   1      27.970 -11.836  -9.298  0.00  0.00     0.034 C 
ENDBRANCH  19  20
ENDBRANCH  17  19
ENDBRANCH  10  13
ENDBRANCH   7   9
ENDBRANCH   5   7
ENDBRANCH   1   5
BRANCH   2  22
ATOM     22  C   UNL d   1      25.574 -17.185  -0.831  0.00  0.00     0.033 A 
ATOM     23  C   UNL d   1      25.269 -17.782   0.407  0.00  0.00     0.019 A 
ATOM     24  C   UNL d   1      24.100 -18.573   0.587  0.00  0.00     0.030 A 
ATOM     25  C   UNL d   1      23.185 -18.731  -0.459  0.00  0.00     0.034 A 
ATOM     26  C   UNL d   1      23.533 -18.156  -1.690  0.00  0.00     0.030 A 
ATOM     27  C   UNL d   1      24.687 -17.385  -1.881  0.00  0.00     0.019 A 
BRANCH  25  28
ATOM     28  N   UNL d   1      21.948 -19.433  -0.264  0.00  0.00    -0.327 N 
ATOM     29  C   UNL d   1      20.719 -18.922  -0.660  0.00  0.00     0.222 C 
ATOM     30  O   UNL d   1      20.576 -17.810  -1.169  0.00  0.00    -0.273 OA
ATOM     31  H   UNL d   1      21.963 -20.270   0.309  0.00  0.00     0.169 HD
BRANCH  29  32
ATOM     32  C   UNL d   1      19.473 -19.765  -0.409  0.00  0.00     0.107 C 
BRANCH  32  33
ATOM     33  C   UNL d   1      19.615 -20.498   0.957  0.00  0.00    -0.014 C 
ATOM     34  C   UNL d   1      20.024 -19.535   2.086  0.00  0.00     0.010 C 
ATOM     35  C   UNL d   1      18.325 -21.203   1.362  0.00  0.00     0.010 C 
ENDBRANCH  32  33
ENDBRANCH  29  32
ENDBRANCH  25  28
ENDBRANCH   2  22
TORSDOF 10
ENDMDL
