MODEL 1
REMARK VINA RESULT:   -10.269      0.000      0.000
REMARK INTER + INTRA:         -16.631
REMARK INTER:                 -14.446
REMARK INTRA:                  -2.185
REMARK CONF_INDEPENDENT:        4.176
REMARK UNBOUND:                -2.185
REMARK  14 active torsions:
REMARK  status: ('A' for Active; 'I' for Inactive)
REMARK    1  A    between atoms: C_2  and  C_3 
REMARK       I    between atoms: C_2  and  N_21 
REMARK    2  A    between atoms: C_3  and  N_4 
REMARK    3  A    between atoms: N_4  and  C_5 
REMARK    4  A    between atoms: C_8  and  O_9 
REMARK    5  A    between atoms: O_9  and  C_10 
REMARK    6  A    between atoms: C_10  and  C_11 
REMARK    7  A    between atoms: C_11  and  O_12 
REMARK    8  A    between atoms: O_12  and  C_13 
REMARK    9  A    between atoms: N_21  and  C_22 
REMARK   10  A    between atoms: C_27  and  O_28 
REMARK   11  A    between atoms: O_28  and  C_29 
REMARK   12  A    between atoms: C_29  and  C_30 
REMARK   13  A    between atoms: C_30  and  O_31 
REMARK   14  A    between atoms: O_31  and  C_32 
ROOT
ATOM      1  O   UNL d   1      24.033 -14.017  -3.557  0.00  0.00    -0.271 OA
ATOM      2  C   UNL d   1      25.066 -13.380  -3.711  0.00  0.00     0.239 C 
ATOM      3  N   UNL d   1      25.386 -12.971  -4.994  0.00  0.00    -0.323 N 
ATOM      4  H   UNL d   1      24.657 -13.133  -5.681  0.00  0.00     0.169 HD
ENDROOT
BRANCH   2   5
ATOM      5  C   UNL d   1      26.110 -13.153  -2.555  0.00  0.00     0.223 C 
BRANCH   5   6
ATOM      6  N   UNL d   1      27.023 -14.315  -2.420  0.00  0.00    -0.381 N 
ATOM      7  H   UNL d   1      27.964 -14.068  -2.108  0.00  0.00     0.160 HD
BRANCH   6   8
ATOM      8  C   UNL d   1      26.498 -15.503  -1.901  0.00  0.00     0.028 A 
ATOM      9  C   UNL d   1      25.438 -16.191  -2.504  0.00  0.00     0.032 A 
ATOM     10  C   UNL d   1      24.801 -17.278  -1.876  0.00  0.00     0.039 A 
ATOM     11  C   UNL d   1      25.178 -17.646  -0.588  0.00  0.00     0.069 A 
ATOM     12  C   UNL d   1      26.225 -16.964   0.018  0.00  0.00     0.039 A 
ATOM     13  C   UNL d   1      26.899 -15.948  -0.648  0.00  0.00     0.032 A 
BRANCH  11  14
ATOM     14  O   UNL d   1      24.460 -18.649   0.005  0.00  0.00    -0.349 OA
BRANCH  14  15
ATOM     15  C   UNL d   1      23.271 -19.027  -0.697  0.00  0.00     0.202 C 
BRANCH  15  16
ATOM     16  C   UNL d   1      22.106 -18.183  -0.208  0.00  0.00     0.202 C 
BRANCH  16  17
ATOM     17  O   UNL d   1      20.912 -18.644  -0.843  0.00  0.00    -0.349 OA
BRANCH  17  18
ATOM     18  C   UNL d   1      20.045 -19.343  -0.048  0.00  0.00     0.068 A 
ATOM     19  C   UNL d   1      20.370 -19.402   1.310  0.00  0.00     0.037 A 
ATOM     20  C   UNL d   1      19.626 -20.201   2.181  0.00  0.00     0.003 A 
ATOM     21  C   UNL d   1      18.520 -20.903   1.707  0.00  0.00     0.000 A 
ATOM     22  C   UNL d   1      18.180 -20.831   0.358  0.00  0.00     0.003 A 
ATOM     23  C   UNL d   1      18.946 -20.062  -0.519  0.00  0.00     0.037 A 
ENDBRANCH  17  18
ENDBRANCH  16  17
ENDBRANCH  15  16
ENDBRANCH  14  15
ENDBRANCH  11  14
ENDBRANCH   6   8
ENDBRANCH   5   6
ENDBRANCH   2   5
BRANCH   3  24
ATOM     24  C   UNL d   1      26.618 -12.521  -5.486  0.00  0.00     0.068 C 
ATOM     25  C   UNL d   1      26.738 -11.117  -5.581  0.00  0.00     0.032 C 
ATOM     26  C   UNL d   1      27.944 -10.521  -5.946  0.00  0.00     0.002 C 
ATOM     27  C   UNL d   1      29.053 -11.325  -6.172  0.00  0.00     0.003 C 
ATOM     28  C   UNL d   1      28.922 -12.721  -6.140  0.00  0.00     0.039 C 
ATOM     29  C   UNL d   1      27.692 -13.347  -5.869  0.00  0.00     0.095 C 
BRANCH  29  30
ATOM     30  O   UNL d   1      27.731 -14.718  -6.052  0.00  0.00    -0.347 OA
BRANCH  30  31
ATOM     31  C   UNL d   1      28.076 -15.604  -4.984  0.00  0.00     0.202 C 
BRANCH  31  32
ATOM     32  C   UNL d   1      29.572 -15.711  -4.690  0.00  0.00     0.202 C 
BRANCH  32  33
ATOM     33  O   UNL d   1      30.199 -16.112  -5.923  0.00  0.00    -0.349 OA
BRANCH  33  34
ATOM     34  C   UNL d   1      30.417 -17.443  -6.115  0.00  0.00     0.068 A 
ATOM     35  C   UNL d   1      30.303 -18.235  -4.973  0.00  0.00     0.037 A 
ATOM     36  C   UNL d   1      30.590 -19.600  -5.030  0.00  0.00     0.003 A 
ATOM     37  C   UNL d   1      31.018 -20.173  -6.225  0.00  0.00     0.000 A 
ATOM     38  C   UNL d   1      31.151 -19.382  -7.363  0.00  0.00     0.003 A 
ATOM     39  C   UNL d   1      30.807 -18.028  -7.317  0.00  0.00     0.037 A 
ENDBRANCH  33  34
ENDBRANCH  32  33
ENDBRANCH  31  32
ENDBRANCH  30  31
ENDBRANCH  29  30
ENDBRANCH   3  24
TORSDOF 14
ENDMDL
MODEL 2
REMARK VINA RESULT:   -10.206      1.682     10.228
REMARK INTER + INTRA:         -16.721
REMARK INTER:                 -14.383
REMARK INTRA:                  -2.339
REMARK CONF_INDEPENDENT:        4.176
REMARK UNBOUND:                -2.339
REMARK  14 active torsions:
REMARK  status: ('A' for Active; 'I' for Inactive)
REMARK    1  A    between atoms: C_2  and  C_3 
REMARK       I    between atoms: C_2  and  N_21 
REMARK    2  A    between atoms: C_3  and  N_4 
REMARK    3  A    between atoms: N_4  and  C_5 
REMARK    4  A    between atoms: C_8  and  O_9 
REMARK    5  A    between atoms: O_9  and  C_10 
REMARK    6  A    between atoms: C_10  and  C_11 
REMARK    7  A    between atoms: C_11  and  O_12 
REMARK    8  A    between atoms: O_12  and  C_13 
REMARK    9  A    between atoms: N_21  and  C_22 
REMARK   10  A    between atoms: C_27  and  O_28 
REMARK   11  A    between atoms: O_28  and  C_29 
REMARK   12  A    between atoms: C_29  and  C_30 
REMARK   13  A    between atoms: C_30  and  O_31 
REMARK   14  A    between atoms: O_31  and  C_32 
ROOT
ATOM      1  O   UNL d   1      24.503 -13.992  -3.551  0.00  0.00    -0.271 OA
ATOM      2  C   UNL d   1      25.135 -14.948  -3.123  0.00  0.00     0.239 C 
ATOM      3  N   UNL d   1      24.669 -15.566  -1.975  0.00  0.00    -0.323 N 
ATOM      4  H   UNL d   1      23.760 -15.241  -1.662  0.00  0.00     0.169 HD
ENDROOT
BRANCH   2   5
ATOM      5  C   UNL d   1      26.523 -15.392  -3.718  0.00  0.00     0.223 C 
BRANCH   5   6
ATOM      6  N   UNL d   1      26.704 -14.878  -5.098  0.00  0.00    -0.381 N 
ATOM      7  H   UNL d   1      26.090 -14.096  -5.333  0.00  0.00     0.160 HD
BRANCH   6   8
ATOM      8  C   UNL d   1      28.006 -14.807  -5.604  0.00  0.00     0.028 A 
ATOM      9  C   UNL d   1      28.368 -13.949  -6.652  0.00  0.00     0.032 A 
ATOM     10  C   UNL d   1      29.630 -14.020  -7.271  0.00  0.00     0.039 A 
ATOM     11  C   UNL d   1      30.528 -15.011  -6.891  0.00  0.00     0.069 A 
ATOM     12  C   UNL d   1      30.175 -15.868  -5.857  0.00  0.00     0.039 A 
ATOM     13  C   UNL d   1      28.959 -15.733  -5.198  0.00  0.00     0.032 A 
BRANCH  11  14
ATOM     14  O   UNL d   1      31.701 -15.087  -7.593  0.00  0.00    -0.349 OA
BRANCH  14  15
ATOM     15  C   UNL d   1      32.485 -16.253  -7.320  0.00  0.00     0.202 C 
BRANCH  15  16
ATOM     16  C   UNL d   1      32.054 -17.380  -8.245  0.00  0.00     0.202 C 
BRANCH  16  17
ATOM     17  O   UNL d   1      30.868 -17.975  -7.715  0.00  0.00    -0.349 OA
BRANCH  17  18
ATOM     18  C   UNL d   1      31.028 -19.194  -7.116  0.00  0.00     0.068 A 
ATOM     19  C   UNL d   1      30.581 -19.292  -5.795  0.00  0.00     0.037 A 
ATOM     20  C   UNL d   1      30.821 -20.450  -5.051  0.00  0.00     0.003 A 
ATOM     21  C   UNL d   1      31.463 -21.535  -5.643  0.00  0.00     0.000 A 
ATOM     22  C   UNL d   1      31.893 -21.450  -6.965  0.00  0.00     0.003 A 
ATOM     23  C   UNL d   1      31.686 -20.279  -7.696  0.00  0.00     0.037 A 
ENDBRANCH  17  18
ENDBRANCH  16  17
ENDBRANCH  15  16
ENDBRANCH  14  15
ENDBRANCH  11  14
ENDBRANCH   6   8
ENDBRANCH   5   6
ENDBRANCH   2   5
BRANCH   3  24
ATOM     24  C   UNL d   1      25.345 -16.447  -1.120  0.00  0.00     0.068 C 
ATOM     25  C   UNL d   1      26.487 -15.901  -0.494  0.00  0.00     0.032 C 
ATOM     26  C   UNL d   1      27.193 -16.621   0.468  0.00  0.00     0.002 C 
ATOM     27  C   UNL d   1      26.733 -17.875   0.846  0.00  0.00     0.003 C 
ATOM     28  C   UNL d   1      25.636 -18.446   0.182  0.00  0.00     0.039 C 
ATOM     29  C   UNL d   1      24.967 -17.777  -0.859  0.00  0.00     0.095 C 
BRANCH  29  30
ATOM     30  O   UNL d   1      24.030 -18.571  -1.497  0.00  0.00    -0.347 OA
BRANCH  30  31
ATOM     31  C   UNL d   1      22.892 -19.087  -0.803  0.00  0.00     0.202 C 
BRANCH  31  32
ATOM     32  C   UNL d   1      21.839 -18.044  -0.423  0.00  0.00     0.202 C 
BRANCH  32  33
ATOM     33  O   UNL d   1      20.586 -18.529  -0.941  0.00  0.00    -0.349 OA
BRANCH  33  34
ATOM     34  C   UNL d   1      19.816 -19.293  -0.116  0.00  0.00     0.068 A 
ATOM     35  C   UNL d   1      20.224 -19.325   1.217  0.00  0.00     0.037 A 
ATOM     36  C   UNL d   1      19.565 -20.142   2.137  0.00  0.00     0.003 A 
ATOM     37  C   UNL d   1      18.511 -20.952   1.720  0.00  0.00     0.000 A 
ATOM     38  C   UNL d   1      18.113 -20.936   0.386  0.00  0.00     0.003 A 
ATOM     39  C   UNL d   1      18.736 -20.073  -0.520  0.00  0.00     0.037 A 
ENDBRANCH  33  34
ENDBRANCH  32  33
ENDBRANCH  31  32
ENDBRANCH  30  31
ENDBRANCH  29  30
ENDBRANCH   3  24
TORSDOF 14
ENDMDL
MODEL 3
REMARK VINA RESULT:   -10.032      4.742      9.734
REMARK INTER + INTRA:         -16.425
REMARK INTER:                 -14.208
REMARK INTRA:                  -2.216
REMARK CONF_INDEPENDENT:        4.176
REMARK UNBOUND:                -2.216
REMARK  14 active torsions:
REMARK  status: ('A' for Active; 'I' for Inactive)
REMARK    1  A    between atoms: C_2  and  C_3 
REMARK       I    between atoms: C_2  and  N_21 
REMARK    2  A    between atoms: C_3  and  N_4 
REMARK    3  A    between atoms: N_4  and  C_5 
REMARK    4  A    between atoms: C_8  and  O_9 
REMARK    5  A    between atoms: O_9  and  C_10 
REMARK    6  A    between atoms: C_10  and  C_11 
REMARK    7  A    between atoms: C_11  and  O_12 
REMARK    8  A    between atoms: O_12  and  C_13 
REMARK    9  A    between atoms: N_21  and  C_22 
REMARK   10  A    between atoms: C_27  and  O_28 
REMARK   11  A    between atoms: O_28  and  C_29 
REMARK   12  A    between atoms: C_29  and  C_30 
REMARK   13  A    between atoms: C_30  and  O_31 
REMARK   14  A    between atoms: O_31  and  C_32 
ROOT
ATOM      1  O   UNL d   1      25.185 -14.174  -4.541  0.00  0.00    -0.271 OA
ATOM      2  C   UNL d   1      25.587 -14.500  -3.432  0.00  0.00     0.239 C 
ATOM      3  N   UNL d   1      25.865 -15.839  -3.216  0.00  0.00    -0.323 N 
ATOM      4  H   UNL d   1      25.829 -16.416  -4.050  0.00  0.00     0.169 HD
ENDROOT
BRANCH   2   5
ATOM      5  C   UNL d   1      25.641 -13.503  -2.216  0.00  0.00     0.223 C 
BRANCH   5   6
ATOM      6  N   UNL d   1      27.023 -13.017  -1.980  0.00  0.00    -0.381 N 
ATOM      7  H   UNL d   1      27.290 -12.225  -2.568  0.00  0.00     0.160 HD
BRANCH   6   8
ATOM      8  C   UNL d   1      27.490 -12.985  -0.662  0.00  0.00     0.028 A 
ATOM      9  C   UNL d   1      27.919 -14.132   0.019  0.00  0.00     0.032 A 
ATOM     10  C   UNL d   1      28.211 -14.116   1.396  0.00  0.00     0.039 A 
ATOM     11  C   UNL d   1      28.002 -12.953   2.130  0.00  0.00     0.069 A 
ATOM     12  C   UNL d   1      27.572 -11.814   1.462  0.00  0.00     0.039 A 
ATOM     13  C   UNL d   1      27.368 -11.823   0.088  0.00  0.00     0.032 A 
BRANCH  11  14
ATOM     14  O   UNL d   1      28.215 -13.026   3.480  0.00  0.00    -0.349 OA
BRANCH  14  15
ATOM     15  C   UNL d   1      29.121 -14.057   3.887  0.00  0.00     0.202 C 
BRANCH  15  16
ATOM     16  C   UNL d   1      28.557 -14.775   5.102  0.00  0.00     0.202 C 
BRANCH  16  17
ATOM     17  O   UNL d   1      27.750 -13.856   5.840  0.00  0.00    -0.349 OA
BRANCH  17  18
ATOM     18  C   UNL d   1      28.366 -13.229   6.888  0.00  0.00     0.068 A 
ATOM     19  C   UNL d   1      28.920 -14.063   7.863  0.00  0.00     0.037 A 
ATOM     20  C   UNL d   1      29.451 -13.523   9.036  0.00  0.00     0.003 A 
ATOM     21  C   UNL d   1      29.478 -12.141   9.216  0.00  0.00     0.000 A 
ATOM     22  C   UNL d   1      28.945 -11.305   8.238  0.00  0.00     0.003 A 
ATOM     23  C   UNL d   1      28.381 -11.847   7.082  0.00  0.00     0.037 A 
ENDBRANCH  17  18
ENDBRANCH  16  17
ENDBRANCH  15  16
ENDBRANCH  14  15
ENDBRANCH  11  14
ENDBRANCH   6   8
ENDBRANCH   5   6
ENDBRANCH   2   5
BRANCH   3  24
ATOM     24  C   UNL d   1      26.028 -16.512  -1.998  0.00  0.00     0.068 C 
ATOM     25  C   UNL d   1      27.371 -16.743  -1.628  0.00  0.00     0.032 C 
ATOM     26  C   UNL d   1      27.690 -17.300  -0.390  0.00  0.00     0.002 C 
ATOM     27  C   UNL d   1      26.669 -17.585   0.505  0.00  0.00     0.003 C 
ATOM     28  C   UNL d   1      25.331 -17.415   0.117  0.00  0.00     0.039 C 
ATOM     29  C   UNL d   1      24.982 -16.945  -1.162  0.00  0.00     0.095 C 
BRANCH  29  30
ATOM     30  O   UNL d   1      23.622 -17.011  -1.410  0.00  0.00    -0.347 OA
BRANCH  30  31
ATOM     31  C   UNL d   1      22.695 -17.385  -0.388  0.00  0.00     0.202 C 
BRANCH  31  32
ATOM     32  C   UNL d   1      22.082 -18.776  -0.547  0.00  0.00     0.202 C 
BRANCH  32  33
ATOM     33  O   UNL d   1      20.665 -18.578  -0.709  0.00  0.00    -0.349 OA
BRANCH  33  34
ATOM     34  C   UNL d   1      19.830 -19.386   0.002  0.00  0.00     0.068 A 
ATOM     35  C   UNL d   1      20.176 -19.568   1.340  0.00  0.00     0.037 A 
ATOM     36  C   UNL d   1      19.446 -20.444   2.146  0.00  0.00     0.003 A 
ATOM     37  C   UNL d   1      18.380 -21.162   1.606  0.00  0.00     0.000 A 
ATOM     38  C   UNL d   1      18.043 -20.996   0.266  0.00  0.00     0.003 A 
ATOM     39  C   UNL d   1      18.739 -20.075  -0.522  0.00  0.00     0.037 A 
ENDBRANCH  33  34
ENDBRANCH  32  33
ENDBRANCH  31  32
ENDBRANCH  30  31
ENDBRANCH  29  30
ENDBRANCH   3  24
TORSDOF 14
ENDMDL
MODEL 4
REMARK VINA RESULT:    -9.932      6.516      9.665
REMARK INTER + INTRA:         -16.487
REMARK INTER:                 -14.109
REMARK INTRA:                  -2.378
REMARK CONF_INDEPENDENT:        4.176
REMARK UNBOUND:                -2.378
REMARK  14 active torsions:
REMARK  status: ('A' for Active; 'I' for Inactive)
REMARK    1  A    between atoms: C_2  and  C_3 
REMARK       I    between atoms: C_2  and  N_21 
REMARK    2  A    between atoms: C_3  and  N_4 
REMARK    3  A    between atoms: N_4  and  C_5 
REMARK    4  A    between atoms: C_8  and  O_9 
REMARK    5  A    between atoms: O_9  and  C_10 
REMARK    6  A    between atoms: C_10  and  C_11 
REMARK    7  A    between atoms: C_11  and  O_12 
REMARK    8  A    between atoms: O_12  and  C_13 
REMARK    9  A    between atoms: N_21  and  C_22 
REMARK   10  A    between atoms: C_27  and  O_28 
REMARK   11  A    between atoms: O_28  and  C_29 
REMARK   12  A    between atoms: C_29  and  C_30 
REMARK   13  A    between atoms: C_30  and  O_31 
REMARK   14  A    between atoms: O_31  and  C_32 
ROOT
ATOM      1  O   UNL d   1      31.905 -15.350   1.862  0.00  0.00    -0.271 OA
ATOM      2  C   UNL d   1      30.905 -14.727   2.193  0.00  0.00     0.239 C 
ATOM      3  N   UNL d   1      30.836 -14.266   3.496  0.00  0.00    -0.323 N 
ATOM      4  H   UNL d   1      31.693 -14.379   4.029  0.00  0.00     0.169 HD
ENDROOT
BRANCH   2   5
ATOM      5  C   UNL d   1      29.645 -14.577   1.263  0.00  0.00     0.223 C 
BRANCH   5   6
ATOM      6  N   UNL d   1      29.284 -15.871   0.633  0.00  0.00    -0.381 N 
ATOM      7  H   UNL d   1      29.824 -16.666   0.981  0.00  0.00     0.160 HD
BRANCH   6   8
ATOM      8  C   UNL d   1      27.933 -16.117   0.371  0.00  0.00     0.028 A 
ATOM      9  C   UNL d   1      27.340 -17.373   0.560  0.00  0.00     0.032 A 
ATOM     10  C   UNL d   1      26.033 -17.653   0.121  0.00  0.00     0.039 A 
ATOM     11  C   UNL d   1      25.322 -16.689  -0.586  0.00  0.00     0.069 A 
ATOM     12  C   UNL d   1      25.906 -15.444  -0.782  0.00  0.00     0.039 A 
ATOM     13  C   UNL d   1      27.165 -15.154  -0.270  0.00  0.00     0.032 A 
BRANCH  11  14
ATOM     14  O   UNL d   1      24.093 -17.053  -1.067  0.00  0.00    -0.349 OA
BRANCH  14  15
ATOM     15  C   UNL d   1      23.460 -18.114  -0.345  0.00  0.00     0.202 C 
BRANCH  15  16
ATOM     16  C   UNL d   1      22.474 -18.827  -1.255  0.00  0.00     0.202 C 
BRANCH  16  17
ATOM     17  O   UNL d   1      21.174 -18.276  -1.038  0.00  0.00    -0.349 OA
BRANCH  17  18
ATOM     18  C   UNL d   1      20.301 -19.063  -0.337  0.00  0.00     0.068 A 
ATOM     19  C   UNL d   1      20.643 -19.325   0.992  0.00  0.00     0.037 A 
ATOM     20  C   UNL d   1      19.892 -20.225   1.751  0.00  0.00     0.003 A 
ATOM     21  C   UNL d   1      18.763 -20.828   1.199  0.00  0.00     0.000 A 
ATOM     22  C   UNL d   1      18.407 -20.554  -0.119  0.00  0.00     0.003 A 
ATOM     23  C   UNL d   1      19.180 -19.683  -0.889  0.00  0.00     0.037 A 
ENDBRANCH  17  18
ENDBRANCH  16  17
ENDBRANCH  15  16
ENDBRANCH  14  15
ENDBRANCH  11  14
ENDBRANCH   6   8
ENDBRANCH   5   6
ENDBRANCH   2   5
BRANCH   3  24
ATOM     24  C   UNL d   1      29.715 -13.818   4.207  0.00  0.00     0.068 C 
ATOM     25  C   UNL d   1      28.603 -14.686   4.161  0.00  0.00     0.032 C 
ATOM     26  C   UNL d   1      27.457 -14.429   4.912  0.00  0.00     0.002 C 
ATOM     27  C   UNL d   1      27.436 -13.325   5.754  0.00  0.00     0.003 C 
ATOM     28  C   UNL d   1      28.514 -12.426   5.756  0.00  0.00     0.039 C 
ATOM     29  C   UNL d   1      29.640 -12.615   4.933  0.00  0.00     0.095 C 
BRANCH  29  30
ATOM     30  O   UNL d   1      30.509 -11.538   4.952  0.00  0.00    -0.347 OA
BRANCH  30  31
ATOM     31  C   UNL d   1      31.113 -11.088   6.168  0.00  0.00     0.202 C 
BRANCH  31  32
ATOM     32  C   UNL d   1      31.462 -12.194   7.165  0.00  0.00     0.202 C 
BRANCH  32  33
ATOM     33  O   UNL d   1      30.644 -11.962   8.328  0.00  0.00    -0.349 OA
BRANCH  33  34
ATOM     34  C   UNL d   1      30.133 -13.052   8.966  0.00  0.00     0.068 A 
ATOM     35  C   UNL d   1      28.773 -12.984   9.265  0.00  0.00     0.037 A 
ATOM     36  C   UNL d   1      28.158 -14.003   9.994  0.00  0.00     0.003 A 
ATOM     37  C   UNL d   1      28.910 -15.083  10.451  0.00  0.00     0.000 A 
ATOM     38  C   UNL d   1      30.272 -15.146  10.171  0.00  0.00     0.003 A 
ATOM     39  C   UNL d   1      30.872 -14.154   9.390  0.00  0.00     0.037 A 
ENDBRANCH  33  34
ENDBRANCH  32  33
ENDBRANCH  31  32
ENDBRANCH  30  31
ENDBRANCH  29  30
ENDBRANCH   3  24
TORSDOF 14
ENDMDL
MODEL 5
REMARK VINA RESULT:    -9.568      1.840      2.570
REMARK INTER + INTRA:         -16.635
REMARK INTER:                 -13.744
REMARK INTRA:                  -2.891
REMARK CONF_INDEPENDENT:        4.176
REMARK UNBOUND:                -2.891
REMARK  14 active torsions:
REMARK  status: ('A' for Active; 'I' for Inactive)
REMARK    1  A    between atoms: C_2  and  C_3 
REMARK       I    between atoms: C_2  and  N_21 
REMARK    2  A    between atoms: C_3  and  N_4 
REMARK    3  A    between atoms: N_4  and  C_5 
REMARK    4  A    between atoms: C_8  and  O_9 
REMARK    5  A    between atoms: O_9  and  C_10 
REMARK    6  A    between atoms: C_10  and  C_11 
REMARK    7  A    between atoms: C_11  and  O_12 
REMARK    8  A    between atoms: O_12  and  C_13 
REMARK    9  A    between atoms: N_21  and  C_22 
REMARK   10  A    between atoms: C_27  and  O_28 
REMARK   11  A    between atoms: O_28  and  C_29 
REMARK   12  A    between atoms: C_29  and  C_30 
REMARK   13  A    between atoms: C_30  and  O_31 
REMARK   14  A    between atoms: O_31  and  C_32 
ROOT
ATOM      1  O   UNL d   1      31.006 -14.366  -2.459  0.00  0.00    -0.271 OA
ATOM      2  C   UNL d   1      29.907 -14.769  -2.817  0.00  0.00     0.239 C 
ATOM      3  N   UNL d   1      29.042 -13.853  -3.391  0.00  0.00    -0.323 N 
ATOM      4  H   UNL d   1      29.455 -12.946  -3.581  0.00  0.00     0.169 HD
ENDROOT
BRANCH   2   5
ATOM      5  C   UNL d   1      29.386 -16.220  -2.505  0.00  0.00     0.223 C 
BRANCH   5   6
ATOM      6  N   UNL d   1      28.891 -16.325  -1.110  0.00  0.00    -0.381 N 
ATOM      7  H   UNL d   1      29.141 -15.528  -0.521  0.00  0.00     0.160 HD
BRANCH   6   8
ATOM      8  C   UNL d   1      27.614 -16.859  -0.907  0.00  0.00     0.028 A 
ATOM      9  C   UNL d   1      26.517 -16.529  -1.712  0.00  0.00     0.032 A 
ATOM     10  C   UNL d   1      25.207 -16.927  -1.387  0.00  0.00     0.039 A 
ATOM     11  C   UNL d   1      24.970 -17.609  -0.197  0.00  0.00     0.069 A 
ATOM     12  C   UNL d   1      26.053 -17.935   0.609  0.00  0.00     0.039 A 
ATOM     13  C   UNL d   1      27.350 -17.608   0.233  0.00  0.00     0.032 A 
BRANCH  11  14
ATOM     14  O   UNL d   1      23.665 -17.887   0.109  0.00  0.00    -0.349 OA
BRANCH  14  15
ATOM     15  C   UNL d   1      22.710 -17.355  -0.815  0.00  0.00     0.202 C 
BRANCH  15  16
ATOM     16  C   UNL d   1      21.512 -18.288  -0.897  0.00  0.00     0.202 C 
BRANCH  16  17
ATOM     17  O   UNL d   1      21.550 -19.177   0.221  0.00  0.00    -0.349 OA
BRANCH  17  18
ATOM     18  C   UNL d   1      20.347 -19.700   0.609  0.00  0.00     0.068 A 
ATOM     19  C   UNL d   1      20.140 -19.805   1.987  0.00  0.00     0.037 A 
ATOM     20  C   UNL d   1      19.003 -20.448   2.484  0.00  0.00     0.003 A 
ATOM     21  C   UNL d   1      18.044 -20.943   1.603  0.00  0.00     0.000 A 
ATOM     22  C   UNL d   1      18.236 -20.822   0.229  0.00  0.00     0.003 A 
ATOM     23  C   UNL d   1      19.390 -20.212  -0.267  0.00  0.00     0.037 A 
ENDBRANCH  17  18
ENDBRANCH  16  17
ENDBRANCH  15  16
ENDBRANCH  14  15
ENDBRANCH  11  14
ENDBRANCH   6   8
ENDBRANCH   5   6
ENDBRANCH   2   5
BRANCH   3  24
ATOM     24  C   UNL d   1      27.660 -13.964  -3.593  0.00  0.00     0.068 C 
ATOM     25  C   UNL d   1      26.869 -13.280  -2.645  0.00  0.00     0.032 C 
ATOM     26  C   UNL d   1      25.484 -13.207  -2.782  0.00  0.00     0.002 C 
ATOM     27  C   UNL d   1      24.885 -13.777  -3.897  0.00  0.00     0.003 C 
ATOM     28  C   UNL d   1      25.660 -14.510  -4.809  0.00  0.00     0.039 C 
ATOM     29  C   UNL d   1      27.046 -14.680  -4.638  0.00  0.00     0.095 C 
BRANCH  29  30
ATOM     30  O   UNL d   1      27.596 -15.572  -5.541  0.00  0.00    -0.347 OA
BRANCH  30  31
ATOM     31  C   UNL d   1      28.545 -15.150  -6.524  0.00  0.00     0.202 C 
BRANCH  31  32
ATOM     32  C   UNL d   1      29.963 -14.922  -5.999  0.00  0.00     0.202 C 
BRANCH  32  33
ATOM     33  O   UNL d   1      30.830 -15.739  -6.810  0.00  0.00    -0.349 OA
BRANCH  33  34
ATOM     34  C   UNL d   1      30.746 -17.090  -6.656  0.00  0.00     0.068 A 
ATOM     35  C   UNL d   1      30.432 -17.524  -5.369  0.00  0.00     0.037 A 
ATOM     36  C   UNL d   1      30.405 -18.888  -5.072  0.00  0.00     0.003 A 
ATOM     37  C   UNL d   1      30.719 -19.823  -6.056  0.00  0.00     0.000 A 
ATOM     38  C   UNL d   1      31.052 -19.391  -7.338  0.00  0.00     0.003 A 
ATOM     39  C   UNL d   1      31.020 -18.029  -7.647  0.00  0.00     0.037 A 
ENDBRANCH  33  34
ENDBRANCH  32  33
ENDBRANCH  31  32
ENDBRANCH  30  31
ENDBRANCH  29  30
ENDBRANCH   3  24
TORSDOF 14
ENDMDL
MODEL 6
REMARK VINA RESULT:    -9.094      2.107      3.212
REMARK INTER + INTRA:         -16.276
REMARK INTER:                 -13.271
REMARK INTRA:                  -3.005
REMARK CONF_INDEPENDENT:        4.176
REMARK UNBOUND:                -3.005
REMARK  14 active torsions:
REMARK  status: ('A' for Active; 'I' for Inactive)
REMARK    1  A    between atoms: C_2  and  C_3 
REMARK       I    between atoms: C_2  and  N_21 
REMARK    2  A    between atoms: C_3  and  N_4 
REMARK    3  A    between atoms: N_4  and  C_5 
REMARK    4  A    between atoms: C_8  and  O_9 
REMARK    5  A    between atoms: O_9  and  C_10 
REMARK    6  A    between atoms: C_10  and  C_11 
REMARK    7  A    between atoms: C_11  and  O_12 
REMARK    8  A    between atoms: O_12  and  C_13 
REMARK    9  A    between atoms: N_21  and  C_22 
REMARK   10  A    between atoms: C_27  and  O_28 
REMARK   11  A    between atoms: O_28  and  C_29 
REMARK   12  A    between atoms: C_29  and  C_30 
REMARK   13  A    between atoms: C_30  and  O_31 
REMARK   14  A    between atoms: O_31  and  C_32 
ROOT
ATOM      1  O   UNL d   1      29.325 -14.584  -1.836  0.00  0.00    -0.271 OA
ATOM      2  C   UNL d   1      28.321 -13.883  -1.841  0.00  0.00     0.239 C 
ATOM      3  N   UNL d   1      28.091 -13.096  -2.956  0.00  0.00    -0.323 N 
ATOM      4  H   UNL d   1      28.721 -13.273  -3.733  0.00  0.00     0.169 HD
ENDROOT
BRANCH   2   5
ATOM      5  C   UNL d   1      27.388 -13.718  -0.585  0.00  0.00     0.223 C 
BRANCH   5   6
ATOM      6  N   UNL d   1      27.424 -14.927   0.274  0.00  0.00    -0.381 N 
ATOM      7  H   UNL d   1      27.484 -14.723   1.274  0.00  0.00     0.160 HD
BRANCH   6   8
ATOM      8  C   UNL d   1      26.610 -16.008  -0.082  0.00  0.00     0.028 A 
ATOM      9  C   UNL d   1      25.424 -15.856  -0.811  0.00  0.00     0.032 A 
ATOM     10  C   UNL d   1      24.525 -16.922  -1.003  0.00  0.00     0.039 A 
ATOM     11  C   UNL d   1      24.774 -18.149  -0.397  0.00  0.00     0.069 A 
ATOM     12  C   UNL d   1      25.946 -18.305   0.332  0.00  0.00     0.039 A 
ATOM     13  C   UNL d   1      26.864 -17.268   0.442  0.00  0.00     0.032 A 
BRANCH  11  14
ATOM     14  O   UNL d   1      23.818 -19.118  -0.544  0.00  0.00    -0.349 OA
BRANCH  14  15
ATOM     15  C   UNL d   1      22.923 -18.912  -1.642  0.00  0.00     0.202 C 
BRANCH  15  16
ATOM     16  C   UNL d   1      21.600 -18.376  -1.122  0.00  0.00     0.202 C 
BRANCH  16  17
ATOM     17  O   UNL d   1      20.601 -19.383  -1.292  0.00  0.00    -0.349 OA
BRANCH  17  18
ATOM     18  C   UNL d   1      20.018 -19.845  -0.144  0.00  0.00     0.068 A 
ATOM     19  C   UNL d   1      18.767 -20.450  -0.292  0.00  0.00     0.037 A 
ATOM     20  C   UNL d   1      18.029 -20.832   0.831  0.00  0.00     0.003 A 
ATOM     21  C   UNL d   1      18.563 -20.658   2.106  0.00  0.00     0.000 A 
ATOM     22  C   UNL d   1      19.818 -20.075   2.257  0.00  0.00     0.003 A 
ATOM     23  C   UNL d   1      20.539 -19.659   1.137  0.00  0.00     0.037 A 
ENDBRANCH  17  18
ENDBRANCH  16  17
ENDBRANCH  15  16
ENDBRANCH  14  15
ENDBRANCH  11  14
ENDBRANCH   6   8
ENDBRANCH   5   6
ENDBRANCH   2   5
BRANCH   3  24
ATOM     24  C   UNL d   1      27.226 -12.003  -3.091  0.00  0.00     0.068 C 
ATOM     25  C   UNL d   1      27.492 -10.928  -2.216  0.00  0.00     0.032 C 
ATOM     26  C   UNL d   1      26.786  -9.730  -2.312  0.00  0.00     0.002 C 
ATOM     27  C   UNL d   1      25.841  -9.582  -3.318  0.00  0.00     0.003 C 
ATOM     28  C   UNL d   1      25.530 -10.669  -4.150  0.00  0.00     0.039 C 
ATOM     29  C   UNL d   1      26.161 -11.918  -4.008  0.00  0.00     0.095 C 
BRANCH  29  30
ATOM     30  O   UNL d   1      25.597 -12.901  -4.802  0.00  0.00    -0.347 OA
BRANCH  30  31
ATOM     31  C   UNL d   1      25.155 -14.144  -4.249  0.00  0.00     0.202 C 
BRANCH  31  32
ATOM     32  C   UNL d   1      26.246 -15.201  -4.077  0.00  0.00     0.202 C 
BRANCH  32  33
ATOM     33  O   UNL d   1      26.731 -15.499  -5.400  0.00  0.00    -0.349 OA
BRANCH  33  34
ATOM     34  C   UNL d   1      27.949 -14.999  -5.752  0.00  0.00     0.068 A 
ATOM     35  C   UNL d   1      29.046 -15.675  -5.219  0.00  0.00     0.037 A 
ATOM     36  C   UNL d   1      30.341 -15.202  -5.439  0.00  0.00     0.003 A 
ATOM     37  C   UNL d   1      30.542 -14.034  -6.171  0.00  0.00     0.000 A 
ATOM     38  C   UNL d   1      29.447 -13.346  -6.688  0.00  0.00     0.003 A 
ATOM     39  C   UNL d   1      28.157 -13.854  -6.517  0.00  0.00     0.037 A 
ENDBRANCH  33  34
ENDBRANCH  32  33
ENDBRANCH  31  32
ENDBRANCH  30  31
ENDBRANCH  29  30
ENDBRANCH   3  24
TORSDOF 14
ENDMDL
MODEL 7
REMARK VINA RESULT:    -9.015      2.136      4.236
REMARK INTER + INTRA:         -16.870
REMARK INTER:                 -13.191
REMARK INTRA:                  -3.679
REMARK CONF_INDEPENDENT:        4.176
REMARK UNBOUND:                -3.679
REMARK  14 active torsions:
REMARK  status: ('A' for Active; 'I' for Inactive)
REMARK    1  A    between atoms: C_2  and  C_3 
REMARK       I    between atoms: C_2  and  N_21 
REMARK    2  A    between atoms: C_3  and  N_4 
REMARK    3  A    between atoms: N_4  and  C_5 
REMARK    4  A    between atoms: C_8  and  O_9 
REMARK    5  A    between atoms: O_9  and  C_10 
REMARK    6  A    between atoms: C_10  and  C_11 
REMARK    7  A    between atoms: C_11  and  O_12 
REMARK    8  A    between atoms: O_12  and  C_13 
REMARK    9  A    between atoms: N_21  and  C_22 
REMARK   10  A    between atoms: C_27  and  O_28 
REMARK   11  A    between atoms: O_28  and  C_29 
REMARK   12  A    between atoms: C_29  and  C_30 
REMARK   13  A    between atoms: C_30  and  O_31 
REMARK   14  A    between atoms: O_31  and  C_32 
ROOT
ATOM      1  O   UNL d   1      30.655 -13.188  -2.257  0.00  0.00    -0.271 OA
ATOM      2  C   UNL d   1      29.577 -13.757  -2.359  0.00  0.00     0.239 C 
ATOM      3  N   UNL d   1      28.831 -13.522  -3.501  0.00  0.00    -0.323 N 
ATOM      4  H   UNL d   1      29.314 -12.989  -4.217  0.00  0.00     0.169 HD
ENDROOT
BRANCH   2   5
ATOM      5  C   UNL d   1      28.941 -14.599  -1.192  0.00  0.00     0.223 C 
BRANCH   5   6
ATOM      6  N   UNL d   1      28.552 -15.953  -1.656  0.00  0.00    -0.381 N 
ATOM      7  H   UNL d   1      29.336 -16.602  -1.743  0.00  0.00     0.160 HD
BRANCH   6   8
ATOM      8  C   UNL d   1      27.360 -16.496  -1.165  0.00  0.00     0.028 A 
ATOM      9  C   UNL d   1      27.328 -17.458  -0.146  0.00  0.00     0.032 A 
ATOM     10  C   UNL d   1      26.142 -18.127   0.209  0.00  0.00     0.039 A 
ATOM     11  C   UNL d   1      24.975 -17.890  -0.510  0.00  0.00     0.069 A 
ATOM     12  C   UNL d   1      25.002 -16.941  -1.525  0.00  0.00     0.039 A 
ATOM     13  C   UNL d   1      26.160 -16.228  -1.809  0.00  0.00     0.032 A 
BRANCH  11  14
ATOM     14  O   UNL d   1      23.879 -18.639  -0.179  0.00  0.00    -0.349 OA
BRANCH  14  15
ATOM     15  C   UNL d   1      22.987 -18.905  -1.267  0.00  0.00     0.202 C 
BRANCH  15  16
ATOM     16  C   UNL d   1      21.587 -18.445  -0.898  0.00  0.00     0.202 C 
BRANCH  16  17
ATOM     17  O   UNL d   1      21.337 -18.794   0.465  0.00  0.00    -0.349 OA
BRANCH  17  18
ATOM     18  C   UNL d   1      20.190 -19.501   0.699  0.00  0.00     0.068 A 
ATOM     19  C   UNL d   1      19.910 -19.792   2.037  0.00  0.00     0.037 A 
ATOM     20  C   UNL d   1      18.837 -20.622   2.371  0.00  0.00     0.003 A 
ATOM     21  C   UNL d   1      18.008 -21.124   1.370  0.00  0.00     0.000 A 
ATOM     22  C   UNL d   1      18.271 -20.820   0.037  0.00  0.00     0.003 A 
ATOM     23  C   UNL d   1      19.365 -20.021  -0.299  0.00  0.00     0.037 A 
ENDBRANCH  17  18
ENDBRANCH  16  17
ENDBRANCH  15  16
ENDBRANCH  14  15
ENDBRANCH  11  14
ENDBRANCH   6   8
ENDBRANCH   5   6
ENDBRANCH   2   5
BRANCH   3  24
ATOM     24  C   UNL d   1      27.473 -13.781  -3.727  0.00  0.00     0.068 C 
ATOM     25  C   UNL d   1      26.588 -13.025  -2.927  0.00  0.00     0.032 C 
ATOM     26  C   UNL d   1      25.208 -13.093  -3.119  0.00  0.00     0.002 C 
ATOM     27  C   UNL d   1      24.708 -13.881  -4.146  0.00  0.00     0.003 C 
ATOM     28  C   UNL d   1      25.579 -14.682  -4.901  0.00  0.00     0.039 C 
ATOM     29  C   UNL d   1      26.965 -14.703  -4.661  0.00  0.00     0.095 C 
BRANCH  29  30
ATOM     30  O   UNL d   1      27.625 -15.677  -5.389  0.00  0.00    -0.347 OA
BRANCH  30  31
ATOM     31  C   UNL d   1      29.018 -15.569  -5.690  0.00  0.00     0.202 C 
BRANCH  31  32
ATOM     32  C   UNL d   1      29.368 -14.564  -6.788  0.00  0.00     0.202 C 
BRANCH  32  33
ATOM     33  O   UNL d   1      28.905 -13.281  -6.325  0.00  0.00    -0.349 OA
BRANCH  33  34
ATOM     34  C   UNL d   1      28.192 -12.516  -7.197  0.00  0.00     0.068 A 
ATOM     35  C   UNL d   1      28.543 -12.659  -8.539  0.00  0.00     0.037 A 
ATOM     36  C   UNL d   1      27.942 -11.863  -9.515  0.00  0.00     0.003 A 
ATOM     37  C   UNL d   1      27.003 -10.900  -9.148  0.00  0.00     0.000 A 
ATOM     38  C   UNL d   1      26.663 -10.742  -7.807  0.00  0.00     0.003 A 
ATOM     39  C   UNL d   1      27.224 -11.581  -6.840  0.00  0.00     0.037 A 
ENDBRANCH  33  34
ENDBRANCH  32  33
ENDBRANCH  31  32
ENDBRANCH  30  31
ENDBRANCH  29  30
ENDBRANCH   3  24
TORSDOF 14
ENDMDL
MODEL 8
REMARK VINA RESULT:    -8.415      2.132      4.080
REMARK INTER + INTRA:         -16.525
REMARK INTER:                 -12.591
REMARK INTRA:                  -3.934
REMARK CONF_INDEPENDENT:        4.176
REMARK UNBOUND:                -3.934
REMARK  14 active torsions:
REMARK  status: ('A' for Active; 'I' for Inactive)
REMARK    1  A    between atoms: C_2  and  C_3 
REMARK       I    between atoms: C_2  and  N_21 
REMARK    2  A    between atoms: C_3  and  N_4 
REMARK    3  A    between atoms: N_4  and  C_5 
REMARK    4  A    between atoms: C_8  and  O_9 
REMARK    5  A    between atoms: O_9  and  C_10 
REMARK    6  A    between atoms: C_10  and  C_11 
REMARK    7  A    between atoms: C_11  and  O_12 
REMARK    8  A    between atoms: O_12  and  C_13 
REMARK    9  A    between atoms: N_21  and  C_22 
REMARK   10  A    between atoms: C_27  and  O_28 
REMARK   11  A    between atoms: O_28  and  C_29 
REMARK   12  A    between atoms: C_29  and  C_30 
REMARK   13  A    between atoms: C_30  and  O_31 
REMARK   14  A    between atoms: O_31  and  C_32 
ROOT
ATOM      1  O   UNL d   1      30.917 -15.880  -2.793  0.00  0.00    -0.271 OA
ATOM      2  C   UNL d   1      29.811 -15.689  -2.305  0.00  0.00     0.239 C 
ATOM      3  N   UNL d   1      29.574 -14.462  -1.709  0.00  0.00    -0.323 N 
ATOM      4  H   UNL d   1      30.311 -13.778  -1.846  0.00  0.00     0.169 HD
ENDROOT
BRANCH   2   5
ATOM      5  C   UNL d   1      28.723 -16.819  -2.184  0.00  0.00     0.223 C 
BRANCH   5   6
ATOM      6  N   UNL d   1      27.370 -16.298  -2.496  0.00  0.00    -0.381 N 
ATOM      7  H   UNL d   1      27.146 -16.298  -3.493  0.00  0.00     0.160 HD
BRANCH   6   8
ATOM      8  C   UNL d   1      26.322 -16.639  -1.634  0.00  0.00     0.028 A 
ATOM      9  C   UNL d   1      26.475 -17.543  -0.574  0.00  0.00     0.032 A 
ATOM     10  C   UNL d   1      25.376 -18.015   0.167  0.00  0.00     0.039 A 
ATOM     11  C   UNL d   1      24.088 -17.637  -0.196  0.00  0.00     0.069 A 
ATOM     12  C   UNL d   1      23.928 -16.745  -1.248  0.00  0.00     0.039 A 
ATOM     13  C   UNL d   1      25.028 -16.222  -1.917  0.00  0.00     0.032 A 
BRANCH  11  14
ATOM     14  O   UNL d   1      23.056 -18.201   0.504  0.00  0.00    -0.349 OA
BRANCH  14  15
ATOM     15  C   UNL d   1      22.432 -19.314  -0.147  0.00  0.00     0.202 C 
BRANCH  15  16
ATOM     16  C   UNL d   1      21.480 -18.805  -1.217  0.00  0.00     0.202 C 
BRANCH  16  17
ATOM     17  O   UNL d   1      20.293 -18.329  -0.581  0.00  0.00    -0.349 OA
BRANCH  17  18
ATOM     18  C   UNL d   1      19.558 -19.267   0.091  0.00  0.00     0.068 A 
ATOM     19  C   UNL d   1      19.786 -19.355   1.467  0.00  0.00     0.037 A 
ATOM     20  C   UNL d   1      19.188 -20.369   2.219  0.00  0.00     0.003 A 
ATOM     21  C   UNL d   1      18.317 -21.268   1.606  0.00  0.00     0.000 A 
ATOM     22  C   UNL d   1      18.071 -21.171   0.239  0.00  0.00     0.003 A 
ATOM     23  C   UNL d   1      18.698 -20.181  -0.519  0.00  0.00     0.037 A 
ENDBRANCH  17  18
ENDBRANCH  16  17
ENDBRANCH  15  16
ENDBRANCH  14  15
ENDBRANCH  11  14
ENDBRANCH   6   8
ENDBRANCH   5   6
ENDBRANCH   2   5
BRANCH   3  24
ATOM     24  C   UNL d   1      28.546 -14.103  -0.828  0.00  0.00     0.068 C 
ATOM     25  C   UNL d   1      28.647 -14.674   0.460  0.00  0.00     0.032 C 
ATOM     26  C   UNL d   1      27.761 -14.319   1.476  0.00  0.00     0.002 C 
ATOM     27  C   UNL d   1      26.797 -13.352   1.224  0.00  0.00     0.003 C 
ATOM     28  C   UNL d   1      26.654 -12.829  -0.070  0.00  0.00     0.039 C 
ATOM     29  C   UNL d   1      27.474 -13.244  -1.135  0.00  0.00     0.095 C 
BRANCH  29  30
ATOM     30  O   UNL d   1      27.066 -12.743  -2.359  0.00  0.00    -0.347 OA
BRANCH  30  31
ATOM     31  C   UNL d   1      27.598 -13.248  -3.586  0.00  0.00     0.202 C 
BRANCH  31  32
ATOM     32  C   UNL d   1      26.589 -13.968  -4.482  0.00  0.00     0.202 C 
BRANCH  32  33
ATOM     33  O   UNL d   1      27.251 -15.150  -4.968  0.00  0.00    -0.349 OA
BRANCH  33  34
ATOM     34  C   UNL d   1      28.358 -14.978  -5.744  0.00  0.00     0.068 A 
ATOM     35  C   UNL d   1      29.324 -15.977  -5.632  0.00  0.00     0.037 A 
ATOM     36  C   UNL d   1      30.538 -15.864  -6.311  0.00  0.00     0.003 A 
ATOM     37  C   UNL d   1      30.801 -14.736  -7.086  0.00  0.00     0.000 A 
ATOM     38  C   UNL d   1      29.846 -13.728  -7.186  0.00  0.00     0.003 A 
ATOM     39  C   UNL d   1      28.609 -13.872  -6.552  0.00  0.00     0.037 A 
ENDBRANCH  33  34
ENDBRANCH  32  33
ENDBRANCH  31  32
ENDBRANCH  30  31
ENDBRANCH  29  30
ENDBRANCH   3  24
TORSDOF 14
ENDMDL
MODEL 9
REMARK VINA RESULT:    -8.375      2.026      3.048
REMARK INTER + INTRA:         -16.159
REMARK INTER:                 -12.551
REMARK INTRA:                  -3.608
REMARK CONF_INDEPENDENT:        4.176
REMARK UNBOUND:                -3.608
REMARK  14 active torsions:
REMARK  status: ('A' for Active; 'I' for Inactive)
REMARK    1  A    between atoms: C_2  and  C_3 
REMARK       I    between atoms: C_2  and  N_21 
REMARK    2  A    between atoms: C_3  and  N_4 
REMARK    3  A    between atoms: N_4  and  C_5 
REMARK    4  A    between atoms: C_8  and  O_9 
REMARK    5  A    between atoms: O_9  and  C_10 
REMARK    6  A    between atoms: C_10  and  C_11 
REMARK    7  A    between atoms: C_11  and  O_12 
REMARK    8  A    between atoms: O_12  and  C_13 
REMARK    9  A    between atoms: N_21  and  C_22 
REMARK   10  A    between atoms: C_27  and  O_28 
REMARK   11  A    between atoms: O_28  and  C_29 
REMARK   12  A    between atoms: C_29  and  C_30 
REMARK   13  A    between atoms: C_30  and  O_31 
REMARK   14  A    between atoms: O_31  and  C_32 
ROOT
ATOM      1  O   UNL d   1      30.781 -13.058  -1.924  0.00  0.00    -0.271 OA
ATOM      2  C   UNL d   1      29.755 -13.692  -2.129  0.00  0.00     0.239 C 
ATOM      3  N   UNL d   1      29.066 -13.440  -3.302  0.00  0.00    -0.323 N 
ATOM      4  H   UNL d   1      29.553 -12.832  -3.954  0.00  0.00     0.169 HD
ENDROOT
BRANCH   2   5
ATOM      5  C   UNL d   1      29.110 -14.645  -1.055  0.00  0.00     0.223 C 
BRANCH   5   6
ATOM      6  N   UNL d   1      28.622 -15.901  -1.674  0.00  0.00    -0.381 N 
ATOM      7  H   UNL d   1      29.364 -16.563  -1.908  0.00  0.00     0.160 HD
BRANCH   6   8
ATOM      8  C   UNL d   1      27.438 -16.459  -1.180  0.00  0.00     0.028 A 
ATOM      9  C   UNL d   1      27.423 -17.450  -0.190  0.00  0.00     0.032 A 
ATOM     10  C   UNL d   1      26.243 -18.130   0.165  0.00  0.00     0.039 A 
ATOM     11  C   UNL d   1      25.064 -17.871  -0.527  0.00  0.00     0.069 A 
ATOM     12  C   UNL d   1      25.074 -16.893  -1.513  0.00  0.00     0.039 A 
ATOM     13  C   UNL d   1      26.227 -16.171  -1.795  0.00  0.00     0.032 A 
BRANCH  11  14
ATOM     14  O   UNL d   1      23.973 -18.630  -0.199  0.00  0.00    -0.349 OA
BRANCH  14  15
ATOM     15  C   UNL d   1      23.093 -18.912  -1.292  0.00  0.00     0.202 C 
BRANCH  15  16
ATOM     16  C   UNL d   1      21.667 -18.569  -0.895  0.00  0.00     0.202 C 
BRANCH  16  17
ATOM     17  O   UNL d   1      21.478 -18.925   0.476  0.00  0.00    -0.349 OA
BRANCH  17  18
ATOM     18  C   UNL d   1      20.298 -19.550   0.773  0.00  0.00     0.068 A 
ATOM     19  C   UNL d   1      20.012 -19.708   2.132  0.00  0.00     0.037 A 
ATOM     20  C   UNL d   1      18.901 -20.450   2.540  0.00  0.00     0.003 A 
ATOM     21  C   UNL d   1      18.042 -20.994   1.588  0.00  0.00     0.000 A 
ATOM     22  C   UNL d   1      18.311 -20.822   0.232  0.00  0.00     0.003 A 
ATOM     23  C   UNL d   1      19.442 -20.112  -0.174  0.00  0.00     0.037 A 
ENDBRANCH  17  18
ENDBRANCH  16  17
ENDBRANCH  15  16
ENDBRANCH  14  15
ENDBRANCH  11  14
ENDBRANCH   6   8
ENDBRANCH   5   6
ENDBRANCH   2   5
BRANCH   3  24
ATOM     24  C   UNL d   1      27.746 -13.776  -3.631  0.00  0.00     0.068 C 
ATOM     25  C   UNL d   1      26.760 -13.095  -2.883  0.00  0.00     0.032 C 
ATOM     26  C   UNL d   1      25.405 -13.242  -3.177  0.00  0.00     0.002 C 
ATOM     27  C   UNL d   1      25.030 -14.035  -4.252  0.00  0.00     0.003 C 
ATOM     28  C   UNL d   1      26.001 -14.763  -4.957  0.00  0.00     0.039 C 
ATOM     29  C   UNL d   1      27.365 -14.705  -4.618  0.00  0.00     0.095 C 
BRANCH  29  30
ATOM     30  O   UNL d   1      28.135 -15.619  -5.314  0.00  0.00    -0.347 OA
BRANCH  30  31
ATOM     31  C   UNL d   1      29.562 -15.610  -5.232  0.00  0.00     0.202 C 
BRANCH  31  32
ATOM     32  C   UNL d   1      30.212 -16.987  -5.092  0.00  0.00     0.202 C 
BRANCH  32  33
ATOM     33  O   UNL d   1      29.912 -17.442  -3.759  0.00  0.00    -0.349 OA
BRANCH  33  34
ATOM     34  C   UNL d   1      30.813 -18.269  -3.159  0.00  0.00     0.068 A 
ATOM     35  C   UNL d   1      31.164 -19.401  -3.893  0.00  0.00     0.037 A 
ATOM     36  C   UNL d   1      32.011 -20.364  -3.344  0.00  0.00     0.003 A 
ATOM     37  C   UNL d   1      32.491 -20.212  -2.045  0.00  0.00     0.000 A 
ATOM     38  C   UNL d   1      32.127 -19.092  -1.301  0.00  0.00     0.003 A 
ATOM     39  C   UNL d   1      31.327 -18.101  -1.875  0.00  0.00     0.037 A 
ENDBRANCH  33  34
ENDBRANCH  32  33
ENDBRANCH  31  32
ENDBRANCH  30  31
ENDBRANCH  29  30
ENDBRANCH   3  24
TORSDOF 14
ENDMDL
