MODEL 1
REMARK VINA RESULT:    -8.115      0.000      0.000
REMARK INTER + INTRA:         -11.357
REMARK INTER:                 -10.501
REMARK INTRA:                  -0.856
REMARK CONF_INDEPENDENT:        2.386
REMARK UNBOUND:                -0.856
REMARK  8 active torsions:
REMARK  status: ('A' for Active; 'I' for Inactive)
REMARK       I    between atoms: C_2  and  N_3 
REMARK    1  A    between atoms: C_2  and  C_24 
REMARK    2  A    between atoms: N_3  and  N_4 
REMARK    3  A    between atoms: C_5  and  C_6 
REMARK    4  A    between atoms: C_5  and  C_18 
REMARK    5  A    between atoms: N_7  and  N_8 
REMARK       I    between atoms: N_8  and  C_9 
REMARK    6  A    between atoms: C_9  and  C_11 
REMARK    7  A    between atoms: C_14  and  O_15 
REMARK    8  A    between atoms: C_27  and  O_28 
ROOT
ATOM      1  N   UNL d   1      25.530 -15.790  -3.025  0.00  0.00    -0.170 NA
ATOM      2  C   UNL d   1      25.569 -15.983  -1.731  0.00  0.00     0.106 C 
ENDROOT
BRANCH   2   3
ATOM      3  C   UNL d   1      26.690 -15.450  -0.825  0.00  0.00     0.173 C 
ATOM      4  N   UNL d   1      26.905 -15.995   0.331  0.00  0.00    -0.182 NA
BRANCH   4   5
ATOM      5  N   UNL d   1      27.885 -15.498   1.152  0.00  0.00    -0.243 N 
ATOM      6  C   UNL d   1      27.642 -14.280   1.789  0.00  0.00     0.271 C 
ATOM      7  O   UNL d   1      26.609 -13.623   1.645  0.00  0.00    -0.266 OA
ATOM      8  H   UNL d   1      28.711 -16.048   1.357  0.00  0.00     0.192 HD
BRANCH   6   9
ATOM      9  C   UNL d   1      28.685 -13.759   2.717  0.00  0.00     0.033 A 
ATOM     10  C   UNL d   1      29.594 -12.767   2.328  0.00  0.00     0.020 A 
ATOM     11  C   UNL d   1      30.521 -12.257   3.252  0.00  0.00     0.037 A 
ATOM     12  C   UNL d   1      30.536 -12.742   4.559  0.00  0.00     0.065 A 
ATOM     13  C   UNL d   1      29.634 -13.721   4.957  0.00  0.00     0.037 A 
ATOM     14  C   UNL d   1      28.700 -14.220   4.043  0.00  0.00     0.020 A 
BRANCH  12  15
ATOM     15  O   UNL d   1      31.412 -12.282   5.496  0.00  0.00    -0.361 OA
ATOM     16  H   UNL d   1      32.182 -12.872   5.549  0.00  0.00     0.217 HD
ENDBRANCH  12  15
ENDBRANCH   6   9
ENDBRANCH   4   5
ENDBRANCH   2   3
BRANCH   2  17
ATOM     17  C   UNL d   1      24.506 -16.837  -1.083  0.00  0.00    -0.004 A 
ATOM     18  C   UNL d   1      24.780 -18.125  -0.600  0.00  0.00     0.014 A 
ATOM     19  C   UNL d   1      23.740 -18.952  -0.145  0.00  0.00     0.001 A 
ATOM     20  C   UNL d   1      22.430 -18.476  -0.097  0.00  0.00     0.000 A 
ATOM     21  C   UNL d   1      22.155 -17.177  -0.520  0.00  0.00     0.001 A 
ATOM     22  C   UNL d   1      23.187 -16.361  -1.010  0.00  0.00     0.014 A 
ENDBRANCH   2  17
BRANCH   1  23
ATOM     23  N   UNL d   1      26.523 -15.047  -3.636  0.00  0.00    -0.242 N 
ATOM     24  C   UNL d   1      26.764 -15.157  -5.001  0.00  0.00     0.271 C 
ATOM     25  O   UNL d   1      26.150 -15.898  -5.770  0.00  0.00    -0.266 OA
ATOM     26  H   UNL d   1      27.021 -14.345  -3.077  0.00  0.00     0.192 HD
BRANCH  24  27
ATOM     27  C   UNL d   1      27.834 -14.273  -5.564  0.00  0.00     0.033 A 
ATOM     28  C   UNL d   1      27.747 -12.884  -5.373  0.00  0.00     0.020 A 
ATOM     29  C   UNL d   1      28.732 -12.023  -5.886  0.00  0.00     0.037 A 
ATOM     30  C   UNL d   1      29.793 -12.555  -6.611  0.00  0.00     0.065 A 
ATOM     31  C   UNL d   1      29.869 -13.924  -6.842  0.00  0.00     0.037 A 
ATOM     32  C   UNL d   1      28.892 -14.785  -6.322  0.00  0.00     0.020 A 
BRANCH  30  33
ATOM     33  O   UNL d   1      30.789 -11.775  -7.122  0.00  0.00    -0.361 OA
ATOM     34  H   UNL d   1      31.128 -12.177  -7.937  0.00  0.00     0.217 HD
ENDBRANCH  30  33
ENDBRANCH  24  27
ENDBRANCH   1  23
TORSDOF 8
ENDMDL
MODEL 2
REMARK VINA RESULT:    -7.785      4.339      6.638
REMARK INTER + INTRA:         -11.622
REMARK INTER:                 -10.171
REMARK INTRA:                  -1.451
REMARK CONF_INDEPENDENT:        2.386
REMARK UNBOUND:                -1.451
REMARK  8 active torsions:
REMARK  status: ('A' for Active; 'I' for Inactive)
REMARK       I    between atoms: C_2  and  N_3 
REMARK    1  A    between atoms: C_2  and  C_24 
REMARK    2  A    between atoms: N_3  and  N_4 
REMARK    3  A    between atoms: C_5  and  C_6 
REMARK    4  A    between atoms: C_5  and  C_18 
REMARK    5  A    between atoms: N_7  and  N_8 
REMARK       I    between atoms: N_8  and  C_9 
REMARK    6  A    between atoms: C_9  and  C_11 
REMARK    7  A    between atoms: C_14  and  O_15 
REMARK    8  A    between atoms: C_27  and  O_28 
ROOT
ATOM      1  N   UNL d   1      24.344 -14.289  -3.061  0.00  0.00    -0.170 NA
ATOM      2  C   UNL d   1      25.139 -15.282  -2.756  0.00  0.00     0.106 C 
ENDROOT
BRANCH   2   3
ATOM      3  C   UNL d   1      26.455 -15.575  -3.492  0.00  0.00     0.173 C 
ATOM      4  N   UNL d   1      27.434 -14.728  -3.434  0.00  0.00    -0.182 NA
BRANCH   4   5
ATOM      5  N   UNL d   1      28.597 -14.976  -4.118  0.00  0.00    -0.243 N 
ATOM      6  C   UNL d   1      28.507 -15.199  -5.493  0.00  0.00     0.271 C 
ATOM      7  O   UNL d   1      27.446 -15.200  -6.121  0.00  0.00    -0.266 OA
ATOM      8  H   UNL d   1      29.494 -14.903  -3.651  0.00  0.00     0.192 HD
BRANCH   6   9
ATOM      9  C   UNL d   1      29.772 -15.424  -6.246  0.00  0.00     0.033 A 
ATOM     10  C   UNL d   1      30.331 -16.700  -6.394  0.00  0.00     0.020 A 
ATOM     11  C   UNL d   1      31.491 -16.879  -7.166  0.00  0.00     0.037 A 
ATOM     12  C   UNL d   1      32.087 -15.783  -7.785  0.00  0.00     0.065 A 
ATOM     13  C   UNL d   1      31.539 -14.514  -7.652  0.00  0.00     0.037 A 
ATOM     14  C   UNL d   1      30.375 -14.335  -6.896  0.00  0.00     0.020 A 
BRANCH  12  15
ATOM     15  O   UNL d   1      33.212 -15.900  -8.546  0.00  0.00    -0.361 OA
ATOM     16  H   UNL d   1      33.446 -15.038  -8.928  0.00  0.00     0.217 HD
ENDBRANCH  12  15
ENDBRANCH   6   9
ENDBRANCH   4   5
ENDBRANCH   2   3
BRANCH   2  17
ATOM     17  C   UNL d   1      24.722 -16.252  -1.675  0.00  0.00    -0.004 A 
ATOM     18  C   UNL d   1      25.626 -17.155  -1.098  0.00  0.00     0.014 A 
ATOM     19  C   UNL d   1      25.176 -18.145  -0.210  0.00  0.00     0.001 A 
ATOM     20  C   UNL d   1      23.835 -18.196   0.169  0.00  0.00     0.000 A 
ATOM     21  C   UNL d   1      22.938 -17.267  -0.354  0.00  0.00     0.001 A 
ATOM     22  C   UNL d   1      23.378 -16.298  -1.270  0.00  0.00     0.014 A 
ENDBRANCH   2  17
BRANCH   1  23
ATOM     23  N   UNL d   1      24.693 -13.421  -4.078  0.00  0.00    -0.242 N 
ATOM     24  C   UNL d   1      25.609 -12.397  -3.865  0.00  0.00     0.271 C 
ATOM     25  O   UNL d   1      26.174 -12.165  -2.795  0.00  0.00    -0.266 OA
ATOM     26  H   UNL d   1      24.329 -13.601  -5.020  0.00  0.00     0.192 HD
BRANCH  24  27
ATOM     27  C   UNL d   1      25.946 -11.544  -5.049  0.00  0.00     0.033 A 
ATOM     28  C   UNL d   1      26.747 -12.076  -6.073  0.00  0.00     0.020 A 
ATOM     29  C   UNL d   1      27.084 -11.307  -7.199  0.00  0.00     0.037 A 
ATOM     30  C   UNL d   1      26.635  -9.994  -7.287  0.00  0.00     0.065 A 
ATOM     31  C   UNL d   1      25.875  -9.441  -6.261  0.00  0.00     0.037 A 
ATOM     32  C   UNL d   1      25.530 -10.211  -5.142  0.00  0.00     0.020 A 
BRANCH  30  33
ATOM     33  O   UNL d   1      26.914  -9.199  -8.360  0.00  0.00    -0.361 OA
ATOM     34  H   UNL d   1      26.100  -9.037  -8.864  0.00  0.00     0.217 HD
ENDBRANCH  30  33
ENDBRANCH  24  27
ENDBRANCH   1  23
TORSDOF 8
ENDMDL
MODEL 3
REMARK VINA RESULT:    -7.514      1.414      7.532
REMARK INTER + INTRA:         -10.910
REMARK INTER:                  -9.900
REMARK INTRA:                  -1.009
REMARK CONF_INDEPENDENT:        2.386
REMARK UNBOUND:                -1.009
REMARK  8 active torsions:
REMARK  status: ('A' for Active; 'I' for Inactive)
REMARK       I    between atoms: C_2  and  N_3 
REMARK    1  A    between atoms: C_2  and  C_24 
REMARK    2  A    between atoms: N_3  and  N_4 
REMARK    3  A    between atoms: C_5  and  C_6 
REMARK    4  A    between atoms: C_5  and  C_18 
REMARK    5  A    between atoms: N_7  and  N_8 
REMARK       I    between atoms: N_8  and  C_9 
REMARK    6  A    between atoms: C_9  and  C_11 
REMARK    7  A    between atoms: C_14  and  O_15 
REMARK    8  A    between atoms: C_27  and  O_28 
ROOT
ATOM      1  N   UNL d   1      26.509 -16.635   0.979  0.00  0.00    -0.170 NA
ATOM      2  C   UNL d   1      26.074 -16.692  -0.254  0.00  0.00     0.106 C 
ENDROOT
BRANCH   2   3
ATOM      3  C   UNL d   1      26.877 -16.191  -1.464  0.00  0.00     0.173 C 
ATOM      4  N   UNL d   1      26.643 -15.016  -1.958  0.00  0.00    -0.182 NA
BRANCH   4   5
ATOM      5  N   UNL d   1      27.339 -14.583  -3.058  0.00  0.00    -0.243 N 
ATOM      6  C   UNL d   1      26.652 -14.504  -4.271  0.00  0.00     0.271 C 
ATOM      7  O   UNL d   1      25.467 -14.813  -4.411  0.00  0.00    -0.266 OA
ATOM      8  H   UNL d   1      28.290 -14.245  -2.964  0.00  0.00     0.192 HD
BRANCH   6   9
ATOM      9  C   UNL d   1      27.392 -13.992  -5.458  0.00  0.00     0.033 A 
ATOM     10  C   UNL d   1      27.151 -12.720  -5.990  0.00  0.00     0.020 A 
ATOM     11  C   UNL d   1      27.914 -12.249  -7.072  0.00  0.00     0.037 A 
ATOM     12  C   UNL d   1      28.913 -13.053  -7.616  0.00  0.00     0.065 A 
ATOM     13  C   UNL d   1      29.166 -14.315  -7.093  0.00  0.00     0.037 A 
ATOM     14  C   UNL d   1      28.417 -14.780  -6.006  0.00  0.00     0.020 A 
BRANCH  12  15
ATOM     15  O   UNL d   1      29.684 -12.646  -8.664  0.00  0.00    -0.361 OA
ATOM     16  H   UNL d   1      29.730 -13.347  -9.335  0.00  0.00     0.217 HD
ENDBRANCH  12  15
ENDBRANCH   6   9
ENDBRANCH   4   5
ENDBRANCH   2   3
BRANCH   2  17
ATOM     17  C   UNL d   1      24.677 -17.202  -0.516  0.00  0.00    -0.004 A 
ATOM     18  C   UNL d   1      23.607 -16.336  -0.781  0.00  0.00     0.014 A 
ATOM     19  C   UNL d   1      22.295 -16.829  -0.867  0.00  0.00     0.001 A 
ATOM     20  C   UNL d   1      22.047 -18.198  -0.765  0.00  0.00     0.000 A 
ATOM     21  C   UNL d   1      23.111 -19.074  -0.560  0.00  0.00     0.001 A 
ATOM     22  C   UNL d   1      24.419 -18.581  -0.437  0.00  0.00     0.014 A 
ENDBRANCH   2  17
BRANCH   1  23
ATOM     23  N   UNL d   1      27.769 -16.127   1.236  0.00  0.00    -0.242 N 
ATOM     24  C   UNL d   1      27.936 -14.845   1.747  0.00  0.00     0.271 C 
ATOM     25  O   UNL d   1      27.020 -14.063   2.007  0.00  0.00    -0.266 OA
ATOM     26  H   UNL d   1      28.578 -16.749   1.125  0.00  0.00     0.192 HD
BRANCH  24  27
ATOM     27  C   UNL d   1      29.343 -14.415   2.028  0.00  0.00     0.033 A 
ATOM     28  C   UNL d   1      29.582 -13.464   3.034  0.00  0.00     0.020 A 
ATOM     29  C   UNL d   1      30.888 -13.037   3.327  0.00  0.00     0.037 A 
ATOM     30  C   UNL d   1      31.953 -13.547   2.593  0.00  0.00     0.065 A 
ATOM     31  C   UNL d   1      31.727 -14.458   1.566  0.00  0.00     0.037 A 
ATOM     32  C   UNL d   1      30.425 -14.893   1.280  0.00  0.00     0.020 A 
BRANCH  30  33
ATOM     33  O   UNL d   1      33.245 -13.184   2.837  0.00  0.00    -0.361 OA
ATOM     34  H   UNL d   1      33.493 -13.454   3.736  0.00  0.00     0.217 HD
ENDBRANCH  30  33
ENDBRANCH  24  27
ENDBRANCH   1  23
TORSDOF 8
ENDMDL
MODEL 4
REMARK VINA RESULT:    -7.503      5.903     10.161
REMARK INTER + INTRA:         -10.825
REMARK INTER:                  -9.889
REMARK INTRA:                  -0.935
REMARK CONF_INDEPENDENT:        2.386
REMARK UNBOUND:                -0.935
REMARK  8 active torsions:
REMARK  status: ('A' for Active; 'I' for Inactive)
REMARK       I    between atoms: C_2  and  N_3 
REMARK    1  A    between atoms: C_2  and  C_24 
REMARK    2  A    between atoms: N_3  and  N_4 
REMARK    3  A    between atoms: C_5  and  C_6 
REMARK    4  A    between atoms: C_5  and  C_18 
REMARK    5  A    between atoms: N_7  and  N_8 
REMARK       I    between atoms: N_8  and  C_9 
REMARK    6  A    between atoms: C_9  and  C_11 
REMARK    7  A    between atoms: C_14  and  O_15 
REMARK    8  A    between atoms: C_27  and  O_28 
ROOT
ATOM      1  N   UNL d   1      32.770 -19.000  -0.116  0.00  0.00    -0.170 NA
ATOM      2  C   UNL d   1      31.912 -18.739  -1.069  0.00  0.00     0.106 C 
ENDROOT
BRANCH   2   3
ATOM      3  C   UNL d   1      30.389 -18.842  -0.895  0.00  0.00     0.173 C 
ATOM      4  N   UNL d   1      29.716 -17.830  -0.444  0.00  0.00    -0.182 NA
BRANCH   4   5
ATOM      5  N   UNL d   1      28.361 -17.935  -0.259  0.00  0.00    -0.243 N 
ATOM      6  C   UNL d   1      27.539 -17.061  -0.974  0.00  0.00     0.271 C 
ATOM      7  O   UNL d   1      27.960 -16.198  -1.746  0.00  0.00    -0.266 OA
ATOM      8  H   UNL d   1      27.976 -18.684   0.304  0.00  0.00     0.192 HD
BRANCH   6   9
ATOM      9  C   UNL d   1      26.065 -17.201  -0.810  0.00  0.00     0.033 A 
ATOM     10  C   UNL d   1      25.501 -18.183   0.015  0.00  0.00     0.020 A 
ATOM     11  C   UNL d   1      24.108 -18.241   0.192  0.00  0.00     0.037 A 
ATOM     12  C   UNL d   1      23.288 -17.320  -0.455  0.00  0.00     0.065 A 
ATOM     13  C   UNL d   1      23.836 -16.338  -1.270  0.00  0.00     0.037 A 
ATOM     14  C   UNL d   1      25.224 -16.268  -1.438  0.00  0.00     0.020 A 
BRANCH  12  15
ATOM     15  O   UNL d   1      21.931 -17.330  -0.317  0.00  0.00    -0.361 OA
ATOM     16  H   UNL d   1      21.692 -17.563   0.595  0.00  0.00     0.217 HD
ENDBRANCH  12  15
ENDBRANCH   6   9
ENDBRANCH   4   5
ENDBRANCH   2   3
BRANCH   2  17
ATOM     17  C   UNL d   1      32.427 -18.389  -2.445  0.00  0.00    -0.004 A 
ATOM     18  C   UNL d   1      31.596 -18.402  -3.575  0.00  0.00     0.014 A 
ATOM     19  C   UNL d   1      32.136 -18.224  -4.859  0.00  0.00     0.001 A 
ATOM     20  C   UNL d   1      33.495 -17.956  -5.022  0.00  0.00     0.000 A 
ATOM     21  C   UNL d   1      34.319 -17.883  -3.901  0.00  0.00     0.001 A 
ATOM     22  C   UNL d   1      33.789 -18.097  -2.619  0.00  0.00     0.014 A 
ENDBRANCH   2  17
BRANCH   1  23
ATOM     23  N   UNL d   1      32.311 -19.365   1.136  0.00  0.00    -0.242 N 
ATOM     24  C   UNL d   1      32.736 -20.543   1.740  0.00  0.00     0.271 C 
ATOM     25  O   UNL d   1      33.526 -21.348   1.244  0.00  0.00    -0.266 OA
ATOM     26  H   UNL d   1      31.717 -18.705   1.649  0.00  0.00     0.192 HD
BRANCH  24  27
ATOM     27  C   UNL d   1      32.208 -20.817   3.115  0.00  0.00     0.033 A 
ATOM     28  C   UNL d   1      33.046 -20.615   4.225  0.00  0.00     0.020 A 
ATOM     29  C   UNL d   1      32.586 -20.860   5.529  0.00  0.00     0.037 A 
ATOM     30  C   UNL d   1      31.291 -21.331   5.719  0.00  0.00     0.065 A 
ATOM     31  C   UNL d   1      30.466 -21.575   4.627  0.00  0.00     0.037 A 
ATOM     32  C   UNL d   1      30.920 -21.320   3.325  0.00  0.00     0.020 A 
BRANCH  30  33
ATOM     33  O   UNL d   1      30.780 -21.575   6.960  0.00  0.00    -0.361 OA
ATOM     34  H   UNL d   1      30.388 -22.462   6.980  0.00  0.00     0.217 HD
ENDBRANCH  30  33
ENDBRANCH  24  27
ENDBRANCH   1  23
TORSDOF 8
ENDMDL
MODEL 5
REMARK VINA RESULT:    -7.318      1.277      1.333
REMARK INTER + INTRA:         -11.207
REMARK INTER:                  -9.705
REMARK INTRA:                  -1.502
REMARK CONF_INDEPENDENT:        2.386
REMARK UNBOUND:                -1.502
REMARK  8 active torsions:
REMARK  status: ('A' for Active; 'I' for Inactive)
REMARK       I    between atoms: C_2  and  N_3 
REMARK    1  A    between atoms: C_2  and  C_24 
REMARK    2  A    between atoms: N_3  and  N_4 
REMARK    3  A    between atoms: C_5  and  C_6 
REMARK    4  A    between atoms: C_5  and  C_18 
REMARK    5  A    between atoms: N_7  and  N_8 
REMARK       I    between atoms: N_8  and  C_9 
REMARK    6  A    between atoms: C_9  and  C_11 
REMARK    7  A    between atoms: C_14  and  O_15 
REMARK    8  A    between atoms: C_27  and  O_28 
ROOT
ATOM      1  N   UNL d   1      25.669 -16.054  -2.461  0.00  0.00    -0.170 NA
ATOM      2  C   UNL d   1      25.377 -16.349  -1.220  0.00  0.00     0.106 C 
ENDROOT
BRANCH   2   3
ATOM      3  C   UNL d   1      26.240 -15.931  -0.020  0.00  0.00     0.173 C 
ATOM      4  N   UNL d   1      27.532 -15.917  -0.123  0.00  0.00    -0.182 NA
BRANCH   4   5
ATOM      5  N   UNL d   1      28.303 -15.574   0.959  0.00  0.00    -0.243 N 
ATOM      6  C   UNL d   1      27.936 -14.439   1.684  0.00  0.00     0.271 C 
ATOM      7  O   UNL d   1      26.973 -13.723   1.400  0.00  0.00    -0.266 OA
ATOM      8  H   UNL d   1      29.051 -16.183   1.269  0.00  0.00     0.192 HD
BRANCH   6   9
ATOM      9  C   UNL d   1      28.744 -14.090   2.885  0.00  0.00     0.033 A 
ATOM     10  C   UNL d   1      29.940 -13.366   2.791  0.00  0.00     0.020 A 
ATOM     11  C   UNL d   1      30.639 -13.002   3.953  0.00  0.00     0.037 A 
ATOM     12  C   UNL d   1      30.141 -13.363   5.204  0.00  0.00     0.065 A 
ATOM     13  C   UNL d   1      28.953 -14.074   5.311  0.00  0.00     0.037 A 
ATOM     14  C   UNL d   1      28.246 -14.426   4.155  0.00  0.00     0.020 A 
BRANCH  12  15
ATOM     15  O   UNL d   1      30.778 -13.034   6.363  0.00  0.00    -0.361 OA
ATOM     16  H   UNL d   1      31.736 -13.161   6.264  0.00  0.00     0.217 HD
ENDBRANCH  12  15
ENDBRANCH   6   9
ENDBRANCH   4   5
ENDBRANCH   2   3
BRANCH   2  17
ATOM     17  C   UNL d   1      24.170 -17.211  -0.935  0.00  0.00    -0.004 A 
ATOM     18  C   UNL d   1      24.288 -18.574  -0.624  0.00  0.00     0.014 A 
ATOM     19  C   UNL d   1      23.144 -19.382  -0.517  0.00  0.00     0.001 A 
ATOM     20  C   UNL d   1      21.872 -18.824  -0.643  0.00  0.00     0.000 A 
ATOM     21  C   UNL d   1      21.742 -17.460  -0.895  0.00  0.00     0.001 A 
ATOM     22  C   UNL d   1      22.884 -16.657  -1.039  0.00  0.00     0.014 A 
ENDBRANCH   2  17
BRANCH   1  23
ATOM     23  N   UNL d   1      26.796 -15.303  -2.738  0.00  0.00    -0.242 N 
ATOM     24  C   UNL d   1      27.228 -15.113  -4.045  0.00  0.00     0.271 C 
ATOM     25  O   UNL d   1      26.680 -15.578  -5.046  0.00  0.00    -0.266 OA
ATOM     26  H   UNL d   1      27.258 -14.812  -1.964  0.00  0.00     0.192 HD
BRANCH  24  27
ATOM     27  C   UNL d   1      28.435 -14.246  -4.232  0.00  0.00     0.033 A 
ATOM     28  C   UNL d   1      29.288 -14.013  -3.140  0.00  0.00     0.020 A 
ATOM     29  C   UNL d   1      30.430 -13.206  -3.276  0.00  0.00     0.037 A 
ATOM     30  C   UNL d   1      30.703 -12.613  -4.504  0.00  0.00     0.065 A 
ATOM     31  C   UNL d   1      29.845 -12.801  -5.582  0.00  0.00     0.037 A 
ATOM     32  C   UNL d   1      28.710 -13.615  -5.449  0.00  0.00     0.020 A 
BRANCH  30  33
ATOM     33  O   UNL d   1      31.803 -11.831  -4.706  0.00  0.00    -0.361 OA
ATOM     34  H   UNL d   1      32.590 -12.286  -4.369  0.00  0.00     0.217 HD
ENDBRANCH  30  33
ENDBRANCH  24  27
ENDBRANCH   1  23
TORSDOF 8
ENDMDL
MODEL 6
REMARK VINA RESULT:    -7.279      1.298      1.535
REMARK INTER + INTRA:         -11.208
REMARK INTER:                  -9.666
REMARK INTRA:                  -1.542
REMARK CONF_INDEPENDENT:        2.386
REMARK UNBOUND:                -1.542
REMARK  8 active torsions:
REMARK  status: ('A' for Active; 'I' for Inactive)
REMARK       I    between atoms: C_2  and  N_3 
REMARK    1  A    between atoms: C_2  and  C_24 
REMARK    2  A    between atoms: N_3  and  N_4 
REMARK    3  A    between atoms: C_5  and  C_6 
REMARK    4  A    between atoms: C_5  and  C_18 
REMARK    5  A    between atoms: N_7  and  N_8 
REMARK       I    between atoms: N_8  and  C_9 
REMARK    6  A    between atoms: C_9  and  C_11 
REMARK    7  A    between atoms: C_14  and  O_15 
REMARK    8  A    between atoms: C_27  and  O_28 
ROOT
ATOM      1  N   UNL d   1      24.935 -15.949  -2.421  0.00  0.00    -0.170 NA
ATOM      2  C   UNL d   1      24.825 -16.373  -1.188  0.00  0.00     0.106 C 
ENDROOT
BRANCH   2   3
ATOM      3  C   UNL d   1      25.766 -15.943  -0.052  0.00  0.00     0.173 C 
ATOM      4  N   UNL d   1      27.050 -15.988  -0.221  0.00  0.00    -0.182 NA
BRANCH   4   5
ATOM      5  N   UNL d   1      27.889 -15.634   0.805  0.00  0.00    -0.243 N 
ATOM      6  C   UNL d   1      27.628 -14.437   1.474  0.00  0.00     0.271 C 
ATOM      7  O   UNL d   1      26.699 -13.678   1.187  0.00  0.00    -0.266 OA
ATOM      8  H   UNL d   1      28.612 -16.271   1.121  0.00  0.00     0.192 HD
BRANCH   6   9
ATOM      9  C   UNL d   1      28.509 -14.071   2.617  0.00  0.00     0.033 A 
ATOM     10  C   UNL d   1      29.661 -13.292   2.446  0.00  0.00     0.020 A 
ATOM     11  C   UNL d   1      30.431 -12.915   3.559  0.00  0.00     0.037 A 
ATOM     12  C   UNL d   1      30.048 -13.320   4.836  0.00  0.00     0.065 A 
ATOM     13  C   UNL d   1      28.905 -14.087   5.019  0.00  0.00     0.037 A 
ATOM     14  C   UNL d   1      28.127 -14.452   3.914  0.00  0.00     0.020 A 
BRANCH  12  15
ATOM     15  O   UNL d   1      30.758 -12.982   5.950  0.00  0.00    -0.361 OA
ATOM     16  H   UNL d   1      31.528 -13.566   6.043  0.00  0.00     0.217 HD
ENDBRANCH  12  15
ENDBRANCH   6   9
ENDBRANCH   4   5
ENDBRANCH   2   3
BRANCH   2  17
ATOM     17  C   UNL d   1      23.770 -17.402  -0.857  0.00  0.00    -0.004 A 
ATOM     18  C   UNL d   1      24.096 -18.735  -0.567  0.00  0.00     0.014 A 
ATOM     19  C   UNL d   1      23.087 -19.700  -0.416  0.00  0.00     0.001 A 
ATOM     20  C   UNL d   1      21.744 -19.331  -0.477  0.00  0.00     0.000 A 
ATOM     21  C   UNL d   1      21.407 -17.999  -0.708  0.00  0.00     0.001 A 
ATOM     22  C   UNL d   1      22.414 -17.038  -0.895  0.00  0.00     0.014 A 
ENDBRANCH   2  17
BRANCH   1  23
ATOM     23  N   UNL d   1      25.925 -15.041  -2.745  0.00  0.00    -0.242 N 
ATOM     24  C   UNL d   1      25.769 -14.158  -3.807  0.00  0.00     0.271 C 
ATOM     25  O   UNL d   1      24.779 -14.098  -4.538  0.00  0.00    -0.266 OA
ATOM     26  H   UNL d   1      26.744 -14.972  -2.131  0.00  0.00     0.192 HD
BRANCH  24  27
ATOM     27  C   UNL d   1      26.887 -13.189  -4.041  0.00  0.00     0.033 A 
ATOM     28  C   UNL d   1      27.138 -12.187  -3.089  0.00  0.00     0.020 A 
ATOM     29  C   UNL d   1      28.178 -11.261  -3.274  0.00  0.00     0.037 A 
ATOM     30  C   UNL d   1      28.953 -11.326  -4.426  0.00  0.00     0.065 A 
ATOM     31  C   UNL d   1      28.689 -12.287  -5.397  0.00  0.00     0.037 A 
ATOM     32  C   UNL d   1      27.657 -13.218  -5.209  0.00  0.00     0.020 A 
BRANCH  30  33
ATOM     33  O   UNL d   1      29.987 -10.466  -4.658  0.00  0.00    -0.361 OA
ATOM     34  H   UNL d   1      30.829 -10.927  -4.515  0.00  0.00     0.217 HD
ENDBRANCH  30  33
ENDBRANCH  24  27
ENDBRANCH   1  23
TORSDOF 8
ENDMDL
MODEL 7
REMARK VINA RESULT:    -7.096      4.189      7.544
REMARK INTER + INTRA:         -10.896
REMARK INTER:                  -9.482
REMARK INTRA:                  -1.414
REMARK CONF_INDEPENDENT:        2.386
REMARK UNBOUND:                -1.414
REMARK  8 active torsions:
REMARK  status: ('A' for Active; 'I' for Inactive)
REMARK       I    between atoms: C_2  and  N_3 
REMARK    1  A    between atoms: C_2  and  C_24 
REMARK    2  A    between atoms: N_3  and  N_4 
REMARK    3  A    between atoms: C_5  and  C_6 
REMARK    4  A    between atoms: C_5  and  C_18 
REMARK    5  A    between atoms: N_7  and  N_8 
REMARK       I    between atoms: N_8  and  C_9 
REMARK    6  A    between atoms: C_9  and  C_11 
REMARK    7  A    between atoms: C_14  and  O_15 
REMARK    8  A    between atoms: C_27  and  O_28 
ROOT
ATOM      1  N   UNL d   1      28.820 -14.326  -6.164  0.00  0.00    -0.170 NA
ATOM      2  C   UNL d   1      27.673 -13.815  -5.794  0.00  0.00     0.106 C 
ENDROOT
BRANCH   2   3
ATOM      3  C   UNL d   1      26.589 -14.609  -5.049  0.00  0.00     0.173 C 
ATOM      4  N   UNL d   1      26.877 -15.223  -3.944  0.00  0.00    -0.182 NA
BRANCH   4   5
ATOM      5  N   UNL d   1      25.916 -15.957  -3.297  0.00  0.00    -0.243 N 
ATOM      6  C   UNL d   1      26.033 -16.103  -1.913  0.00  0.00     0.271 C 
ATOM      7  O   UNL d   1      26.953 -15.623  -1.247  0.00  0.00    -0.266 OA
ATOM      8  H   UNL d   1      25.104 -16.296  -3.799  0.00  0.00     0.192 HD
BRANCH   6   9
ATOM      9  C   UNL d   1      24.967 -16.861  -1.201  0.00  0.00     0.033 A 
ATOM     10  C   UNL d   1      25.264 -17.925  -0.339  0.00  0.00     0.020 A 
ATOM     11  C   UNL d   1      24.235 -18.574   0.363  0.00  0.00     0.037 A 
ATOM     12  C   UNL d   1      22.915 -18.158   0.200  0.00  0.00     0.065 A 
ATOM     13  C   UNL d   1      22.609 -17.099  -0.646  0.00  0.00     0.037 A 
ATOM     14  C   UNL d   1      23.634 -16.442  -1.336  0.00  0.00     0.020 A 
BRANCH  12  15
ATOM     15  O   UNL d   1      21.878 -18.750   0.857  0.00  0.00    -0.361 OA
ATOM     16  H   UNL d   1      21.816 -19.687   0.605  0.00  0.00     0.217 HD
ENDBRANCH  12  15
ENDBRANCH   6   9
ENDBRANCH   4   5
ENDBRANCH   2   3
BRANCH   2  17
ATOM     17  C   UNL d   1      27.345 -12.392  -6.178  0.00  0.00    -0.004 A 
ATOM     18  C   UNL d   1      26.393 -11.635  -5.480  0.00  0.00     0.014 A 
ATOM     19  C   UNL d   1      25.999 -10.373  -5.954  0.00  0.00     0.001 A 
ATOM     20  C   UNL d   1      26.605  -9.822  -7.083  0.00  0.00     0.000 A 
ATOM     21  C   UNL d   1      27.595 -10.541  -7.750  0.00  0.00     0.001 A 
ATOM     22  C   UNL d   1      27.965 -11.818  -7.300  0.00  0.00     0.014 A 
ENDBRANCH   2  17
BRANCH   1  23
ATOM     23  N   UNL d   1      29.113 -15.642  -5.858  0.00  0.00    -0.242 N 
ATOM     24  C   UNL d   1      30.152 -16.312  -6.493  0.00  0.00     0.271 C 
ATOM     25  O   UNL d   1      30.882 -15.826  -7.358  0.00  0.00    -0.266 OA
ATOM     26  H   UNL d   1      28.604 -16.088  -5.087  0.00  0.00     0.192 HD
BRANCH  24  27
ATOM     27  C   UNL d   1      30.408 -17.720  -6.052  0.00  0.00     0.033 A 
ATOM     28  C   UNL d   1      30.421 -18.018  -4.679  0.00  0.00     0.020 A 
ATOM     29  C   UNL d   1      30.657 -19.327  -4.227  0.00  0.00     0.037 A 
ATOM     30  C   UNL d   1      30.903 -20.334  -5.154  0.00  0.00     0.065 A 
ATOM     31  C   UNL d   1      30.934 -20.045  -6.514  0.00  0.00     0.037 A 
ATOM     32  C   UNL d   1      30.688 -18.741  -6.966  0.00  0.00     0.020 A 
BRANCH  30  33
ATOM     33  O   UNL d   1      31.124 -21.628  -4.781  0.00  0.00    -0.361 OA
ATOM     34  H   UNL d   1      30.370 -22.176  -5.050  0.00  0.00     0.217 HD
ENDBRANCH  30  33
ENDBRANCH  24  27
ENDBRANCH   1  23
TORSDOF 8
ENDMDL
MODEL 8
REMARK VINA RESULT:    -7.016      3.020      8.369
REMARK INTER + INTRA:         -11.191
REMARK INTER:                  -9.402
REMARK INTRA:                  -1.788
REMARK CONF_INDEPENDENT:        2.386
REMARK UNBOUND:                -1.788
REMARK  8 active torsions:
REMARK  status: ('A' for Active; 'I' for Inactive)
REMARK       I    between atoms: C_2  and  N_3 
REMARK    1  A    between atoms: C_2  and  C_24 
REMARK    2  A    between atoms: N_3  and  N_4 
REMARK    3  A    between atoms: C_5  and  C_6 
REMARK    4  A    between atoms: C_5  and  C_18 
REMARK    5  A    between atoms: N_7  and  N_8 
REMARK       I    between atoms: N_8  and  C_9 
REMARK    6  A    between atoms: C_9  and  C_11 
REMARK    7  A    between atoms: C_14  and  O_15 
REMARK    8  A    between atoms: C_27  and  O_28 
ROOT
ATOM      1  N   UNL d   1      27.254 -11.496  -2.459  0.00  0.00    -0.170 NA
ATOM      2  C   UNL d   1      26.257 -11.778  -3.257  0.00  0.00     0.106 C 
ENDROOT
BRANCH   2   3
ATOM      3  C   UNL d   1      25.291 -12.952  -3.031  0.00  0.00     0.173 C 
ATOM      4  N   UNL d   1      25.696 -14.017  -2.414  0.00  0.00    -0.182 NA
BRANCH   4   5
ATOM      5  N   UNL d   1      24.843 -15.076  -2.241  0.00  0.00    -0.243 N 
ATOM      6  C   UNL d   1      25.034 -15.889  -1.121  0.00  0.00     0.271 C 
ATOM      7  O   UNL d   1      25.931 -15.717  -0.293  0.00  0.00    -0.266 OA
ATOM      8  H   UNL d   1      24.046 -15.200  -2.855  0.00  0.00     0.192 HD
BRANCH   6   9
ATOM      9  C   UNL d   1      24.082 -17.013  -0.906  0.00  0.00     0.033 A 
ATOM     10  C   UNL d   1      24.520 -18.318  -0.650  0.00  0.00     0.020 A 
ATOM     11  C   UNL d   1      23.590 -19.339  -0.389  0.00  0.00     0.037 A 
ATOM     12  C   UNL d   1      22.227 -19.050  -0.386  0.00  0.00     0.065 A 
ATOM     13  C   UNL d   1      21.780 -17.758  -0.632  0.00  0.00     0.037 A 
ATOM     14  C   UNL d   1      22.705 -16.736  -0.878  0.00  0.00     0.020 A 
BRANCH  12  15
ATOM     15  O   UNL d   1      21.282 -20.000  -0.138  0.00  0.00    -0.361 OA
ATOM     16  H   UNL d   1      21.403 -20.364   0.754  0.00  0.00     0.217 HD
ENDBRANCH  12  15
ENDBRANCH   6   9
ENDBRANCH   4   5
ENDBRANCH   2   3
BRANCH   2  17
ATOM     17  C   UNL d   1      26.073 -10.967  -4.518  0.00  0.00    -0.004 A 
ATOM     18  C   UNL d   1      26.587 -11.385  -5.753  0.00  0.00     0.014 A 
ATOM     19  C   UNL d   1      26.535 -10.537  -6.871  0.00  0.00     0.001 A 
ATOM     20  C   UNL d   1      25.902  -9.298  -6.788  0.00  0.00     0.000 A 
ATOM     21  C   UNL d   1      25.335  -8.896  -5.580  0.00  0.00     0.001 A 
ATOM     22  C   UNL d   1      25.418  -9.726  -4.451  0.00  0.00     0.014 A 
ENDBRANCH   2  17
BRANCH   1  23
ATOM     23  N   UNL d   1      27.460 -12.260  -1.325  0.00  0.00    -0.242 N 
ATOM     24  C   UNL d   1      27.448 -11.685  -0.060  0.00  0.00     0.271 C 
ATOM     25  O   UNL d   1      27.266 -10.488   0.171  0.00  0.00    -0.266 OA
ATOM     26  H   UNL d   1      27.534 -13.278  -1.430  0.00  0.00     0.192 HD
BRANCH  24  27
ATOM     27  C   UNL d   1      27.638 -12.614   1.099  0.00  0.00     0.033 A 
ATOM     28  C   UNL d   1      27.515 -12.114   2.407  0.00  0.00     0.020 A 
ATOM     29  C   UNL d   1      27.686 -12.955   3.519  0.00  0.00     0.037 A 
ATOM     30  C   UNL d   1      28.003 -14.294   3.319  0.00  0.00     0.065 A 
ATOM     31  C   UNL d   1      28.169 -14.792   2.031  0.00  0.00     0.037 A 
ATOM     32  C   UNL d   1      27.989 -13.956   0.920  0.00  0.00     0.020 A 
BRANCH  30  33
ATOM     33  O   UNL d   1      28.168 -15.166   4.356  0.00  0.00    -0.361 OA
ATOM     34  H   UNL d   1      28.540 -15.998   4.023  0.00  0.00     0.217 HD
ENDBRANCH  30  33
ENDBRANCH  24  27
ENDBRANCH   1  23
TORSDOF 8
ENDMDL
MODEL 9
REMARK VINA RESULT:    -7.001      4.079      5.921
REMARK INTER + INTRA:         -10.887
REMARK INTER:                  -9.387
REMARK INTRA:                  -1.500
REMARK CONF_INDEPENDENT:        2.386
REMARK UNBOUND:                -1.500
REMARK  8 active torsions:
REMARK  status: ('A' for Active; 'I' for Inactive)
REMARK       I    between atoms: C_2  and  N_3 
REMARK    1  A    between atoms: C_2  and  C_24 
REMARK    2  A    between atoms: N_3  and  N_4 
REMARK    3  A    between atoms: C_5  and  C_6 
REMARK    4  A    between atoms: C_5  and  C_18 
REMARK    5  A    between atoms: N_7  and  N_8 
REMARK       I    between atoms: N_8  and  C_9 
REMARK    6  A    between atoms: C_9  and  C_11 
REMARK    7  A    between atoms: C_14  and  O_15 
REMARK    8  A    between atoms: C_27  and  O_28 
ROOT
ATOM      1  N   UNL d   1      27.446 -16.095  -3.015  0.00  0.00    -0.170 NA
ATOM      2  C   UNL d   1      26.387 -15.562  -2.459  0.00  0.00     0.106 C 
ENDROOT
BRANCH   2   3
ATOM      3  C   UNL d   1      25.938 -14.112  -2.699  0.00  0.00     0.173 C 
ATOM      4  N   UNL d   1      25.525 -13.746  -3.871  0.00  0.00    -0.182 NA
BRANCH   4   5
ATOM      5  N   UNL d   1      25.155 -12.443  -4.092  0.00  0.00    -0.243 N 
ATOM      6  C   UNL d   1      26.169 -11.488  -4.193  0.00  0.00     0.271 C 
ATOM      7  O   UNL d   1      27.369 -11.746  -4.081  0.00  0.00    -0.266 OA
ATOM      8  H   UNL d   1      24.186 -12.208  -4.269  0.00  0.00     0.192 HD
BRANCH   6   9
ATOM      9  C   UNL d   1      25.773 -10.081  -4.477  0.00  0.00     0.033 A 
ATOM     10  C   UNL d   1      25.308  -9.681  -5.736  0.00  0.00     0.020 A 
ATOM     11  C   UNL d   1      24.884  -8.358  -5.945  0.00  0.00     0.037 A 
ATOM     12  C   UNL d   1      24.929  -7.441  -4.897  0.00  0.00     0.065 A 
ATOM     13  C   UNL d   1      25.383  -7.828  -3.642  0.00  0.00     0.037 A 
ATOM     14  C   UNL d   1      25.792  -9.149  -3.426  0.00  0.00     0.020 A 
BRANCH  12  15
ATOM     15  O   UNL d   1      24.530  -6.146  -5.044  0.00  0.00    -0.361 OA
ATOM     16  H   UNL d   1      25.040  -5.719  -5.752  0.00  0.00     0.217 HD
ENDBRANCH  12  15
ENDBRANCH   6   9
ENDBRANCH   4   5
ENDBRANCH   2   3
BRANCH   2  17
ATOM     17  C   UNL d   1      25.592 -16.375  -1.465  0.00  0.00    -0.004 A 
ATOM     18  C   UNL d   1      26.211 -17.224  -0.536  0.00  0.00     0.014 A 
ATOM     19  C   UNL d   1      25.443 -18.081   0.269  0.00  0.00     0.001 A 
ATOM     20  C   UNL d   1      24.050 -18.045   0.209  0.00  0.00     0.000 A 
ATOM     21  C   UNL d   1      23.423 -17.163  -0.669  0.00  0.00     0.001 A 
ATOM     22  C   UNL d   1      24.189 -16.332  -1.501  0.00  0.00     0.014 A 
ENDBRANCH   2  17
BRANCH   1  23
ATOM     23  N   UNL d   1      28.207 -15.345  -3.893  0.00  0.00    -0.242 N 
ATOM     24  C   UNL d   1      27.791 -15.134  -5.202  0.00  0.00     0.271 C 
ATOM     25  O   UNL d   1      26.752 -15.575  -5.694  0.00  0.00    -0.266 OA
ATOM     26  H   UNL d   1      29.044 -14.874  -3.533  0.00  0.00     0.192 HD
BRANCH  24  27
ATOM     27  C   UNL d   1      28.673 -14.271  -6.052  0.00  0.00     0.033 A 
ATOM     28  C   UNL d   1      28.146 -13.096  -6.614  0.00  0.00     0.020 A 
ATOM     29  C   UNL d   1      28.942 -12.261  -7.417  0.00  0.00     0.037 A 
ATOM     30  C   UNL d   1      30.262 -12.617  -7.673  0.00  0.00     0.065 A 
ATOM     31  C   UNL d   1      30.783 -13.798  -7.156  0.00  0.00     0.037 A 
ATOM     32  C   UNL d   1      29.992 -14.627  -6.347  0.00  0.00     0.020 A 
BRANCH  30  33
ATOM     33  O   UNL d   1      31.091 -11.843  -8.431  0.00  0.00    -0.361 OA
ATOM     34  H   UNL d   1      31.896 -11.643  -7.928  0.00  0.00     0.217 HD
ENDBRANCH  30  33
ENDBRANCH  24  27
ENDBRANCH   1  23
TORSDOF 8
ENDMDL
