MODEL 1
REMARK VINA RESULT:    -8.263      0.000      0.000
REMARK INTER + INTRA:         -12.595
REMARK INTER:                 -10.351
REMARK INTRA:                  -2.244
REMARK CONF_INDEPENDENT:        2.088
REMARK UNBOUND:                -2.244
REMARK  7 active torsions:
REMARK  status: ('A' for Active; 'I' for Inactive)
REMARK    1  A    between atoms: O_2  and  C_3 
REMARK    2  A    between atoms: C_8  and  C_9 
REMARK    3  A    between atoms: N_10  and  N_11 
REMARK    4  A    between atoms: N_11  and  C_12 
REMARK    5  A    between atoms: C_16  and  C_17 
REMARK    6  A    between atoms: C_17  and  C_18 
REMARK       I    between atoms: C_18  and  N_20 
REMARK    7  A    between atoms: N_20  and  C_21 
ROOT
ATOM      1  C   UNL d   1      27.913 -14.738  -5.754  0.00  0.00     0.186 C 
ATOM      2  N   UNL d   1      26.758 -15.203  -5.366  0.00  0.00    -0.187 NA
ATOM      3  C   UNL d   1      25.874 -14.218  -5.020  0.00  0.00     0.260 C 
ATOM      4  O   UNL d   1      24.745 -14.448  -4.558  0.00  0.00    -0.270 OA
ATOM      5  C   UNL d   1      26.395 -12.797  -5.130  0.00  0.00     0.158 C 
ATOM      6  S   UNL d   1      27.919 -12.972  -6.115  0.00  0.00    -0.076 SA
ENDROOT
BRANCH   5   7
ATOM      7  C   UNL d   1      26.673 -12.207  -3.738  0.00  0.00     0.128 C 
BRANCH   7   8
ATOM      8  C   UNL d   1      26.608 -13.268  -2.644  0.00  0.00     0.223 C 
ATOM      9  O   UNL d   1      25.976 -13.106  -1.606  0.00  0.00    -0.273 OA
ATOM     10  N   UNL d   1      27.330 -14.419  -2.799  0.00  0.00    -0.327 N 
ATOM     11  H   UNL d   1      28.173 -14.391  -3.352  0.00  0.00     0.169 HD
BRANCH  10  12
ATOM     12  C   UNL d   1      27.166 -15.437  -1.821  0.00  0.00     0.036 A 
ATOM     13  C   UNL d   1      28.254 -15.884  -1.083  0.00  0.00     0.030 A 
ATOM     14  C   UNL d   1      28.089 -16.941  -0.179  0.00  0.00     0.011 A 
ATOM     15  C   UNL d   1      26.825 -17.517   0.047  0.00  0.00    -0.040 A 
ATOM     16  C   UNL d   1      26.659 -18.574   1.101  0.00  0.00     0.050 C 
ATOM     17  C   UNL d   1      25.733 -17.048  -0.690  0.00  0.00     0.042 A 
ATOM     18 CL   UNL d   1      24.165 -17.762  -0.548  0.00  0.00    -0.084 Cl
ATOM     19  C   UNL d   1      25.901 -16.009  -1.603  0.00  0.00     0.053 A 
ENDBRANCH  10  12
ENDBRANCH   7   8
ENDBRANCH   5   7
BRANCH   1  20
ATOM     20  N   UNL d   1      28.999 -15.569  -6.010  0.00  0.00    -0.256 N 
ATOM     21  H   UNL d   1      28.744 -16.525  -5.764  0.00  0.00     0.191 HD
BRANCH  20  22
ATOM     22  N   UNL d   1      30.040 -15.413  -6.896  0.00  0.00    -0.184 NA
ATOM     23  C   UNL d   1      30.838 -16.419  -7.171  0.00  0.00     0.152 C 
BRANCH  23  24
ATOM     24  C   UNL d   1      30.793 -17.881  -6.835  0.00  0.00     0.016 C 
ATOM     25  C   UNL d   1      31.148 -18.795  -7.853  0.00  0.00     0.016 C 
ATOM     26  C   UNL d   1      31.225 -20.177  -7.597  0.00  0.00     0.001 C 
ATOM     27  C   UNL d   1      30.992 -20.660  -6.315  0.00  0.00     0.003 C 
ATOM     28  C   UNL d   1      30.558 -19.782  -5.334  0.00  0.00     0.037 C 
ATOM     29  C   UNL d   1      30.405 -18.417  -5.604  0.00  0.00     0.080 C 
BRANCH  29  30
ATOM     30  O   UNL d   1      29.945 -17.727  -4.526  0.00  0.00    -0.355 OA
ATOM     31  C   UNL d   1      30.914 -17.469  -3.514  0.00  0.00     0.210 C 
ENDBRANCH  29  30
ENDBRANCH  23  24
ENDBRANCH  20  22
ENDBRANCH   1  20
TORSDOF 7
ENDMDL
MODEL 2
REMARK VINA RESULT:    -8.060      5.274      8.163
REMARK INTER + INTRA:         -12.750
REMARK INTER:                 -10.148
REMARK INTRA:                  -2.601
REMARK CONF_INDEPENDENT:        2.088
REMARK UNBOUND:                -2.601
REMARK  7 active torsions:
REMARK  status: ('A' for Active; 'I' for Inactive)
REMARK    1  A    between atoms: O_2  and  C_3 
REMARK    2  A    between atoms: C_8  and  C_9 
REMARK    3  A    between atoms: N_10  and  N_11 
REMARK    4  A    between atoms: N_11  and  C_12 
REMARK    5  A    between atoms: C_16  and  C_17 
REMARK    6  A    between atoms: C_17  and  C_18 
REMARK       I    between atoms: C_18  and  N_20 
REMARK    7  A    between atoms: N_20  and  C_21 
ROOT
ATOM      1  C   UNL d   1      27.523 -16.125  -0.654  0.00  0.00     0.186 C 
ATOM      2  N   UNL d   1      27.170 -16.910   0.326  0.00  0.00    -0.187 NA
ATOM      3  C   UNL d   1      25.943 -17.487   0.134  0.00  0.00     0.260 C 
ATOM      4  O   UNL d   1      25.393 -18.211   0.978  0.00  0.00    -0.270 OA
ATOM      5  C   UNL d   1      25.228 -17.101  -1.147  0.00  0.00     0.158 C 
ATOM      6  S   UNL d   1      26.530 -16.310  -2.148  0.00  0.00    -0.076 SA
ENDROOT
BRANCH   5   7
ATOM      7  C   UNL d   1      24.064 -16.140  -0.854  0.00  0.00     0.128 C 
BRANCH   7   8
ATOM      8  C   UNL d   1      22.741 -16.881  -0.687  0.00  0.00     0.223 C 
ATOM      9  O   UNL d   1      21.661 -16.371  -0.967  0.00  0.00    -0.273 OA
ATOM     10  N   UNL d   1      22.752 -18.138  -0.149  0.00  0.00    -0.327 N 
ATOM     11  H   UNL d   1      23.492 -18.384   0.491  0.00  0.00     0.169 HD
BRANCH  10  12
ATOM     12  C   UNL d   1      21.523 -18.849  -0.108  0.00  0.00     0.036 A 
ATOM     13  C   UNL d   1      20.796 -19.066  -1.270  0.00  0.00     0.030 A 
ATOM     14  C   UNL d   1      19.549 -19.700  -1.200  0.00  0.00     0.011 A 
ATOM     15  C   UNL d   1      19.045 -20.184   0.022  0.00  0.00    -0.040 A 
ATOM     16  C   UNL d   1      17.758 -20.956   0.050  0.00  0.00     0.050 C 
ATOM     17  C   UNL d   1      19.794 -19.975   1.185  0.00  0.00     0.042 A 
ATOM     18 CL   UNL d   1      19.208 -20.450   2.741  0.00  0.00    -0.084 Cl
ATOM     19  C   UNL d   1      21.025 -19.328   1.117  0.00  0.00     0.053 A 
ENDBRANCH  10  12
ENDBRANCH   7   8
ENDBRANCH   5   7
BRANCH   1  20
ATOM     20  N   UNL d   1      28.663 -15.330  -0.594  0.00  0.00    -0.256 N 
ATOM     21  H   UNL d   1      28.401 -14.367  -0.800  0.00  0.00     0.191 HD
BRANCH  20  22
ATOM     22  N   UNL d   1      29.835 -15.519   0.102  0.00  0.00    -0.184 NA
ATOM     23  C   UNL d   1      30.003 -14.973   1.283  0.00  0.00     0.152 C 
BRANCH  23  24
ATOM     24  C   UNL d   1      29.079 -14.246   2.216  0.00  0.00     0.016 C 
ATOM     25  C   UNL d   1      29.259 -14.449   3.603  0.00  0.00     0.016 C 
ATOM     26  C   UNL d   1      28.499 -13.735   4.548  0.00  0.00     0.001 C 
ATOM     27  C   UNL d   1      27.583 -12.780   4.125  0.00  0.00     0.003 C 
ATOM     28  C   UNL d   1      27.337 -12.639   2.768  0.00  0.00     0.037 C 
ATOM     29  C   UNL d   1      28.035 -13.402   1.825  0.00  0.00     0.080 C 
BRANCH  29  30
ATOM     30  O   UNL d   1      27.635 -13.140   0.552  0.00  0.00    -0.355 OA
ATOM     31  C   UNL d   1      27.370 -11.769   0.271  0.00  0.00     0.210 C 
ENDBRANCH  29  30
ENDBRANCH  23  24
ENDBRANCH  20  22
ENDBRANCH   1  20
TORSDOF 7
ENDMDL
MODEL 3
REMARK VINA RESULT:    -7.986      4.398      5.889
REMARK INTER + INTRA:         -12.698
REMARK INTER:                 -10.074
REMARK INTRA:                  -2.624
REMARK CONF_INDEPENDENT:        2.088
REMARK UNBOUND:                -2.624
REMARK  7 active torsions:
REMARK  status: ('A' for Active; 'I' for Inactive)
REMARK    1  A    between atoms: O_2  and  C_3 
REMARK    2  A    between atoms: C_8  and  C_9 
REMARK    3  A    between atoms: N_10  and  N_11 
REMARK    4  A    between atoms: N_11  and  C_12 
REMARK    5  A    between atoms: C_16  and  C_17 
REMARK    6  A    between atoms: C_17  and  C_18 
REMARK       I    between atoms: C_18  and  N_20 
REMARK    7  A    between atoms: N_20  and  C_21 
ROOT
ATOM      1  C   UNL d   1      27.525 -16.325  -0.763  0.00  0.00     0.186 C 
ATOM      2  N   UNL d   1      27.162 -17.239   0.094  0.00  0.00    -0.187 NA
ATOM      3  C   UNL d   1      25.907 -17.730  -0.148  0.00  0.00     0.260 C 
ATOM      4  O   UNL d   1      25.346 -18.555   0.590  0.00  0.00    -0.270 OA
ATOM      5  C   UNL d   1      25.180 -17.122  -1.331  0.00  0.00     0.158 C 
ATOM      6  S   UNL d   1      26.490 -16.236  -2.237  0.00  0.00    -0.076 SA
ENDROOT
BRANCH   5   7
ATOM      7  C   UNL d   1      24.065 -16.174  -0.859  0.00  0.00     0.128 C 
BRANCH   7   8
ATOM      8  C   UNL d   1      22.738 -16.903  -0.668  0.00  0.00     0.223 C 
ATOM      9  O   UNL d   1      21.656 -16.370  -0.892  0.00  0.00    -0.273 OA
ATOM     10  N   UNL d   1      22.751 -18.178  -0.173  0.00  0.00    -0.327 N 
ATOM     11  H   UNL d   1      23.510 -18.454   0.432  0.00  0.00     0.169 HD
BRANCH  10  12
ATOM     12  C   UNL d   1      21.514 -18.873  -0.110  0.00  0.00     0.036 A 
ATOM     13  C   UNL d   1      20.765 -19.081  -1.260  0.00  0.00     0.030 A 
ATOM     14  C   UNL d   1      19.512 -19.700  -1.167  0.00  0.00     0.011 A 
ATOM     15  C   UNL d   1      19.024 -20.179   0.062  0.00  0.00    -0.040 A 
ATOM     16  C   UNL d   1      17.728 -20.935   0.114  0.00  0.00     0.050 C 
ATOM     17  C   UNL d   1      19.795 -19.979   1.212  0.00  0.00     0.042 A 
ATOM     18 CL   UNL d   1      19.230 -20.447   2.778  0.00  0.00    -0.084 Cl
ATOM     19  C   UNL d   1      21.032 -19.346   1.123  0.00  0.00     0.053 A 
ENDBRANCH  10  12
ENDBRANCH   7   8
ENDBRANCH   5   7
BRANCH   1  20
ATOM     20  N   UNL d   1      28.700 -15.594  -0.615  0.00  0.00    -0.256 N 
ATOM     21  H   UNL d   1      29.424 -16.211  -0.248  0.00  0.00     0.191 HD
BRANCH  20  22
ATOM     22  N   UNL d   1      29.122 -14.461  -1.270  0.00  0.00    -0.184 NA
ATOM     23  C   UNL d   1      29.687 -14.547  -2.452  0.00  0.00     0.152 C 
BRANCH  23  24
ATOM     24  C   UNL d   1      29.864 -15.678  -3.422  0.00  0.00     0.016 C 
ATOM     25  C   UNL d   1      29.795 -15.372  -4.800  0.00  0.00     0.016 C 
ATOM     26  C   UNL d   1      30.043 -16.355  -5.777  0.00  0.00     0.001 C 
ATOM     27  C   UNL d   1      30.404 -17.641  -5.394  0.00  0.00     0.003 C 
ATOM     28  C   UNL d   1      30.387 -17.971  -4.048  0.00  0.00     0.037 C 
ATOM     29  C   UNL d   1      30.066 -17.017  -3.075  0.00  0.00     0.080 C 
BRANCH  29  30
ATOM     30  O   UNL d   1      30.077 -17.539  -1.819  0.00  0.00    -0.355 OA
ATOM     31  C   UNL d   1      31.127 -18.463  -1.556  0.00  0.00     0.210 C 
ENDBRANCH  29  30
ENDBRANCH  23  24
ENDBRANCH  20  22
ENDBRANCH   1  20
TORSDOF 7
ENDMDL
MODEL 4
REMARK VINA RESULT:    -7.787      6.561      8.837
REMARK INTER + INTRA:         -12.361
REMARK INTER:                  -9.875
REMARK INTRA:                  -2.485
REMARK CONF_INDEPENDENT:        2.088
REMARK UNBOUND:                -2.485
REMARK  7 active torsions:
REMARK  status: ('A' for Active; 'I' for Inactive)
REMARK    1  A    between atoms: O_2  and  C_3 
REMARK    2  A    between atoms: C_8  and  C_9 
REMARK    3  A    between atoms: N_10  and  N_11 
REMARK    4  A    between atoms: N_11  and  C_12 
REMARK    5  A    between atoms: C_16  and  C_17 
REMARK    6  A    between atoms: C_17  and  C_18 
REMARK       I    between atoms: C_18  and  N_20 
REMARK    7  A    between atoms: N_20  and  C_21 
ROOT
ATOM      1  C   UNL d   1      27.452 -14.376   0.317  0.00  0.00     0.186 C 
ATOM      2  N   UNL d   1      26.743 -13.440   0.884  0.00  0.00    -0.187 NA
ATOM      3  C   UNL d   1      27.223 -13.074   2.112  0.00  0.00     0.260 C 
ATOM      4  O   UNL d   1      26.655 -12.251   2.847  0.00  0.00    -0.270 OA
ATOM      5  C   UNL d   1      28.456 -13.821   2.585  0.00  0.00     0.158 C 
ATOM      6  S   UNL d   1      29.062 -14.653   1.081  0.00  0.00    -0.076 SA
ENDROOT
BRANCH   5   7
ATOM      7  C   UNL d   1      28.094 -14.825   3.693  0.00  0.00     0.128 C 
BRANCH   7   8
ATOM      8  C   UNL d   1      28.430 -14.289   5.081  0.00  0.00     0.223 C 
ATOM      9  O   UNL d   1      28.761 -15.023   6.007  0.00  0.00    -0.273 OA
ATOM     10  N   UNL d   1      28.301 -12.949   5.320  0.00  0.00    -0.327 N 
ATOM     11  H   UNL d   1      27.625 -12.425   4.785  0.00  0.00     0.169 HD
BRANCH  10  12
ATOM     12  C   UNL d   1      28.725 -12.461   6.585  0.00  0.00     0.036 A 
ATOM     13  C   UNL d   1      29.714 -11.490   6.668  0.00  0.00     0.030 A 
ATOM     14  C   UNL d   1      30.174 -11.076   7.924  0.00  0.00     0.011 A 
ATOM     15  C   UNL d   1      29.607 -11.577   9.110  0.00  0.00    -0.040 A 
ATOM     16  C   UNL d   1      30.045 -11.036  10.440  0.00  0.00     0.050 C 
ATOM     17  C   UNL d   1      28.600 -12.543   9.015  0.00  0.00     0.042 A 
ATOM     18 CL   UNL d   1      27.915 -13.284  10.419  0.00  0.00    -0.084 Cl
ATOM     19  C   UNL d   1      28.155 -12.968   7.765  0.00  0.00     0.053 A 
ENDBRANCH  10  12
ENDBRANCH   7   8
ENDBRANCH   5   7
BRANCH   1  20
ATOM     20  N   UNL d   1      27.056 -14.994  -0.865  0.00  0.00    -0.256 N 
ATOM     21  H   UNL d   1      27.217 -15.997  -0.780  0.00  0.00     0.191 HD
BRANCH  20  22
ATOM     22  N   UNL d   1      26.138 -14.590  -1.807  0.00  0.00    -0.184 NA
ATOM     23  C   UNL d   1      25.031 -15.270  -1.991  0.00  0.00     0.152 C 
BRANCH  23  24
ATOM     24  C   UNL d   1      24.391 -16.405  -1.247  0.00  0.00     0.016 C 
ATOM     25  C   UNL d   1      22.987 -16.374  -1.091  0.00  0.00     0.016 C 
ATOM     26  C   UNL d   1      22.297 -17.443  -0.490  0.00  0.00     0.001 C 
ATOM     27  C   UNL d   1      22.991 -18.574  -0.077  0.00  0.00     0.003 C 
ATOM     28  C   UNL d   1      24.375 -18.575  -0.146  0.00  0.00     0.037 C 
ATOM     29  C   UNL d   1      25.073 -17.482  -0.673  0.00  0.00     0.080 C 
BRANCH  29  30
ATOM     30  O   UNL d   1      26.420 -17.661  -0.630  0.00  0.00    -0.355 OA
ATOM     31  C   UNL d   1      26.922 -18.192   0.593  0.00  0.00     0.210 C 
ENDBRANCH  29  30
ENDBRANCH  23  24
ENDBRANCH  20  22
ENDBRANCH   1  20
TORSDOF 7
ENDMDL
MODEL 5
REMARK VINA RESULT:    -7.462      2.651      6.260
REMARK INTER + INTRA:         -12.425
REMARK INTER:                  -9.550
REMARK INTRA:                  -2.875
REMARK CONF_INDEPENDENT:        2.088
REMARK UNBOUND:                -2.875
REMARK  7 active torsions:
REMARK  status: ('A' for Active; 'I' for Inactive)
REMARK    1  A    between atoms: O_2  and  C_3 
REMARK    2  A    between atoms: C_8  and  C_9 
REMARK    3  A    between atoms: N_10  and  N_11 
REMARK    4  A    between atoms: N_11  and  C_12 
REMARK    5  A    between atoms: C_16  and  C_17 
REMARK    6  A    between atoms: C_17  and  C_18 
REMARK       I    between atoms: C_18  and  N_20 
REMARK    7  A    between atoms: N_20  and  C_21 
ROOT
ATOM      1  C   UNL d   1      26.878 -13.180  -3.621  0.00  0.00     0.186 C 
ATOM      2  N   UNL d   1      28.162 -13.059  -3.424  0.00  0.00    -0.187 NA
ATOM      3  C   UNL d   1      28.803 -12.426  -4.454  0.00  0.00     0.260 C 
ATOM      4  O   UNL d   1      30.034 -12.271  -4.497  0.00  0.00    -0.270 OA
ATOM      5  C   UNL d   1      27.925 -12.008  -5.618  0.00  0.00     0.158 C 
ATOM      6  S   UNL d   1      26.232 -12.159  -4.959  0.00  0.00    -0.076 SA
ENDROOT
BRANCH   5   7
ATOM      7  C   UNL d   1      28.155 -12.923  -6.833  0.00  0.00     0.128 C 
BRANCH   7   8
ATOM      8  C   UNL d   1      28.452 -14.360  -6.417  0.00  0.00     0.223 C 
ATOM      9  O   UNL d   1      27.570 -15.200  -6.274  0.00  0.00    -0.273 OA
ATOM     10  N   UNL d   1      29.743 -14.711  -6.134  0.00  0.00    -0.327 N 
ATOM     11  H   UNL d   1      30.373 -14.001  -5.791  0.00  0.00     0.169 HD
BRANCH  10  12
ATOM     12  C   UNL d   1      30.010 -16.079  -5.858  0.00  0.00     0.036 A 
ATOM     13  C   UNL d   1      29.895 -16.570  -4.564  0.00  0.00     0.030 A 
ATOM     14  C   UNL d   1      30.236 -17.902  -4.297  0.00  0.00     0.011 A 
ATOM     15  C   UNL d   1      30.630 -18.775  -5.328  0.00  0.00    -0.040 A 
ATOM     16  C   UNL d   1      30.884 -20.224  -5.030  0.00  0.00     0.050 C 
ATOM     17  C   UNL d   1      30.726 -18.274  -6.630  0.00  0.00     0.042 A 
ATOM     18 CL   UNL d   1      31.295 -19.248  -7.941  0.00  0.00    -0.084 Cl
ATOM     19  C   UNL d   1      30.405 -16.944  -6.893  0.00  0.00     0.053 A 
ENDBRANCH  10  12
ENDBRANCH   7   8
ENDBRANCH   5   7
BRANCH   1  20
ATOM     20  N   UNL d   1      26.063 -13.919  -2.768  0.00  0.00    -0.256 N 
ATOM     21  H   UNL d   1      26.305 -13.688  -1.805  0.00  0.00     0.191 HD
BRANCH  20  22
ATOM     22  N   UNL d   1      24.814 -14.453  -2.985  0.00  0.00    -0.184 NA
ATOM     23  C   UNL d   1      24.456 -15.570  -2.395  0.00  0.00     0.152 C 
BRANCH  23  24
ATOM     24  C   UNL d   1      25.086 -16.406  -1.320  0.00  0.00     0.016 C 
ATOM     25  C   UNL d   1      24.246 -17.294  -0.608  0.00  0.00     0.016 C 
ATOM     26  C   UNL d   1      24.771 -18.181   0.350  0.00  0.00     0.001 C 
ATOM     27  C   UNL d   1      26.140 -18.227   0.580  0.00  0.00     0.003 C 
ATOM     28  C   UNL d   1      26.958 -17.300  -0.048  0.00  0.00     0.037 C 
ATOM     29  C   UNL d   1      26.432 -16.363  -0.945  0.00  0.00     0.080 C 
BRANCH  29  30
ATOM     30  O   UNL d   1      27.385 -15.526  -1.434  0.00  0.00    -0.355 OA
ATOM     31  C   UNL d   1      28.716 -16.032  -1.390  0.00  0.00     0.210 C 
ENDBRANCH  29  30
ENDBRANCH  23  24
ENDBRANCH  20  22
ENDBRANCH   1  20
TORSDOF 7
ENDMDL
MODEL 6
REMARK VINA RESULT:    -7.109      2.664      6.345
REMARK INTER + INTRA:         -12.609
REMARK INTER:                  -9.197
REMARK INTRA:                  -3.411
REMARK CONF_INDEPENDENT:        2.088
REMARK UNBOUND:                -3.411
REMARK  7 active torsions:
REMARK  status: ('A' for Active; 'I' for Inactive)
REMARK    1  A    between atoms: O_2  and  C_3 
REMARK    2  A    between atoms: C_8  and  C_9 
REMARK    3  A    between atoms: N_10  and  N_11 
REMARK    4  A    between atoms: N_11  and  C_12 
REMARK    5  A    between atoms: C_16  and  C_17 
REMARK    6  A    between atoms: C_17  and  C_18 
REMARK       I    between atoms: C_18  and  N_20 
REMARK    7  A    between atoms: N_20  and  C_21 
ROOT
ATOM      1  C   UNL d   1      27.519 -13.472  -2.637  0.00  0.00     0.186 C 
ATOM      2  N   UNL d   1      28.690 -12.937  -2.850  0.00  0.00    -0.187 NA
ATOM      3  C   UNL d   1      28.715 -12.126  -3.952  0.00  0.00     0.260 C 
ATOM      4  O   UNL d   1      29.747 -11.577  -4.369  0.00  0.00    -0.270 OA
ATOM      5  C   UNL d   1      27.410 -12.014  -4.716  0.00  0.00     0.158 C 
ATOM      6  S   UNL d   1      26.176 -12.714  -3.571  0.00  0.00    -0.076 SA
ENDROOT
BRANCH   5   7
ATOM      7  C   UNL d   1      27.480 -12.799  -6.036  0.00  0.00     0.128 C 
BRANCH   7   8
ATOM      8  C   UNL d   1      27.938 -14.238  -5.821  0.00  0.00     0.223 C 
ATOM      9  O   UNL d   1      27.207 -15.200  -6.035  0.00  0.00    -0.273 OA
ATOM     10  N   UNL d   1      29.188 -14.465  -5.315  0.00  0.00    -0.327 N 
ATOM     11  H   UNL d   1      29.602 -13.765  -4.718  0.00  0.00     0.169 HD
BRANCH  10  12
ATOM     12  C   UNL d   1      29.630 -15.812  -5.229  0.00  0.00     0.036 A 
ATOM     13  C   UNL d   1      29.651 -16.468  -4.006  0.00  0.00     0.030 A 
ATOM     14  C   UNL d   1      30.163 -17.770  -3.927  0.00  0.00     0.011 A 
ATOM     15  C   UNL d   1      30.597 -18.454  -5.077  0.00  0.00    -0.040 A 
ATOM     16  C   UNL d   1      31.038 -19.885  -4.978  0.00  0.00     0.050 C 
ATOM     17  C   UNL d   1      30.556 -17.789  -6.307  0.00  0.00     0.042 A 
ATOM     18 CL   UNL d   1      31.159 -18.517  -7.755  0.00  0.00    -0.084 Cl
ATOM     19  C   UNL d   1      30.065 -16.488  -6.382  0.00  0.00     0.053 A 
ENDBRANCH  10  12
ENDBRANCH   7   8
ENDBRANCH   5   7
BRANCH   1  20
ATOM     20  N   UNL d   1      27.312 -14.439  -1.659  0.00  0.00    -0.256 N 
ATOM     21  H   UNL d   1      26.351 -14.367  -1.326  0.00  0.00     0.191 HD
BRANCH  20  22
ATOM     22  N   UNL d   1      27.950 -15.642  -1.458  0.00  0.00    -0.184 NA
ATOM     23  C   UNL d   1      27.273 -16.696  -1.065  0.00  0.00     0.152 C 
BRANCH  23  24
ATOM     24  C   UNL d   1      25.806 -16.973  -0.913  0.00  0.00     0.016 C 
ATOM     25  C   UNL d   1      25.426 -17.998  -0.017  0.00  0.00     0.016 C 
ATOM     26  C   UNL d   1      24.070 -18.259   0.257  0.00  0.00     0.001 C 
ATOM     27  C   UNL d   1      23.080 -17.476  -0.324  0.00  0.00     0.003 C 
ATOM     28  C   UNL d   1      23.441 -16.529  -1.270  0.00  0.00     0.037 C 
ATOM     29  C   UNL d   1      24.784 -16.317  -1.604  0.00  0.00     0.080 C 
BRANCH  29  30
ATOM     30  O   UNL d   1      24.931 -15.369  -2.568  0.00  0.00    -0.355 OA
ATOM     31  C   UNL d   1      25.530 -15.823  -3.777  0.00  0.00     0.210 C 
ENDBRANCH  29  30
ENDBRANCH  23  24
ENDBRANCH  20  22
ENDBRANCH   1  20
TORSDOF 7
ENDMDL
MODEL 7
REMARK VINA RESULT:    -7.046      3.166      5.938
REMARK INTER + INTRA:         -12.930
REMARK INTER:                  -9.134
REMARK INTRA:                  -3.796
REMARK CONF_INDEPENDENT:        2.088
REMARK UNBOUND:                -3.796
REMARK  7 active torsions:
REMARK  status: ('A' for Active; 'I' for Inactive)
REMARK    1  A    between atoms: O_2  and  C_3 
REMARK    2  A    between atoms: C_8  and  C_9 
REMARK    3  A    between atoms: N_10  and  N_11 
REMARK    4  A    between atoms: N_11  and  C_12 
REMARK    5  A    between atoms: C_16  and  C_17 
REMARK    6  A    between atoms: C_17  and  C_18 
REMARK       I    between atoms: C_18  and  N_20 
REMARK    7  A    between atoms: N_20  and  C_21 
ROOT
ATOM      1  C   UNL d   1      29.166 -14.255  -3.195  0.00  0.00     0.186 C 
ATOM      2  N   UNL d   1      28.831 -15.229  -3.995  0.00  0.00    -0.187 NA
ATOM      3  C   UNL d   1      28.161 -14.800  -5.109  0.00  0.00     0.260 C 
ATOM      4  O   UNL d   1      27.694 -15.572  -5.961  0.00  0.00    -0.270 OA
ATOM      5  C   UNL d   1      27.921 -13.305  -5.196  0.00  0.00     0.158 C 
ATOM      6  S   UNL d   1      29.031 -12.613  -3.926  0.00  0.00    -0.076 SA
ENDROOT
BRANCH   5   7
ATOM      7  C   UNL d   1      26.446 -12.971  -4.916  0.00  0.00     0.128 C 
BRANCH   7   8
ATOM      8  C   UNL d   1      25.758 -14.062  -4.103  0.00  0.00     0.223 C 
ATOM      9  O   UNL d   1      24.910 -14.806  -4.585  0.00  0.00    -0.273 OA
ATOM     10  N   UNL d   1      26.053 -14.179  -2.773  0.00  0.00    -0.327 N 
ATOM     11  H   UNL d   1      26.345 -13.356  -2.268  0.00  0.00     0.169 HD
BRANCH  10  12
ATOM     12  C   UNL d   1      25.484 -15.271  -2.064  0.00  0.00     0.036 A 
ATOM     13  C   UNL d   1      24.107 -15.440  -2.020  0.00  0.00     0.030 A 
ATOM     14  C   UNL d   1      23.561 -16.477  -1.254  0.00  0.00     0.011 A 
ATOM     15  C   UNL d   1      24.384 -17.396  -0.578  0.00  0.00    -0.040 A 
ATOM     16  C   UNL d   1      23.774 -18.561   0.146  0.00  0.00     0.050 C 
ATOM     17  C   UNL d   1      25.771 -17.227  -0.643  0.00  0.00     0.042 A 
ATOM     18 CL   UNL d   1      26.854 -18.250   0.235  0.00  0.00    -0.084 Cl
ATOM     19  C   UNL d   1      26.314 -16.184  -1.390  0.00  0.00     0.053 A 
ENDBRANCH  10  12
ENDBRANCH   7   8
ENDBRANCH   5   7
BRANCH   1  20
ATOM     20  N   UNL d   1      29.723 -14.484  -1.940  0.00  0.00    -0.256 N 
ATOM     21  H   UNL d   1      29.864 -13.587  -1.477  0.00  0.00     0.191 HD
BRANCH  20  22
ATOM     22  N   UNL d   1      29.652 -15.596  -1.133  0.00  0.00    -0.184 NA
ATOM     23  C   UNL d   1      29.087 -15.525   0.050  0.00  0.00     0.152 C 
BRANCH  23  24
ATOM     24  C   UNL d   1      28.288 -14.458   0.740  0.00  0.00     0.016 C 
ATOM     25  C   UNL d   1      27.877 -14.708   2.069  0.00  0.00     0.016 C 
ATOM     26  C   UNL d   1      27.207 -13.725   2.821  0.00  0.00     0.001 C 
ATOM     27  C   UNL d   1      26.976 -12.468   2.274  0.00  0.00     0.003 C 
ATOM     28  C   UNL d   1      27.296 -12.246   0.944  0.00  0.00     0.037 C 
ATOM     29  C   UNL d   1      27.893 -13.246   0.167  0.00  0.00     0.080 C 
BRANCH  29  30
ATOM     30  O   UNL d   1      28.104 -12.845  -1.115  0.00  0.00    -0.355 OA
ATOM     31  C   UNL d   1      27.675 -11.521  -1.414  0.00  0.00     0.210 C 
ENDBRANCH  29  30
ENDBRANCH  23  24
ENDBRANCH  20  22
ENDBRANCH   1  20
TORSDOF 7
ENDMDL
MODEL 8
REMARK VINA RESULT:    -6.936      3.332      6.711
REMARK INTER + INTRA:         -12.460
REMARK INTER:                  -9.024
REMARK INTRA:                  -3.436
REMARK CONF_INDEPENDENT:        2.088
REMARK UNBOUND:                -3.436
REMARK  7 active torsions:
REMARK  status: ('A' for Active; 'I' for Inactive)
REMARK    1  A    between atoms: O_2  and  C_3 
REMARK    2  A    between atoms: C_8  and  C_9 
REMARK    3  A    between atoms: N_10  and  N_11 
REMARK    4  A    between atoms: N_11  and  C_12 
REMARK    5  A    between atoms: C_16  and  C_17 
REMARK    6  A    between atoms: C_17  and  C_18 
REMARK       I    between atoms: C_18  and  N_20 
REMARK    7  A    between atoms: N_20  and  C_21 
ROOT
ATOM      1  C   UNL d   1      27.060 -15.370  -5.010  0.00  0.00     0.186 C 
ATOM      2  N   UNL d   1      27.686 -15.198  -6.141  0.00  0.00    -0.187 NA
ATOM      3  C   UNL d   1      29.047 -15.181  -6.002  0.00  0.00     0.260 C 
ATOM      4  O   UNL d   1      29.825 -14.960  -6.944  0.00  0.00    -0.270 OA
ATOM      5  C   UNL d   1      29.566 -15.343  -4.585  0.00  0.00     0.158 C 
ATOM      6  S   UNL d   1      28.111 -15.932  -3.657  0.00  0.00    -0.076 SA
ENDROOT
BRANCH   5   7
ATOM      7  C   UNL d   1      30.094 -14.006  -4.040  0.00  0.00     0.128 C 
BRANCH   7   8
ATOM      8  C   UNL d   1      29.175 -12.842  -4.392  0.00  0.00     0.223 C 
ATOM      9  O   UNL d   1      29.539 -11.905  -5.096  0.00  0.00    -0.273 OA
ATOM     10  N   UNL d   1      27.917 -12.809  -3.857  0.00  0.00    -0.327 N 
ATOM     11  H   UNL d   1      27.758 -13.257  -2.967  0.00  0.00     0.169 HD
BRANCH  10  12
ATOM     12  C   UNL d   1      27.043 -11.775  -4.287  0.00  0.00     0.036 A 
ATOM     13  C   UNL d   1      26.558 -11.760  -5.588  0.00  0.00     0.030 A 
ATOM     14  C   UNL d   1      25.761 -10.693  -6.018  0.00  0.00     0.011 A 
ATOM     15  C   UNL d   1      25.383  -9.663  -5.137  0.00  0.00    -0.040 A 
ATOM     16  C   UNL d   1      24.439  -8.590  -5.595  0.00  0.00     0.050 C 
ATOM     17  C   UNL d   1      25.863  -9.696  -3.823  0.00  0.00     0.042 A 
ATOM     18 CL   UNL d   1      25.531  -8.424  -2.701  0.00  0.00    -0.084 Cl
ATOM     19  C   UNL d   1      26.672 -10.748  -3.401  0.00  0.00     0.053 A 
ENDBRANCH  10  12
ENDBRANCH   7   8
ENDBRANCH   5   7
BRANCH   1  20
ATOM     20  N   UNL d   1      25.675 -15.273  -4.906  0.00  0.00    -0.256 N 
ATOM     21  H   UNL d   1      25.275 -16.204  -5.012  0.00  0.00     0.191 HD
BRANCH  20  22
ATOM     22  N   UNL d   1      24.902 -14.333  -4.265  0.00  0.00    -0.184 NA
ATOM     23  C   UNL d   1      24.638 -14.450  -2.984  0.00  0.00     0.152 C 
BRANCH  23  24
ATOM     24  C   UNL d   1      25.150 -15.369  -1.913  0.00  0.00     0.016 C 
ATOM     25  C   UNL d   1      24.404 -16.538  -1.644  0.00  0.00     0.016 C 
ATOM     26  C   UNL d   1      24.862 -17.499  -0.723  0.00  0.00     0.001 C 
ATOM     27  C   UNL d   1      26.088 -17.328  -0.092  0.00  0.00     0.003 C 
ATOM     28  C   UNL d   1      26.783 -16.143  -0.283  0.00  0.00     0.037 C 
ATOM     29  C   UNL d   1      26.294 -15.150  -1.140  0.00  0.00     0.080 C 
BRANCH  29  30
ATOM     30  O   UNL d   1      27.101 -14.056  -1.173  0.00  0.00    -0.355 OA
ATOM     31  C   UNL d   1      27.089 -13.258   0.007  0.00  0.00     0.210 C 
ENDBRANCH  29  30
ENDBRANCH  23  24
ENDBRANCH  20  22
ENDBRANCH   1  20
TORSDOF 7
ENDMDL
MODEL 9
REMARK VINA RESULT:    -6.536      3.178      5.795
REMARK INTER + INTRA:         -12.298
REMARK INTER:                  -8.624
REMARK INTRA:                  -3.674
REMARK CONF_INDEPENDENT:        2.088
REMARK UNBOUND:                -3.674
REMARK  7 active torsions:
REMARK  status: ('A' for Active; 'I' for Inactive)
REMARK    1  A    between atoms: O_2  and  C_3 
REMARK    2  A    between atoms: C_8  and  C_9 
REMARK    3  A    between atoms: N_10  and  N_11 
REMARK    4  A    between atoms: N_11  and  C_12 
REMARK    5  A    between atoms: C_16  and  C_17 
REMARK    6  A    between atoms: C_17  and  C_18 
REMARK       I    between atoms: C_18  and  N_20 
REMARK    7  A    between atoms: N_20  and  C_21 
ROOT
ATOM      1  C   UNL d   1      27.296 -15.446  -4.726  0.00  0.00     0.186 C 
ATOM      2  N   UNL d   1      27.241 -14.852  -5.886  0.00  0.00    -0.187 NA
ATOM      3  C   UNL d   1      28.477 -14.621  -6.428  0.00  0.00     0.260 C 
ATOM      4  O   UNL d   1      28.649 -14.005  -7.492  0.00  0.00    -0.270 OA
ATOM      5  C   UNL d   1      29.657 -15.073  -5.589  0.00  0.00     0.158 C 
ATOM      6  S   UNL d   1      28.905 -16.157  -4.332  0.00  0.00    -0.076 SA
ENDROOT
BRANCH   5   7
ATOM      7  C   UNL d   1      30.372 -13.867  -4.957  0.00  0.00     0.128 C 
BRANCH   7   8
ATOM      8  C   UNL d   1      29.822 -13.538  -3.573  0.00  0.00     0.223 C 
ATOM      9  O   UNL d   1      30.494 -13.649  -2.553  0.00  0.00    -0.273 OA
ATOM     10  N   UNL d   1      28.512 -13.162  -3.456  0.00  0.00    -0.327 N 
ATOM     11  H   UNL d   1      27.849 -13.500  -4.138  0.00  0.00     0.169 HD
BRANCH  10  12
ATOM     12  C   UNL d   1      28.054 -12.754  -2.174  0.00  0.00     0.036 A 
ATOM     13  C   UNL d   1      27.781 -11.418  -1.918  0.00  0.00     0.030 A 
ATOM     14  C   UNL d   1      27.405 -11.023  -0.628  0.00  0.00     0.011 A 
ATOM     15  C   UNL d   1      27.233 -11.966   0.402  0.00  0.00    -0.040 A 
ATOM     16  C   UNL d   1      26.725 -11.527   1.745  0.00  0.00     0.050 C 
ATOM     17  C   UNL d   1      27.496 -13.312   0.129  0.00  0.00     0.042 A 
ATOM     18 CL   UNL d   1      27.405 -14.524   1.358  0.00  0.00    -0.084 Cl
ATOM     19  C   UNL d   1      27.888 -13.702  -1.149  0.00  0.00     0.053 A 
ENDBRANCH  10  12
ENDBRANCH   7   8
ENDBRANCH   5   7
BRANCH   1  20
ATOM     20  N   UNL d   1      26.165 -15.642  -3.939  0.00  0.00    -0.256 N 
ATOM     21  H   UNL d   1      26.267 -16.521  -3.435  0.00  0.00     0.191 HD
BRANCH  20  22
ATOM     22  N   UNL d   1      25.285 -14.723  -3.415  0.00  0.00    -0.184 NA
ATOM     23  C   UNL d   1      24.522 -15.040  -2.395  0.00  0.00     0.152 C 
BRANCH  23  24
ATOM     24  C   UNL d   1      24.481 -16.226  -1.476  0.00  0.00     0.016 C 
ATOM     25  C   UNL d   1      23.229 -16.582  -0.927  0.00  0.00     0.016 C 
ATOM     26  C   UNL d   1      23.084 -17.735  -0.132  0.00  0.00     0.001 C 
ATOM     27  C   UNL d   1      24.174 -18.569   0.089  0.00  0.00     0.003 C 
ATOM     28  C   UNL d   1      25.422 -18.179  -0.372  0.00  0.00     0.037 C 
ATOM     29  C   UNL d   1      25.586 -16.993  -1.097  0.00  0.00     0.080 C 
BRANCH  29  30
ATOM     30  O   UNL d   1      26.885 -16.773  -1.436  0.00  0.00    -0.355 OA
ATOM     31  C   UNL d   1      27.846 -17.288  -0.520  0.00  0.00     0.210 C 
ENDBRANCH  29  30
ENDBRANCH  23  24
ENDBRANCH  20  22
ENDBRANCH   1  20
TORSDOF 7
ENDMDL
