MODEL 1
REMARK VINA RESULT:    -7.917      0.000      0.000
REMARK INTER + INTRA:         -14.168
REMARK INTER:                 -11.198
REMARK INTRA:                  -2.970
REMARK CONF_INDEPENDENT:        3.281
REMARK UNBOUND:                -2.970
REMARK  11 active torsions:
REMARK  status: ('A' for Active; 'I' for Inactive)
REMARK    1  A    between atoms: O_2  and  C_3 
REMARK    2  A    between atoms: C_3  and  C_5 
REMARK    3  A    between atoms: C_9  and  C_10 
REMARK       I    between atoms: C_10  and  N_12 
REMARK    4  A    between atoms: N_12  and  C_13 
REMARK    5  A    between atoms: C_13  and  N_15 
REMARK    6  A    between atoms: N_15  and  N_16 
REMARK       I    between atoms: N_16  and  C_17 
REMARK    7  A    between atoms: C_17  and  C_19 
REMARK    8  A    between atoms: C_19  and  C_20 
REMARK    9  A    between atoms: C_20  and  C_21 
REMARK   10  A    between atoms: C_21  and  O_22 
REMARK   11  A    between atoms: O_22  and  C_23 
ROOT
ATOM      1  N   UNL d   1      25.677 -12.287  -4.043  0.00  0.00    -0.273 N 
ATOM      2  H   UNL d   1      24.710 -12.019  -4.223  0.00  0.00     0.189 HD
ENDROOT
BRANCH   1   3
ATOM      3  C   UNL d   1      26.289 -12.413  -2.785  0.00  0.00     0.193 C 
ATOM      4  S   UNL d   1      27.205 -11.132  -2.177  0.00  0.00    -0.039 SA
BRANCH   3   5
ATOM      5  N   UNL d   1      26.072 -13.647  -2.128  0.00  0.00    -0.298 N 
ATOM      6  C   UNL d   1      25.178 -14.668  -2.536  0.00  0.00     0.257 C 
ATOM      7  O   UNL d   1      24.476 -14.598  -3.542  0.00  0.00    -0.267 OA
ATOM      8  H   UNL d   1      26.614 -13.811  -1.295  0.00  0.00     0.171 HD
BRANCH   6   9
ATOM      9  C   UNL d   1      25.039 -15.948  -1.756  0.00  0.00     0.033 A 
ATOM     10  C   UNL d   1      26.204 -16.453  -1.125  0.00  0.00     0.017 A 
ATOM     11  C   UNL d   1      26.167 -17.593  -0.315  0.00  0.00     0.002 A 
ATOM     12  C   UNL d   1      24.968 -18.280  -0.160  0.00  0.00     0.017 A 
ATOM     13  C   UNL d   1      23.800 -17.790  -0.764  0.00  0.00     0.040 A 
ATOM     14  C   UNL d   1      23.836 -16.634  -1.570  0.00  0.00     0.034 A 
BRANCH  13  15
ATOM     15  C   UNL d   1      22.504 -18.415  -0.404  0.00  0.00     0.292 C 
ATOM     16  O   UNL d   1      22.058 -18.396   0.739  0.00  0.00    -0.259 OA
BRANCH  15  17
ATOM     17  O   UNL d   1      21.907 -18.968  -1.486  0.00  0.00    -0.323 OA
ATOM     18  C   UNL d   1      20.531 -19.315  -1.275  0.00  0.00     0.213 C 
ENDBRANCH  15  17
ENDBRANCH  13  15
ENDBRANCH   6   9
ENDBRANCH   3   5
ENDBRANCH   1   3
BRANCH   1  19
ATOM     19  N   UNL d   1      26.456 -12.561  -5.234  0.00  0.00    -0.268 N 
ATOM     20  C   UNL d   1      26.662 -11.583  -6.192  0.00  0.00     0.236 C 
ATOM     21  O   UNL d   1      26.187 -10.455  -6.072  0.00  0.00    -0.272 OA
ATOM     22  H   UNL d   1      26.830 -13.507  -5.307  0.00  0.00     0.190 HD
BRANCH  20  23
ATOM     23  C   UNL d   1      27.518 -12.006  -7.396  0.00  0.00     0.106 C 
BRANCH  23  24
ATOM     24  C   UNL d   1      28.867 -12.605  -6.950  0.00  0.00     0.036 C 
BRANCH  24  25
ATOM     25  C   UNL d   1      28.966 -14.099  -7.259  0.00  0.00     0.176 C 
BRANCH  25  26
ATOM     26  O   UNL d   1      28.056 -14.854  -6.443  0.00  0.00    -0.349 OA
BRANCH  26  27
ATOM     27  C   UNL d   1      28.623 -15.504  -5.368  0.00  0.00     0.090 A 
ATOM     28  C   UNL d   1      28.096 -15.164  -4.104  0.00  0.00     0.040 A 
ATOM     29  C   UNL d   1      28.639 -15.706  -2.927  0.00  0.00     0.026 A 
ATOM     30  C   UNL d   1      29.659 -16.646  -3.012  0.00  0.00     0.035 A 
ATOM     31 CL   UNL d   1      30.243 -17.438  -1.602  0.00  0.00    -0.084 Cl
ATOM     32  C   UNL d   1      30.206 -16.970  -4.245  0.00  0.00     0.050 A 
ATOM     33  C   UNL d   1      29.722 -16.379  -5.414  0.00  0.00     0.069 A 
ATOM     34 CL   UNL d   1      30.649 -16.765  -6.824  0.00  0.00    -0.081 Cl
ENDBRANCH  26  27
ENDBRANCH  25  26
ENDBRANCH  24  25
ENDBRANCH  23  24
ENDBRANCH  20  23
ENDBRANCH   1  19
TORSDOF 11
ENDMDL
MODEL 2
REMARK VINA RESULT:    -7.474      1.545      2.219
REMARK INTER + INTRA:         -13.789
REMARK INTER:                 -10.755
REMARK INTRA:                  -3.034
REMARK CONF_INDEPENDENT:        3.281
REMARK UNBOUND:                -3.034
REMARK  11 active torsions:
REMARK  status: ('A' for Active; 'I' for Inactive)
REMARK    1  A    between atoms: O_2  and  C_3 
REMARK    2  A    between atoms: C_3  and  C_5 
REMARK    3  A    between atoms: C_9  and  C_10 
REMARK       I    between atoms: C_10  and  N_12 
REMARK    4  A    between atoms: N_12  and  C_13 
REMARK    5  A    between atoms: C_13  and  N_15 
REMARK    6  A    between atoms: N_15  and  N_16 
REMARK       I    between atoms: N_16  and  C_17 
REMARK    7  A    between atoms: C_17  and  C_19 
REMARK    8  A    between atoms: C_19  and  C_20 
REMARK    9  A    between atoms: C_20  and  C_21 
REMARK   10  A    between atoms: C_21  and  O_22 
REMARK   11  A    between atoms: O_22  and  C_23 
ROOT
ATOM      1  N   UNL d   1      25.571 -12.308  -4.037  0.00  0.00    -0.273 N 
ATOM      2  H   UNL d   1      24.566 -12.483  -4.053  0.00  0.00     0.189 HD
ENDROOT
BRANCH   1   3
ATOM      3  C   UNL d   1      26.448 -12.567  -2.971  0.00  0.00     0.193 C 
ATOM      4  S   UNL d   1      27.661 -11.450  -2.607  0.00  0.00    -0.039 SA
BRANCH   3   5
ATOM      5  N   UNL d   1      26.222 -13.782  -2.284  0.00  0.00    -0.298 N 
ATOM      6  C   UNL d   1      25.113 -14.648  -2.454  0.00  0.00     0.257 C 
ATOM      7  O   UNL d   1      24.199 -14.438  -3.248  0.00  0.00    -0.267 OA
ATOM      8  H   UNL d   1      26.925 -14.055  -1.617  0.00  0.00     0.171 HD
BRANCH   6   9
ATOM      9  C   UNL d   1      24.986 -15.925  -1.668  0.00  0.00     0.033 A 
ATOM     10  C   UNL d   1      26.147 -16.395  -1.002  0.00  0.00     0.017 A 
ATOM     11  C   UNL d   1      26.118 -17.529  -0.185  0.00  0.00     0.002 A 
ATOM     12  C   UNL d   1      24.933 -18.246  -0.055  0.00  0.00     0.017 A 
ATOM     13  C   UNL d   1      23.769 -17.790  -0.693  0.00  0.00     0.040 A 
ATOM     14  C   UNL d   1      23.796 -16.640  -1.507  0.00  0.00     0.034 A 
BRANCH  13  15
ATOM     15  C   UNL d   1      22.480 -18.445  -0.362  0.00  0.00     0.292 C 
ATOM     16  O   UNL d   1      22.037 -18.489   0.782  0.00  0.00    -0.259 OA
BRANCH  15  17
ATOM     17  O   UNL d   1      21.885 -18.949  -1.469  0.00  0.00    -0.323 OA
ATOM     18  C   UNL d   1      20.515 -19.326  -1.270  0.00  0.00     0.213 C 
ENDBRANCH  15  17
ENDBRANCH  13  15
ENDBRANCH   6   9
ENDBRANCH   3   5
ENDBRANCH   1   3
BRANCH   1  19
ATOM     19  N   UNL d   1      26.099 -11.740  -5.262  0.00  0.00    -0.268 N 
ATOM     20  C   UNL d   1      25.985 -10.387  -5.527  0.00  0.00     0.236 C 
ATOM     21  O   UNL d   1      25.426  -9.622  -4.743  0.00  0.00    -0.272 OA
ATOM     22  H   UNL d   1      26.551 -12.401  -5.894  0.00  0.00     0.190 HD
BRANCH  20  23
ATOM     23  C   UNL d   1      26.601  -9.918  -6.855  0.00  0.00     0.106 C 
BRANCH  23  24
ATOM     24  C   UNL d   1      26.498 -11.007  -7.942  0.00  0.00     0.036 C 
BRANCH  24  25
ATOM     25  C   UNL d   1      27.726 -11.918  -7.966  0.00  0.00     0.176 C 
BRANCH  25  26
ATOM     26  O   UNL d   1      28.069 -12.352  -6.641  0.00  0.00    -0.349 OA
BRANCH  26  27
ATOM     27  C   UNL d   1      28.826 -13.501  -6.570  0.00  0.00     0.090 A 
ATOM     28  C   UNL d   1      30.084 -13.442  -7.206  0.00  0.00     0.040 A 
ATOM     29  C   UNL d   1      30.917 -14.571  -7.264  0.00  0.00     0.026 A 
ATOM     30  C   UNL d   1      30.530 -15.743  -6.624  0.00  0.00     0.035 A 
ATOM     31 CL   UNL d   1      31.589 -17.094  -6.549  0.00  0.00    -0.084 Cl
ATOM     32  C   UNL d   1      29.285 -15.826  -6.018  0.00  0.00     0.050 A 
ATOM     33  C   UNL d   1      28.419 -14.730  -6.020  0.00  0.00     0.069 A 
ATOM     34 CL   UNL d   1      26.849 -15.082  -5.386  0.00  0.00    -0.081 Cl
ENDBRANCH  26  27
ENDBRANCH  25  26
ENDBRANCH  24  25
ENDBRANCH  23  24
ENDBRANCH  20  23
ENDBRANCH   1  19
TORSDOF 11
ENDMDL
MODEL 3
REMARK VINA RESULT:    -7.374      6.969      8.893
REMARK INTER + INTRA:         -13.879
REMARK INTER:                 -10.655
REMARK INTRA:                  -3.224
REMARK CONF_INDEPENDENT:        3.281
REMARK UNBOUND:                -3.224
REMARK  11 active torsions:
REMARK  status: ('A' for Active; 'I' for Inactive)
REMARK    1  A    between atoms: O_2  and  C_3 
REMARK    2  A    between atoms: C_3  and  C_5 
REMARK    3  A    between atoms: C_9  and  C_10 
REMARK       I    between atoms: C_10  and  N_12 
REMARK    4  A    between atoms: N_12  and  C_13 
REMARK    5  A    between atoms: C_13  and  N_15 
REMARK    6  A    between atoms: N_15  and  N_16 
REMARK       I    between atoms: N_16  and  C_17 
REMARK    7  A    between atoms: C_17  and  C_19 
REMARK    8  A    between atoms: C_19  and  C_20 
REMARK    9  A    between atoms: C_20  and  C_21 
REMARK   10  A    between atoms: C_21  and  O_22 
REMARK   11  A    between atoms: O_22  and  C_23 
ROOT
ATOM      1  N   UNL d   1      28.147 -14.615   1.769  0.00  0.00    -0.273 N 
ATOM      2  H   UNL d   1      28.791 -15.212   2.288  0.00  0.00     0.189 HD
ENDROOT
BRANCH   1   3
ATOM      3  C   UNL d   1      27.429 -13.519   2.278  0.00  0.00     0.193 C 
ATOM      4  S   UNL d   1      26.281 -12.756   1.303  0.00  0.00    -0.039 SA
BRANCH   3   5
ATOM      5  N   UNL d   1      27.753 -13.149   3.604  0.00  0.00    -0.298 N 
ATOM      6  C   UNL d   1      28.257 -14.004   4.615  0.00  0.00     0.257 C 
ATOM      7  O   UNL d   1      28.484 -15.200   4.445  0.00  0.00    -0.267 OA
ATOM      8  H   UNL d   1      27.617 -12.180   3.843  0.00  0.00     0.171 HD
BRANCH   6   9
ATOM      9  C   UNL d   1      28.574 -13.490   5.994  0.00  0.00     0.033 A 
ATOM     10  C   UNL d   1      28.471 -12.091   6.203  0.00  0.00     0.017 A 
ATOM     11  C   UNL d   1      28.670 -11.520   7.464  0.00  0.00     0.002 A 
ATOM     12  C   UNL d   1      29.025 -12.335   8.534  0.00  0.00     0.017 A 
ATOM     13  C   UNL d   1      29.117 -13.723   8.352  0.00  0.00     0.040 A 
ATOM     14  C   UNL d   1      28.904 -14.300   7.084  0.00  0.00     0.034 A 
BRANCH  13  15
ATOM     15  C   UNL d   1      29.280 -14.583   9.549  0.00  0.00     0.292 C 
ATOM     16  O   UNL d   1      30.324 -15.179   9.796  0.00  0.00    -0.259 OA
BRANCH  15  17
ATOM     17  O   UNL d   1      28.155 -14.597  10.302  0.00  0.00    -0.323 OA
ATOM     18  C   UNL d   1      28.373 -14.248  11.677  0.00  0.00     0.213 C 
ENDBRANCH  15  17
ENDBRANCH  13  15
ENDBRANCH   6   9
ENDBRANCH   3   5
ENDBRANCH   1   3
BRANCH   1  19
ATOM     19  N   UNL d   1      27.993 -14.968   0.372  0.00  0.00    -0.268 N 
ATOM     20  C   UNL d   1      28.858 -15.861  -0.237  0.00  0.00     0.236 C 
ATOM     21  O   UNL d   1      29.789 -16.376   0.379  0.00  0.00    -0.272 OA
ATOM     22  H   UNL d   1      27.217 -14.518  -0.112  0.00  0.00     0.190 HD
BRANCH  20  23
ATOM     23  C   UNL d   1      28.572 -16.155  -1.718  0.00  0.00     0.106 C 
BRANCH  23  24
ATOM     24  C   UNL d   1      27.650 -15.086  -2.339  0.00  0.00     0.036 C 
BRANCH  24  25
ATOM     25  C   UNL d   1      26.180 -15.505  -2.313  0.00  0.00     0.176 C 
BRANCH  25  26
ATOM     26  O   UNL d   1      25.718 -15.674  -0.963  0.00  0.00    -0.349 OA
BRANCH  26  27
ATOM     27  C   UNL d   1      24.703 -16.590  -0.793  0.00  0.00     0.090 A 
ATOM     28  C   UNL d   1      23.405 -16.125  -1.094  0.00  0.00     0.040 A 
ATOM     29  C   UNL d   1      22.282 -16.943  -0.893  0.00  0.00     0.026 A 
ATOM     30  C   UNL d   1      22.455 -18.253  -0.461  0.00  0.00     0.035 A 
ATOM     31 CL   UNL d   1      21.116 -19.325  -0.347  0.00  0.00    -0.084 Cl
ATOM     32  C   UNL d   1      23.721 -18.716  -0.135  0.00  0.00     0.050 A 
ATOM     33  C   UNL d   1      24.836 -17.885  -0.261  0.00  0.00     0.069 A 
ATOM     34 CL   UNL d   1      26.293 -18.575   0.368  0.00  0.00    -0.081 Cl
ENDBRANCH  26  27
ENDBRANCH  25  26
ENDBRANCH  24  25
ENDBRANCH  23  24
ENDBRANCH  20  23
ENDBRANCH   1  19
TORSDOF 11
ENDMDL
MODEL 4
REMARK VINA RESULT:    -6.893      2.347      3.373
REMARK INTER + INTRA:         -14.064
REMARK INTER:                 -10.174
REMARK INTRA:                  -3.890
REMARK CONF_INDEPENDENT:        3.281
REMARK UNBOUND:                -3.890
REMARK  11 active torsions:
REMARK  status: ('A' for Active; 'I' for Inactive)
REMARK    1  A    between atoms: O_2  and  C_3 
REMARK    2  A    between atoms: C_3  and  C_5 
REMARK    3  A    between atoms: C_9  and  C_10 
REMARK       I    between atoms: C_10  and  N_12 
REMARK    4  A    between atoms: N_12  and  C_13 
REMARK    5  A    between atoms: C_13  and  N_15 
REMARK    6  A    between atoms: N_15  and  N_16 
REMARK       I    between atoms: N_16  and  C_17 
REMARK    7  A    between atoms: C_17  and  C_19 
REMARK    8  A    between atoms: C_19  and  C_20 
REMARK    9  A    between atoms: C_20  and  C_21 
REMARK   10  A    between atoms: C_21  and  O_22 
REMARK   11  A    between atoms: O_22  and  C_23 
ROOT
ATOM      1  N   UNL d   1      25.282 -13.543  -4.788  0.00  0.00    -0.273 N 
ATOM      2  H   UNL d   1      24.416 -13.382  -5.302  0.00  0.00     0.189 HD
ENDROOT
BRANCH   1   3
ATOM      3  C   UNL d   1      26.021 -14.737  -4.746  0.00  0.00     0.193 C 
ATOM      4  S   UNL d   1      27.353 -14.922  -5.766  0.00  0.00    -0.039 SA
BRANCH   3   5
ATOM      5  N   UNL d   1      25.556 -15.702  -3.823  0.00  0.00    -0.298 N 
ATOM      6  C   UNL d   1      25.149 -15.458  -2.488  0.00  0.00     0.257 C 
ATOM      7  O   UNL d   1      25.145 -14.345  -1.969  0.00  0.00    -0.267 OA
ATOM      8  H   UNL d   1      25.505 -16.651  -4.157  0.00  0.00     0.171 HD
BRANCH   6   9
ATOM      9  C   UNL d   1      24.662 -16.571  -1.598  0.00  0.00     0.033 A 
ATOM     10  C   UNL d   1      25.570 -17.070  -0.629  0.00  0.00     0.017 A 
ATOM     11  C   UNL d   1      25.194 -18.050   0.295  0.00  0.00     0.002 A 
ATOM     12  C   UNL d   1      23.912 -18.586   0.237  0.00  0.00     0.017 A 
ATOM     13  C   UNL d   1      22.993 -18.096  -0.704  0.00  0.00     0.040 A 
ATOM     14  C   UNL d   1      23.369 -17.100  -1.628  0.00  0.00     0.034 A 
BRANCH  13  15
ATOM     15  C   UNL d   1      21.578 -18.527  -0.601  0.00  0.00     0.292 C 
ATOM     16  O   UNL d   1      20.644 -17.813  -0.954  0.00  0.00    -0.259 OA
BRANCH  15  17
ATOM     17  O   UNL d   1      21.480 -19.779  -0.094  0.00  0.00    -0.323 OA
ATOM     18  C   UNL d   1      20.396 -19.946   0.831  0.00  0.00     0.213 C 
ENDBRANCH  15  17
ENDBRANCH  13  15
ENDBRANCH   6   9
ENDBRANCH   3   5
ENDBRANCH   1   3
BRANCH   1  19
ATOM     19  N   UNL d   1      25.761 -12.394  -4.044  0.00  0.00    -0.268 N 
ATOM     20  C   UNL d   1      26.218 -11.262  -4.697  0.00  0.00     0.236 C 
ATOM     21  O   UNL d   1      26.244 -11.194  -5.924  0.00  0.00    -0.272 OA
ATOM     22  H   UNL d   1      25.733 -12.485  -3.029  0.00  0.00     0.190 HD
BRANCH  20  23
ATOM     23  C   UNL d   1      26.683 -10.115  -3.786  0.00  0.00     0.106 C 
BRANCH  23  24
ATOM     24  C   UNL d   1      26.681 -10.535  -2.302  0.00  0.00     0.036 C 
BRANCH  24  25
ATOM     25  C   UNL d   1      27.707 -11.631  -2.011  0.00  0.00     0.176 C 
BRANCH  25  26
ATOM     26  O   UNL d   1      27.089 -12.755  -1.365  0.00  0.00    -0.349 OA
BRANCH  26  27
ATOM     27  C   UNL d   1      27.863 -13.893  -1.284  0.00  0.00     0.090 A 
ATOM     28  C   UNL d   1      28.368 -14.375  -2.510  0.00  0.00     0.040 A 
ATOM     29  C   UNL d   1      29.110 -15.566  -2.565  0.00  0.00     0.026 A 
ATOM     30  C   UNL d   1      29.415 -16.240  -1.388  0.00  0.00     0.035 A 
ATOM     31 CL   UNL d   1      30.445 -17.616  -1.406  0.00  0.00    -0.084 Cl
ATOM     32  C   UNL d   1      28.904 -15.793  -0.179  0.00  0.00     0.050 A 
ATOM     33  C   UNL d   1      28.102 -14.651  -0.124  0.00  0.00     0.069 A 
ATOM     34 CL   UNL d   1      27.408 -14.362   1.434  0.00  0.00    -0.081 Cl
ENDBRANCH  26  27
ENDBRANCH  25  26
ENDBRANCH  24  25
ENDBRANCH  23  24
ENDBRANCH  20  23
ENDBRANCH   1  19
TORSDOF 11
ENDMDL
MODEL 5
REMARK VINA RESULT:    -6.859      2.441      3.591
REMARK INTER + INTRA:         -14.150
REMARK INTER:                 -10.141
REMARK INTRA:                  -4.009
REMARK CONF_INDEPENDENT:        3.281
REMARK UNBOUND:                -4.009
REMARK  11 active torsions:
REMARK  status: ('A' for Active; 'I' for Inactive)
REMARK    1  A    between atoms: O_2  and  C_3 
REMARK    2  A    between atoms: C_3  and  C_5 
REMARK    3  A    between atoms: C_9  and  C_10 
REMARK       I    between atoms: C_10  and  N_12 
REMARK    4  A    between atoms: N_12  and  C_13 
REMARK    5  A    between atoms: C_13  and  N_15 
REMARK    6  A    between atoms: N_15  and  N_16 
REMARK       I    between atoms: N_16  and  C_17 
REMARK    7  A    between atoms: C_17  and  C_19 
REMARK    8  A    between atoms: C_19  and  C_20 
REMARK    9  A    between atoms: C_20  and  C_21 
REMARK   10  A    between atoms: C_21  and  O_22 
REMARK   11  A    between atoms: O_22  and  C_23 
ROOT
ATOM      1  N   UNL d   1      26.418 -14.408  -4.942  0.00  0.00    -0.273 N 
ATOM      2  H   UNL d   1      26.114 -14.538  -5.907  0.00  0.00     0.189 HD
ENDROOT
BRANCH   1   3
ATOM      3  C   UNL d   1      25.651 -13.888  -3.886  0.00  0.00     0.193 C 
ATOM      4  S   UNL d   1      25.510 -12.215  -3.710  0.00  0.00    -0.039 SA
BRANCH   3   5
ATOM      5  N   UNL d   1      25.052 -14.853  -3.044  0.00  0.00    -0.298 N 
ATOM      6  C   UNL d   1      25.727 -15.859  -2.308  0.00  0.00     0.257 C 
ATOM      7  O   UNL d   1      26.947 -16.004  -2.313  0.00  0.00    -0.267 OA
ATOM      8  H   UNL d   1      24.050 -14.810  -2.957  0.00  0.00     0.171 HD
BRANCH   6   9
ATOM      9  C   UNL d   1      24.979 -16.829  -1.433  0.00  0.00     0.033 A 
ATOM     10  C   UNL d   1      25.672 -17.361  -0.316  0.00  0.00     0.017 A 
ATOM     11  C   UNL d   1      25.045 -18.211   0.602  0.00  0.00     0.002 A 
ATOM     12  C   UNL d   1      23.722 -18.584   0.392  0.00  0.00     0.017 A 
ATOM     13  C   UNL d   1      23.013 -18.057  -0.699  0.00  0.00     0.040 A 
ATOM     14  C   UNL d   1      23.642 -17.191  -1.616  0.00  0.00     0.034 A 
BRANCH  13  15
ATOM     15  C   UNL d   1      21.551 -18.296  -0.773  0.00  0.00     0.292 C 
ATOM     16  O   UNL d   1      20.775 -17.486  -1.271  0.00  0.00    -0.259 OA
BRANCH  15  17
ATOM     17  O   UNL d   1      21.222 -19.499  -0.247  0.00  0.00    -0.323 OA
ATOM     18  C   UNL d   1      19.876 -19.567   0.247  0.00  0.00     0.213 C 
ENDBRANCH  15  17
ENDBRANCH  13  15
ENDBRANCH   6   9
ENDBRANCH   3   5
ENDBRANCH   1   3
BRANCH   1  19
ATOM     19  N   UNL d   1      27.784 -14.818  -4.684  0.00  0.00    -0.268 N 
ATOM     20  C   UNL d   1      28.626 -15.188  -5.718  0.00  0.00     0.236 C 
ATOM     21  O   UNL d   1      28.245 -15.190  -6.887  0.00  0.00    -0.272 OA
ATOM     22  H   UNL d   1      28.066 -14.812  -3.703  0.00  0.00     0.190 HD
BRANCH  20  23
ATOM     23  C   UNL d   1      30.050 -15.587  -5.302  0.00  0.00     0.106 C 
BRANCH  23  24
ATOM     24  C   UNL d   1      30.054 -16.890  -4.476  0.00  0.00     0.036 C 
BRANCH  24  25
ATOM     25  C   UNL d   1      29.573 -16.665  -3.042  0.00  0.00     0.176 C 
BRANCH  25  26
ATOM     26  O   UNL d   1      30.129 -15.458  -2.497  0.00  0.00    -0.349 OA
BRANCH  26  27
ATOM     27  C   UNL d   1      29.362 -14.829  -1.541  0.00  0.00     0.090 A 
ATOM     28  C   UNL d   1      29.030 -15.611  -0.414  0.00  0.00     0.040 A 
ATOM     29  C   UNL d   1      28.193 -15.105   0.593  0.00  0.00     0.026 A 
ATOM     30  C   UNL d   1      27.745 -13.792   0.518  0.00  0.00     0.035 A 
ATOM     31 CL   UNL d   1      26.843 -13.096   1.806  0.00  0.00    -0.084 Cl
ATOM     32  C   UNL d   1      28.040 -13.019  -0.595  0.00  0.00     0.050 A 
ATOM     33  C   UNL d   1      28.809 -13.539  -1.638  0.00  0.00     0.069 A 
ATOM     34 CL   UNL d   1      28.911 -12.497  -3.015  0.00  0.00    -0.081 Cl
ENDBRANCH  26  27
ENDBRANCH  25  26
ENDBRANCH  24  25
ENDBRANCH  23  24
ENDBRANCH  20  23
ENDBRANCH   1  19
TORSDOF 11
ENDMDL
MODEL 6
REMARK VINA RESULT:    -6.665      3.521      6.900
REMARK INTER + INTRA:         -13.899
REMARK INTER:                  -9.946
REMARK INTRA:                  -3.952
REMARK CONF_INDEPENDENT:        3.281
REMARK UNBOUND:                -3.952
REMARK  11 active torsions:
REMARK  status: ('A' for Active; 'I' for Inactive)
REMARK    1  A    between atoms: O_2  and  C_3 
REMARK    2  A    between atoms: C_3  and  C_5 
REMARK    3  A    between atoms: C_9  and  C_10 
REMARK       I    between atoms: C_10  and  N_12 
REMARK    4  A    between atoms: N_12  and  C_13 
REMARK    5  A    between atoms: C_13  and  N_15 
REMARK    6  A    between atoms: N_15  and  N_16 
REMARK       I    between atoms: N_16  and  C_17 
REMARK    7  A    between atoms: C_17  and  C_19 
REMARK    8  A    between atoms: C_19  and  C_20 
REMARK    9  A    between atoms: C_20  and  C_21 
REMARK   10  A    between atoms: C_21  and  O_22 
REMARK   11  A    between atoms: O_22  and  C_23 
ROOT
ATOM      1  N   UNL d   1      30.354 -16.414   0.386  0.00  0.00    -0.273 N 
ATOM      2  H   UNL d   1      31.213 -16.469   0.933  0.00  0.00     0.189 HD
ENDROOT
BRANCH   1   3
ATOM      3  C   UNL d   1      30.071 -17.109  -0.801  0.00  0.00     0.193 C 
ATOM      4  S   UNL d   1      30.411 -18.760  -0.895  0.00  0.00    -0.039 SA
BRANCH   3   5
ATOM      5  N   UNL d   1      29.510 -16.328  -1.838  0.00  0.00    -0.298 N 
ATOM      6  C   UNL d   1      29.637 -16.565  -3.229  0.00  0.00     0.257 C 
ATOM      7  O   UNL d   1      30.260 -17.511  -3.706  0.00  0.00    -0.267 OA
ATOM      8  H   UNL d   1      28.963 -15.532  -1.552  0.00  0.00     0.171 HD
BRANCH   6   9
ATOM      9  C   UNL d   1      28.984 -15.664  -4.243  0.00  0.00     0.033 A 
ATOM     10  C   UNL d   1      29.558 -15.624  -5.540  0.00  0.00     0.017 A 
ATOM     11  C   UNL d   1      28.985 -14.879  -6.575  0.00  0.00     0.002 A 
ATOM     12  C   UNL d   1      27.849 -14.118  -6.320  0.00  0.00     0.017 A 
ATOM     13  C   UNL d   1      27.257 -14.155  -5.049  0.00  0.00     0.040 A 
ATOM     14  C   UNL d   1      27.827 -14.916  -4.009  0.00  0.00     0.034 A 
BRANCH  13  15
ATOM     15  C   UNL d   1      25.932 -13.513  -4.868  0.00  0.00     0.292 C 
ATOM     16  O   UNL d   1      25.758 -12.307  -5.017  0.00  0.00    -0.259 OA
BRANCH  15  17
ATOM     17  O   UNL d   1      24.983 -14.423  -4.544  0.00  0.00    -0.323 OA
ATOM     18  C   UNL d   1      24.217 -14.073  -3.381  0.00  0.00     0.213 C 
ENDBRANCH  15  17
ENDBRANCH  13  15
ENDBRANCH   6   9
ENDBRANCH   3   5
ENDBRANCH   1   3
BRANCH   1  19
ATOM     19  N   UNL d   1      29.353 -15.518   0.933  0.00  0.00    -0.268 N 
ATOM     20  C   UNL d   1      29.161 -14.254   0.403  0.00  0.00     0.236 C 
ATOM     21  O   UNL d   1      29.836 -13.843  -0.540  0.00  0.00    -0.272 OA
ATOM     22  H   UNL d   1      28.816 -15.886   1.718  0.00  0.00     0.190 HD
BRANCH  20  23
ATOM     23  C   UNL d   1      28.059 -13.417   1.069  0.00  0.00     0.106 C 
BRANCH  23  24
ATOM     24  C   UNL d   1      26.695 -13.626   0.380  0.00  0.00     0.036 C 
BRANCH  24  25
ATOM     25  C   UNL d   1      26.816 -14.454  -0.899  0.00  0.00     0.176 C 
BRANCH  25  26
ATOM     26  O   UNL d   1      27.006 -15.845  -0.595  0.00  0.00    -0.349 OA
BRANCH  26  27
ATOM     27  C   UNL d   1      25.862 -16.612  -0.580  0.00  0.00     0.090 A 
ATOM     28  C   UNL d   1      24.680 -15.951  -0.976  0.00  0.00     0.040 A 
ATOM     29  C   UNL d   1      23.439 -16.606  -0.934  0.00  0.00     0.026 A 
ATOM     30  C   UNL d   1      23.382 -17.946  -0.570  0.00  0.00     0.035 A 
ATOM     31 CL   UNL d   1      21.902 -18.817  -0.652  0.00  0.00    -0.084 Cl
ATOM     32  C   UNL d   1      24.530 -18.603  -0.153  0.00  0.00     0.050 A 
ATOM     33  C   UNL d   1      25.757 -17.937  -0.119  0.00  0.00     0.069 A 
ATOM     34 CL   UNL d   1      27.030 -18.859   0.604  0.00  0.00    -0.081 Cl
ENDBRANCH  26  27
ENDBRANCH  25  26
ENDBRANCH  24  25
ENDBRANCH  23  24
ENDBRANCH  20  23
ENDBRANCH   1  19
TORSDOF 11
ENDMDL
MODEL 7
REMARK VINA RESULT:    -6.422      3.283      6.646
REMARK INTER + INTRA:         -13.638
REMARK INTER:                  -9.704
REMARK INTRA:                  -3.934
REMARK CONF_INDEPENDENT:        3.281
REMARK UNBOUND:                -3.934
REMARK  11 active torsions:
REMARK  status: ('A' for Active; 'I' for Inactive)
REMARK    1  A    between atoms: O_2  and  C_3 
REMARK    2  A    between atoms: C_3  and  C_5 
REMARK    3  A    between atoms: C_9  and  C_10 
REMARK       I    between atoms: C_10  and  N_12 
REMARK    4  A    between atoms: N_12  and  C_13 
REMARK    5  A    between atoms: C_13  and  N_15 
REMARK    6  A    between atoms: N_15  and  N_16 
REMARK       I    between atoms: N_16  and  C_17 
REMARK    7  A    between atoms: C_17  and  C_19 
REMARK    8  A    between atoms: C_19  and  C_20 
REMARK    9  A    between atoms: C_20  and  C_21 
REMARK   10  A    between atoms: C_21  and  O_22 
REMARK   11  A    between atoms: O_22  and  C_23 
ROOT
ATOM      1  N   UNL d   1      28.593 -12.526   1.680  0.00  0.00    -0.273 N 
ATOM      2  H   UNL d   1      29.099 -12.083   2.447  0.00  0.00     0.189 HD
ENDROOT
BRANCH   1   3
ATOM      3  C   UNL d   1      27.333 -12.154   1.184  0.00  0.00     0.193 C 
ATOM      4  S   UNL d   1      26.432 -10.985   2.004  0.00  0.00    -0.039 SA
BRANCH   3   5
ATOM      5  N   UNL d   1      26.927 -12.821   0.005  0.00  0.00    -0.298 N 
ATOM      6  C   UNL d   1      27.043 -12.331  -1.319  0.00  0.00     0.257 C 
ATOM      7  O   UNL d   1      27.533 -11.240  -1.601  0.00  0.00    -0.267 OA
ATOM      8  H   UNL d   1      26.525 -13.737   0.127  0.00  0.00     0.171 HD
BRANCH   6   9
ATOM      9  C   UNL d   1      26.582 -13.141  -2.501  0.00  0.00     0.033 A 
ATOM     10  C   UNL d   1      25.202 -13.085  -2.826  0.00  0.00     0.017 A 
ATOM     11  C   UNL d   1      24.684 -13.739  -3.949  0.00  0.00     0.002 A 
ATOM     12  C   UNL d   1      25.531 -14.505  -4.743  0.00  0.00     0.017 A 
ATOM     13  C   UNL d   1      26.902 -14.562  -4.447  0.00  0.00     0.040 A 
ATOM     14  C   UNL d   1      27.426 -13.893  -3.323  0.00  0.00     0.034 A 
BRANCH  13  15
ATOM     15  C   UNL d   1      27.810 -15.202  -5.430  0.00  0.00     0.292 C 
ATOM     16  O   UNL d   1      27.777 -14.937  -6.628  0.00  0.00    -0.259 OA
BRANCH  15  17
ATOM     17  O   UNL d   1      28.655 -16.072  -4.826  0.00  0.00    -0.323 OA
ATOM     18  C   UNL d   1      29.999 -16.016  -5.327  0.00  0.00     0.213 C 
ENDBRANCH  15  17
ENDBRANCH  13  15
ENDBRANCH   6   9
ENDBRANCH   3   5
ENDBRANCH   1   3
BRANCH   1  19
ATOM     19  N   UNL d   1      29.288 -13.643   1.070  0.00  0.00    -0.268 N 
ATOM     20  C   UNL d   1      28.695 -14.890   0.984  0.00  0.00     0.236 C 
ATOM     21  O   UNL d   1      27.567 -15.099   1.428  0.00  0.00    -0.272 OA
ATOM     22  H   UNL d   1      30.223 -13.439   0.718  0.00  0.00     0.190 HD
BRANCH  20  23
ATOM     23  C   UNL d   1      29.538 -15.979   0.301  0.00  0.00     0.106 C 
BRANCH  23  24
ATOM     24  C   UNL d   1      29.385 -15.933  -1.233  0.00  0.00     0.036 C 
BRANCH  24  25
ATOM     25  C   UNL d   1      28.042 -16.496  -1.697  0.00  0.00     0.176 C 
BRANCH  25  26
ATOM     26  O   UNL d   1      26.950 -15.808  -1.065  0.00  0.00    -0.349 OA
BRANCH  26  27
ATOM     27  C   UNL d   1      25.805 -16.552  -0.884  0.00  0.00     0.090 A 
ATOM     28  C   UNL d   1      24.611 -15.953  -1.338  0.00  0.00     0.040 A 
ATOM     29  C   UNL d   1      23.370 -16.581  -1.145  0.00  0.00     0.026 A 
ATOM     30  C   UNL d   1      23.323 -17.844  -0.565  0.00  0.00     0.035 A 
ATOM     31 CL   UNL d   1      21.838 -18.703  -0.450  0.00  0.00    -0.084 Cl
ATOM     32  C   UNL d   1      24.484 -18.435  -0.090  0.00  0.00     0.050 A 
ATOM     33  C   UNL d   1      25.714 -17.783  -0.210  0.00  0.00     0.069 A 
ATOM     34 CL   UNL d   1      27.010 -18.588   0.606  0.00  0.00    -0.081 Cl
ENDBRANCH  26  27
ENDBRANCH  25  26
ENDBRANCH  24  25
ENDBRANCH  23  24
ENDBRANCH  20  23
ENDBRANCH   1  19
TORSDOF 11
ENDMDL
MODEL 8
REMARK VINA RESULT:    -6.336      3.569      7.069
REMARK INTER + INTRA:         -13.937
REMARK INTER:                  -9.617
REMARK INTRA:                  -4.320
REMARK CONF_INDEPENDENT:        3.281
REMARK UNBOUND:                -4.320
REMARK  11 active torsions:
REMARK  status: ('A' for Active; 'I' for Inactive)
REMARK    1  A    between atoms: O_2  and  C_3 
REMARK    2  A    between atoms: C_3  and  C_5 
REMARK    3  A    between atoms: C_9  and  C_10 
REMARK       I    between atoms: C_10  and  N_12 
REMARK    4  A    between atoms: N_12  and  C_13 
REMARK    5  A    between atoms: C_13  and  N_15 
REMARK    6  A    between atoms: N_15  and  N_16 
REMARK       I    between atoms: N_16  and  C_17 
REMARK    7  A    between atoms: C_17  and  C_19 
REMARK    8  A    between atoms: C_19  and  C_20 
REMARK    9  A    between atoms: C_20  and  C_21 
REMARK   10  A    between atoms: C_21  and  O_22 
REMARK   11  A    between atoms: O_22  and  C_23 
ROOT
ATOM      1  N   UNL d   1      30.842 -16.968  -1.230  0.00  0.00    -0.273 N 
ATOM      2  H   UNL d   1      31.817 -17.179  -1.018  0.00  0.00     0.189 HD
ENDROOT
BRANCH   1   3
ATOM      3  C   UNL d   1      30.225 -17.043  -2.489  0.00  0.00     0.193 C 
ATOM      4  S   UNL d   1      30.753 -18.195  -3.604  0.00  0.00    -0.039 SA
BRANCH   3   5
ATOM      5  N   UNL d   1      29.185 -16.109  -2.708  0.00  0.00    -0.298 N 
ATOM      6  C   UNL d   1      28.639 -15.739  -3.962  0.00  0.00     0.257 C 
ATOM      7  O   UNL d   1      29.013 -16.209  -5.034  0.00  0.00    -0.267 OA
ATOM      8  H   UNL d   1      28.795 -15.675  -1.887  0.00  0.00     0.171 HD
BRANCH   6   9
ATOM      9  C   UNL d   1      27.522 -14.735  -4.068  0.00  0.00     0.033 A 
ATOM     10  C   UNL d   1      26.281 -15.197  -4.577  0.00  0.00     0.017 A 
ATOM     11  C   UNL d   1      25.159 -14.366  -4.646  0.00  0.00     0.002 A 
ATOM     12  C   UNL d   1      25.269 -13.037  -4.249  0.00  0.00     0.017 A 
ATOM     13  C   UNL d   1      26.483 -12.564  -3.729  0.00  0.00     0.040 A 
ATOM     14  C   UNL d   1      27.611 -13.405  -3.648  0.00  0.00     0.034 A 
BRANCH  13  15
ATOM     15  C   UNL d   1      26.509 -11.214  -3.114  0.00  0.00     0.292 C 
ATOM     16  O   UNL d   1      26.396 -10.186  -3.775  0.00  0.00    -0.259 OA
BRANCH  15  17
ATOM     17  O   UNL d   1      26.655 -11.288  -1.770  0.00  0.00    -0.323 OA
ATOM     18  C   UNL d   1      28.020 -11.238  -1.331  0.00  0.00     0.213 C 
ENDBRANCH  15  17
ENDBRANCH  13  15
ENDBRANCH   6   9
ENDBRANCH   3   5
ENDBRANCH   1   3
BRANCH   1  19
ATOM     19  N   UNL d   1      30.053 -16.561  -0.083  0.00  0.00    -0.268 N 
ATOM     20  C   UNL d   1      29.693 -15.237   0.100  0.00  0.00     0.236 C 
ATOM     21  O   UNL d   1      30.034 -14.362  -0.693  0.00  0.00    -0.272 OA
ATOM     22  H   UNL d   1      29.793 -17.309   0.559  0.00  0.00     0.190 HD
BRANCH  20  23
ATOM     23  C   UNL d   1      28.846 -14.948   1.350  0.00  0.00     0.106 C 
BRANCH  23  24
ATOM     24  C   UNL d   1      27.353 -14.792   0.997  0.00  0.00     0.036 C 
BRANCH  24  25
ATOM     25  C   UNL d   1      27.131 -14.596  -0.503  0.00  0.00     0.176 C 
BRANCH  25  26
ATOM     26  O   UNL d   1      27.051 -15.860  -1.180  0.00  0.00    -0.349 OA
BRANCH  26  27
ATOM     27  C   UNL d   1      25.884 -16.566  -0.982  0.00  0.00     0.090 A 
ATOM     28  C   UNL d   1      24.711 -15.954  -1.473  0.00  0.00     0.040 A 
ATOM     29  C   UNL d   1      23.452 -16.541  -1.270  0.00  0.00     0.026 A 
ATOM     30  C   UNL d   1      23.365 -17.778  -0.641  0.00  0.00     0.035 A 
ATOM     31 CL   UNL d   1      21.857 -18.592  -0.509  0.00  0.00    -0.084 Cl
ATOM     32  C   UNL d   1      24.505 -18.380  -0.129  0.00  0.00     0.050 A 
ATOM     33  C   UNL d   1      25.753 -17.766  -0.261  0.00  0.00     0.069 A 
ATOM     34 CL   UNL d   1      27.019 -18.571   0.600  0.00  0.00    -0.081 Cl
ENDBRANCH  26  27
ENDBRANCH  25  26
ENDBRANCH  24  25
ENDBRANCH  23  24
ENDBRANCH  20  23
ENDBRANCH   1  19
TORSDOF 11
ENDMDL
MODEL 9
REMARK VINA RESULT:    -5.417      4.335      6.398
REMARK INTER + INTRA:         -13.652
REMARK INTER:                  -8.698
REMARK INTRA:                  -4.954
REMARK CONF_INDEPENDENT:        3.281
REMARK UNBOUND:                -4.954
REMARK  11 active torsions:
REMARK  status: ('A' for Active; 'I' for Inactive)
REMARK    1  A    between atoms: O_2  and  C_3 
REMARK    2  A    between atoms: C_3  and  C_5 
REMARK    3  A    between atoms: C_9  and  C_10 
REMARK       I    between atoms: C_10  and  N_12 
REMARK    4  A    between atoms: N_12  and  C_13 
REMARK    5  A    between atoms: C_13  and  N_15 
REMARK    6  A    between atoms: N_15  and  N_16 
REMARK       I    between atoms: N_16  and  C_17 
REMARK    7  A    between atoms: C_17  and  C_19 
REMARK    8  A    between atoms: C_19  and  C_20 
REMARK    9  A    between atoms: C_20  and  C_21 
REMARK   10  A    between atoms: C_21  and  O_22 
REMARK   11  A    between atoms: O_22  and  C_23 
ROOT
ATOM      1  N   UNL d   1      30.902 -14.431   3.281  0.00  0.00    -0.273 N 
ATOM      2  H   UNL d   1      31.546 -14.040   3.969  0.00  0.00     0.189 HD
ENDROOT
BRANCH   1   3
ATOM      3  C   UNL d   1      29.545 -14.104   3.124  0.00  0.00     0.193 C 
ATOM      4  S   UNL d   1      28.858 -12.923   4.115  0.00  0.00    -0.039 SA
BRANCH   3   5
ATOM      5  N   UNL d   1      28.863 -14.825   2.116  0.00  0.00    -0.298 N 
ATOM      6  C   UNL d   1      27.643 -14.455   1.499  0.00  0.00     0.257 C 
ATOM      7  O   UNL d   1      27.025 -13.429   1.773  0.00  0.00    -0.267 OA
ATOM      8  H   UNL d   1      29.298 -15.679   1.807  0.00  0.00     0.171 HD
BRANCH   6   9
ATOM      9  C   UNL d   1      27.016 -15.303   0.426  0.00  0.00     0.033 A 
ATOM     10  C   UNL d   1      27.063 -16.710   0.602  0.00  0.00     0.017 A 
ATOM     11  C   UNL d   1      26.444 -17.585  -0.297  0.00  0.00     0.002 A 
ATOM     12  C   UNL d   1      25.805 -17.069  -1.420  0.00  0.00     0.017 A 
ATOM     13  C   UNL d   1      25.734 -15.680  -1.605  0.00  0.00     0.040 A 
ATOM     14  C   UNL d   1      26.347 -14.798  -0.692  0.00  0.00     0.034 A 
BRANCH  13  15
ATOM     15  C   UNL d   1      24.864 -15.155  -2.686  0.00  0.00     0.292 C 
ATOM     16  O   UNL d   1      23.698 -14.826  -2.492  0.00  0.00    -0.259 OA
BRANCH  15  17
ATOM     17  O   UNL d   1      25.530 -15.083  -3.863  0.00  0.00    -0.323 OA
ATOM     18  C   UNL d   1      25.749 -13.742  -4.323  0.00  0.00     0.213 C 
ENDBRANCH  15  17
ENDBRANCH  13  15
ENDBRANCH   6   9
ENDBRANCH   3   5
ENDBRANCH   1   3
BRANCH   1  19
ATOM     19  N   UNL d   1      31.496 -15.414   2.396  0.00  0.00    -0.268 N 
ATOM     20  C   UNL d   1      32.864 -15.460   2.196  0.00  0.00     0.236 C 
ATOM     21  O   UNL d   1      33.622 -14.666   2.751  0.00  0.00    -0.272 OA
ATOM     22  H   UNL d   1      30.840 -16.052   1.946  0.00  0.00     0.190 HD
BRANCH  20  23
ATOM     23  C   UNL d   1      33.358 -16.560   1.244  0.00  0.00     0.106 C 
BRANCH  23  24
ATOM     24  C   UNL d   1      32.583 -16.544  -0.089  0.00  0.00     0.036 C 
BRANCH  24  25
ATOM     25  C   UNL d   1      31.231 -17.251   0.021  0.00  0.00     0.176 C 
BRANCH  25  26
ATOM     26  O   UNL d   1      30.150 -16.308  -0.066  0.00  0.00    -0.349 OA
BRANCH  26  27
ATOM     27  C   UNL d   1      29.796 -15.927  -1.342  0.00  0.00     0.090 A 
ATOM     28  C   UNL d   1      29.757 -16.963  -2.299  0.00  0.00     0.040 A 
ATOM     29  C   UNL d   1      29.479 -16.688  -3.648  0.00  0.00     0.026 A 
ATOM     30  C   UNL d   1      29.166 -15.390  -4.033  0.00  0.00     0.035 A 
ATOM     31 CL   UNL d   1      28.676 -15.046  -5.645  0.00  0.00    -0.084 Cl
ATOM     32  C   UNL d   1      29.226 -14.356  -3.110  0.00  0.00     0.050 A 
ATOM     33  C   UNL d   1      29.574 -14.609  -1.782  0.00  0.00     0.069 A 
ATOM     34 CL   UNL d   1      29.778 -13.178  -0.831  0.00  0.00    -0.081 Cl
ENDBRANCH  26  27
ENDBRANCH  25  26
ENDBRANCH  24  25
ENDBRANCH  23  24
ENDBRANCH  20  23
ENDBRANCH   1  19
TORSDOF 11
ENDMDL
