MODEL 1
REMARK VINA RESULT:    -8.615      0.000      0.000
REMARK INTER + INTRA:         -12.561
REMARK INTER:                 -10.703
REMARK INTRA:                  -1.858
REMARK CONF_INDEPENDENT:        2.088
REMARK UNBOUND:                -1.858
REMARK  7 active torsions:
REMARK  status: ('A' for Active; 'I' for Inactive)
REMARK    1  A    between atoms: C_2  and  C_14 
REMARK    2  A    between atoms: C_2  and  O_3 
REMARK    3  A    between atoms: O_3  and  C_4 
REMARK       I    between atoms: C_14  and  N_16 
REMARK    4  A    between atoms: N_16  and  N_17 
REMARK       I    between atoms: N_17  and  C_18 
REMARK       I    between atoms: C_18  and  N_20 
REMARK    5  A    between atoms: N_20  and  C_21 
REMARK    6  A    between atoms: C_21  and  C_22 
REMARK    7  A    between atoms: C_22  and  N_23 
ROOT
ATOM      1  C   UNL d   1      24.962 -16.393  -0.868  0.00  0.00     0.265 C 
ATOM      2  O   UNL d   1      25.767 -15.822  -0.127  0.00  0.00    -0.269 OA
ATOM      3  N   UNL d   1      24.912 -16.052  -2.213  0.00  0.00    -0.264 N 
ATOM      4  H   UNL d   1      24.000 -15.811  -2.605  0.00  0.00     0.190 HD
ENDROOT
BRANCH   3   5
ATOM      5  N   UNL d   1      25.998 -15.239  -2.676  0.00  0.00    -0.249 N 
ATOM      6  C   UNL d   1      25.783 -14.289  -3.647  0.00  0.00     0.334 C 
ATOM      7  O   UNL d   1      24.692 -14.087  -4.159  0.00  0.00    -0.246 OA
ATOM      8  N   UNL d   1      26.932 -13.625  -4.044  0.00  0.00    -0.340 N 
ATOM      9  H   UNL d   1      27.809 -13.836  -3.588  0.00  0.00     0.164 HD
ATOM     10  H   UNL d   1      26.835 -15.274  -2.100  0.00  0.00     0.192 HD
BRANCH   8  11
ATOM     11  C   UNL d   1      26.848 -12.668  -5.136  0.00  0.00     0.144 C 
BRANCH  11  12
ATOM     12  C   UNL d   1      27.323 -11.230  -4.854  0.00  0.00     0.149 C 
BRANCH  12  13
ATOM     13  N   UNL d   1      26.226 -10.227  -4.823  0.00  0.00    -0.350 N 
ATOM     14  C   UNL d   1      25.467  -9.777  -5.904  0.00  0.00     0.108 A 
ATOM     15  C   UNL d   1      24.569  -8.870  -5.421  0.00  0.00     0.106 A 
ATOM     16  N   UNL d   1      24.800  -8.787  -4.070  0.00  0.00    -0.361 N 
ATOM     17  C   UNL d   1      25.798  -9.601  -3.710  0.00  0.00     0.182 A 
ATOM     18  H   UNL d   1      24.284  -8.188  -3.429  0.00  0.00     0.166 HD
ENDBRANCH  12  13
ENDBRANCH  11  12
ENDBRANCH   8  11
ENDBRANCH   3   5
BRANCH   1  19
ATOM     19  C   UNL d   1      24.014 -17.547  -0.385  0.00  0.00     0.218 C 
ATOM     20  C   UNL d   1      25.028 -18.555   0.166  0.00  0.00     0.050 C 
BRANCH  19  21
ATOM     21  O   UNL d   1      23.111 -18.247  -1.269  0.00  0.00    -0.337 OA
BRANCH  21  22
ATOM     22  C   UNL d   1      21.888 -18.686  -0.825  0.00  0.00     0.070 C 
ATOM     23  C   UNL d   1      20.789 -18.904  -1.644  0.00  0.00     0.037 C 
ATOM     24  C   UNL d   1      19.725 -19.700  -1.247  0.00  0.00     0.015 C 
ATOM     25  C   UNL d   1      19.576 -20.025   0.086  0.00  0.00    -0.026 A 
ATOM     26  C   UNL d   1      18.420 -20.700   0.486  0.00  0.00     0.012 A 
ATOM     27  C   UNL d   1      20.549 -19.595   1.017  0.00  0.00    -0.023 A 
ATOM     28  C   UNL d   1      18.170 -20.896   1.836  0.00  0.00     0.001 A 
ATOM     29  C   UNL d   1      19.092 -20.445   2.779  0.00  0.00     0.001 A 
ATOM     30  C   UNL d   1      20.277 -19.813   2.377  0.00  0.00     0.012 A 
ATOM     31  C   UNL d   1      21.732 -18.967   0.538  0.00  0.00     0.049 C 
ENDBRANCH  21  22
ENDBRANCH  19  21
ENDBRANCH   1  19
TORSDOF 7
ENDMDL
MODEL 2
REMARK VINA RESULT:    -8.351      7.066      9.633
REMARK INTER + INTRA:         -11.511
REMARK INTER:                 -10.439
REMARK INTRA:                  -1.072
REMARK CONF_INDEPENDENT:        2.088
REMARK UNBOUND:                -1.072
REMARK  7 active torsions:
REMARK  status: ('A' for Active; 'I' for Inactive)
REMARK    1  A    between atoms: C_2  and  C_14 
REMARK    2  A    between atoms: C_2  and  O_3 
REMARK    3  A    between atoms: O_3  and  C_4 
REMARK       I    between atoms: C_14  and  N_16 
REMARK    4  A    between atoms: N_16  and  N_17 
REMARK       I    between atoms: N_17  and  C_18 
REMARK       I    between atoms: C_18  and  N_20 
REMARK    5  A    between atoms: N_20  and  C_21 
REMARK    6  A    between atoms: C_21  and  C_22 
REMARK    7  A    between atoms: C_22  and  N_23 
ROOT
ATOM      1  C   UNL d   1      29.008 -13.836   1.331  0.00  0.00     0.265 C 
ATOM      2  O   UNL d   1      30.081 -13.230   1.402  0.00  0.00    -0.269 OA
ATOM      3  N   UNL d   1      28.656 -14.721   2.341  0.00  0.00    -0.264 N 
ATOM      4  H   UNL d   1      28.381 -15.666   2.066  0.00  0.00     0.190 HD
ENDROOT
BRANCH   3   5
ATOM      5  N   UNL d   1      29.468 -14.653   3.521  0.00  0.00    -0.249 N 
ATOM      6  C   UNL d   1      28.950 -14.134   4.685  0.00  0.00     0.334 C 
ATOM      7  O   UNL d   1      27.808 -13.712   4.782  0.00  0.00    -0.246 OA
ATOM      8  N   UNL d   1      29.865 -14.068   5.723  0.00  0.00    -0.340 N 
ATOM      9  H   UNL d   1      30.799 -14.428   5.584  0.00  0.00     0.164 HD
ATOM     10  H   UNL d   1      30.329 -15.192   3.480  0.00  0.00     0.192 HD
BRANCH   8  11
ATOM     11  C   UNL d   1      29.464 -13.445   6.974  0.00  0.00     0.144 C 
BRANCH  11  12
ATOM     12  C   UNL d   1      29.951 -14.100   8.279  0.00  0.00     0.149 C 
BRANCH  12  13
ATOM     13  N   UNL d   1      29.064 -13.854   9.447  0.00  0.00    -0.350 N 
ATOM     14  C   UNL d   1      28.641 -12.617   9.935  0.00  0.00     0.108 A 
ATOM     15  C   UNL d   1      27.833 -12.858  11.009  0.00  0.00     0.106 A 
ATOM     16  N   UNL d   1      27.784 -14.223  11.149  0.00  0.00    -0.361 N 
ATOM     17  C   UNL d   1      28.525 -14.823  10.212  0.00  0.00     0.182 A 
ATOM     18  H   UNL d   1      27.256 -14.713  11.869  0.00  0.00     0.166 HD
ENDBRANCH  12  13
ENDBRANCH  11  12
ENDBRANCH   8  11
ENDBRANCH   3   5
BRANCH   1  19
ATOM     19  C   UNL d   1      27.969 -13.616   0.176  0.00  0.00     0.218 C 
ATOM     20  C   UNL d   1      26.658 -13.528   0.966  0.00  0.00     0.050 C 
BRANCH  19  21
ATOM     21  O   UNL d   1      27.784 -14.554  -0.908  0.00  0.00    -0.337 OA
BRANCH  21  22
ATOM     22  C   UNL d   1      26.920 -15.613  -0.785  0.00  0.00     0.070 C 
ATOM     23  C   UNL d   1      27.284 -16.874  -0.332  0.00  0.00     0.037 C 
ATOM     24  C   UNL d   1      26.348 -17.780   0.144  0.00  0.00     0.015 C 
ATOM     25  C   UNL d   1      25.009 -17.582  -0.123  0.00  0.00    -0.026 A 
ATOM     26  C   UNL d   1      24.099 -18.581   0.236  0.00  0.00     0.012 A 
ATOM     27  C   UNL d   1      24.606 -16.424  -0.825  0.00  0.00    -0.023 A 
ATOM     28  C   UNL d   1      22.775 -18.481  -0.165  0.00  0.00     0.001 A 
ATOM     29  C   UNL d   1      22.358 -17.370  -0.894  0.00  0.00     0.001 A 
ATOM     30  C   UNL d   1      23.258 -16.342  -1.210  0.00  0.00     0.012 A 
ATOM     31  C   UNL d   1      25.571 -15.418  -1.106  0.00  0.00     0.049 C 
ENDBRANCH  21  22
ENDBRANCH  19  21
ENDBRANCH   1  19
TORSDOF 7
ENDMDL
MODEL 3
REMARK VINA RESULT:    -8.201      2.173      2.800
REMARK INTER + INTRA:         -12.046
REMARK INTER:                 -10.289
REMARK INTRA:                  -1.757
REMARK CONF_INDEPENDENT:        2.088
REMARK UNBOUND:                -1.757
REMARK  7 active torsions:
REMARK  status: ('A' for Active; 'I' for Inactive)
REMARK    1  A    between atoms: C_2  and  C_14 
REMARK    2  A    between atoms: C_2  and  O_3 
REMARK    3  A    between atoms: O_3  and  C_4 
REMARK       I    between atoms: C_14  and  N_16 
REMARK    4  A    between atoms: N_16  and  N_17 
REMARK       I    between atoms: N_17  and  C_18 
REMARK       I    between atoms: C_18  and  N_20 
REMARK    5  A    between atoms: N_20  and  C_21 
REMARK    6  A    between atoms: C_21  and  C_22 
REMARK    7  A    between atoms: C_22  and  N_23 
ROOT
ATOM      1  C   UNL d   1      25.033 -16.321  -0.939  0.00  0.00     0.265 C 
ATOM      2  O   UNL d   1      25.857 -15.720  -0.243  0.00  0.00    -0.269 OA
ATOM      3  N   UNL d   1      25.038 -16.135  -2.315  0.00  0.00    -0.264 N 
ATOM      4  H   UNL d   1      24.154 -15.884  -2.761  0.00  0.00     0.190 HD
ENDROOT
BRANCH   3   5
ATOM      5  N   UNL d   1      26.187 -15.451  -2.833  0.00  0.00    -0.249 N 
ATOM      6  C   UNL d   1      26.095 -14.741  -4.007  0.00  0.00     0.334 C 
ATOM      7  O   UNL d   1      25.066 -14.654  -4.660  0.00  0.00    -0.246 OA
ATOM      8  N   UNL d   1      27.296 -14.189  -4.422  0.00  0.00    -0.340 N 
ATOM      9  H   UNL d   1      28.117 -14.297  -3.843  0.00  0.00     0.164 HD
ATOM     10  H   UNL d   1      26.961 -15.362  -2.181  0.00  0.00     0.192 HD
BRANCH   8  11
ATOM     11  C   UNL d   1      27.347 -13.500  -5.702  0.00  0.00     0.144 C 
BRANCH  11  12
ATOM     12  C   UNL d   1      28.519 -12.529  -5.936  0.00  0.00     0.149 C 
BRANCH  12  13
ATOM     13  N   UNL d   1      28.983 -12.473  -7.348  0.00  0.00    -0.350 N 
ATOM     14  C   UNL d   1      28.505 -11.635  -8.357  0.00  0.00     0.108 A 
ATOM     15  C   UNL d   1      29.219 -11.912  -9.487  0.00  0.00     0.106 A 
ATOM     16  N   UNL d   1      30.106 -12.902  -9.144  0.00  0.00    -0.361 N 
ATOM     17  C   UNL d   1      29.963 -13.242  -7.859  0.00  0.00     0.182 A 
ATOM     18  H   UNL d   1      30.780 -13.324  -9.781  0.00  0.00     0.166 HD
ENDBRANCH  12  13
ENDBRANCH  11  12
ENDBRANCH   8  11
ENDBRANCH   3   5
BRANCH   1  19
ATOM     19  C   UNL d   1      23.999 -17.348  -0.358  0.00  0.00     0.218 C 
ATOM     20  C   UNL d   1      24.899 -18.199   0.545  0.00  0.00     0.050 C 
BRANCH  19  21
ATOM     21  O   UNL d   1      23.218 -18.236  -1.188  0.00  0.00    -0.337 OA
BRANCH  21  22
ATOM     22  C   UNL d   1      21.984 -18.678  -0.783  0.00  0.00     0.070 C 
ATOM     23  C   UNL d   1      20.912 -18.901  -1.636  0.00  0.00     0.037 C 
ATOM     24  C   UNL d   1      19.838 -19.700  -1.271  0.00  0.00     0.015 C 
ATOM     25  C   UNL d   1      19.648 -20.023   0.057  0.00  0.00    -0.026 A 
ATOM     26  C   UNL d   1      18.482 -20.701   0.422  0.00  0.00     0.012 A 
ATOM     27  C   UNL d   1      20.589 -19.588   1.018  0.00  0.00    -0.023 A 
ATOM     28  C   UNL d   1      18.190 -20.895   1.764  0.00  0.00     0.001 A 
ATOM     29  C   UNL d   1      19.080 -20.439   2.734  0.00  0.00     0.001 A 
ATOM     30  C   UNL d   1      20.275 -19.805   2.369  0.00  0.00     0.012 A 
ATOM     31  C   UNL d   1      21.785 -18.957   0.575  0.00  0.00     0.049 C 
ENDBRANCH  21  22
ENDBRANCH  19  21
ENDBRANCH   1  19
TORSDOF 7
ENDMDL
MODEL 4
REMARK VINA RESULT:    -8.031      2.296      3.627
REMARK INTER + INTRA:         -12.087
REMARK INTER:                 -10.119
REMARK INTRA:                  -1.968
REMARK CONF_INDEPENDENT:        2.088
REMARK UNBOUND:                -1.968
REMARK  7 active torsions:
REMARK  status: ('A' for Active; 'I' for Inactive)
REMARK    1  A    between atoms: C_2  and  C_14 
REMARK    2  A    between atoms: C_2  and  O_3 
REMARK    3  A    between atoms: O_3  and  C_4 
REMARK       I    between atoms: C_14  and  N_16 
REMARK    4  A    between atoms: N_16  and  N_17 
REMARK       I    between atoms: N_17  and  C_18 
REMARK       I    between atoms: C_18  and  N_20 
REMARK    5  A    between atoms: N_20  and  C_21 
REMARK    6  A    between atoms: C_21  and  C_22 
REMARK    7  A    between atoms: C_22  and  N_23 
ROOT
ATOM      1  C   UNL d   1      25.071 -16.334  -0.950  0.00  0.00     0.265 C 
ATOM      2  O   UNL d   1      25.844 -15.669  -0.255  0.00  0.00    -0.269 OA
ATOM      3  N   UNL d   1      25.128 -16.222  -2.333  0.00  0.00    -0.264 N 
ATOM      4  H   UNL d   1      24.255 -16.026  -2.827  0.00  0.00     0.190 HD
ENDROOT
BRANCH   3   5
ATOM      5  N   UNL d   1      26.274 -15.526  -2.841  0.00  0.00    -0.249 N 
ATOM      6  C   UNL d   1      26.206 -14.877  -4.051  0.00  0.00     0.334 C 
ATOM      7  O   UNL d   1      25.201 -14.855  -4.745  0.00  0.00    -0.246 OA
ATOM      8  N   UNL d   1      27.404 -14.305  -4.447  0.00  0.00    -0.340 N 
ATOM      9  H   UNL d   1      28.205 -14.358  -3.833  0.00  0.00     0.164 HD
ATOM     10  H   UNL d   1      27.019 -15.380  -2.165  0.00  0.00     0.192 HD
BRANCH   8  11
ATOM     11  C   UNL d   1      27.484 -13.677  -5.756  0.00  0.00     0.144 C 
BRANCH  11  12
ATOM     12  C   UNL d   1      28.588 -14.168  -6.710  0.00  0.00     0.149 C 
BRANCH  12  13
ATOM     13  N   UNL d   1      29.647 -14.973  -6.045  0.00  0.00    -0.350 N 
ATOM     14  C   UNL d   1      29.949 -16.316  -6.273  0.00  0.00     0.108 A 
ATOM     15  C   UNL d   1      30.993 -16.642  -5.456  0.00  0.00     0.106 A 
ATOM     16  N   UNL d   1      31.300 -15.502  -4.756  0.00  0.00    -0.361 N 
ATOM     17  C   UNL d   1      30.489 -14.497  -5.108  0.00  0.00     0.182 A 
ATOM     18  H   UNL d   1      32.041 -15.428  -4.062  0.00  0.00     0.166 HD
ENDBRANCH  12  13
ENDBRANCH  11  12
ENDBRANCH   8  11
ENDBRANCH   3   5
BRANCH   1  19
ATOM     19  C   UNL d   1      24.049 -17.366  -0.356  0.00  0.00     0.218 C 
ATOM     20  C   UNL d   1      24.959 -18.199   0.553  0.00  0.00     0.050 C 
BRANCH  19  21
ATOM     21  O   UNL d   1      23.274 -18.269  -1.176  0.00  0.00    -0.337 OA
BRANCH  21  22
ATOM     22  C   UNL d   1      22.030 -18.693  -0.777  0.00  0.00     0.070 C 
ATOM     23  C   UNL d   1      20.966 -18.918  -1.638  0.00  0.00     0.037 C 
ATOM     24  C   UNL d   1      19.879 -19.700  -1.274  0.00  0.00     0.015 C 
ATOM     25  C   UNL d   1      19.672 -20.002   0.057  0.00  0.00    -0.026 A 
ATOM     26  C   UNL d   1      18.496 -20.663   0.418  0.00  0.00     0.012 A 
ATOM     27  C   UNL d   1      20.608 -19.562   1.021  0.00  0.00    -0.023 A 
ATOM     28  C   UNL d   1      18.188 -20.835   1.760  0.00  0.00     0.001 A 
ATOM     29  C   UNL d   1      19.071 -20.373   2.734  0.00  0.00     0.001 A 
ATOM     30  C   UNL d   1      20.277 -19.756   2.372  0.00  0.00     0.012 A 
ATOM     31  C   UNL d   1      21.814 -18.950   0.582  0.00  0.00     0.049 C 
ENDBRANCH  21  22
ENDBRANCH  19  21
ENDBRANCH   1  19
TORSDOF 7
ENDMDL
MODEL 5
REMARK VINA RESULT:    -7.998      4.554      6.012
REMARK INTER + INTRA:         -11.732
REMARK INTER:                 -10.087
REMARK INTRA:                  -1.645
REMARK CONF_INDEPENDENT:        2.088
REMARK UNBOUND:                -1.645
REMARK  7 active torsions:
REMARK  status: ('A' for Active; 'I' for Inactive)
REMARK    1  A    between atoms: C_2  and  C_14 
REMARK    2  A    between atoms: C_2  and  O_3 
REMARK    3  A    between atoms: O_3  and  C_4 
REMARK       I    between atoms: C_14  and  N_16 
REMARK    4  A    between atoms: N_16  and  N_17 
REMARK       I    between atoms: N_17  and  C_18 
REMARK       I    between atoms: C_18  and  N_20 
REMARK    5  A    between atoms: N_20  and  C_21 
REMARK    6  A    between atoms: C_21  and  C_22 
REMARK    7  A    between atoms: C_22  and  N_23 
ROOT
ATOM      1  C   UNL d   1      26.183 -18.056   0.009  0.00  0.00     0.265 C 
ATOM      2  O   UNL d   1      26.453 -18.681   1.039  0.00  0.00    -0.269 OA
ATOM      3  N   UNL d   1      27.205 -17.451  -0.710  0.00  0.00    -0.264 N 
ATOM      4  H   UNL d   1      27.096 -16.463  -0.944  0.00  0.00     0.190 HD
ENDROOT
BRANCH   3   5
ATOM      5  N   UNL d   1      28.531 -17.834  -0.323  0.00  0.00    -0.249 N 
ATOM      6  C   UNL d   1      29.590 -17.601  -1.168  0.00  0.00     0.334 C 
ATOM      7  O   UNL d   1      29.472 -17.073  -2.263  0.00  0.00    -0.246 OA
ATOM      8  N   UNL d   1      30.800 -18.082  -0.694  0.00  0.00    -0.340 N 
ATOM      9  H   UNL d   1      30.838 -18.513   0.219  0.00  0.00     0.164 HD
ATOM     10  H   UNL d   1      28.637 -18.073   0.659  0.00  0.00     0.192 HD
BRANCH   8  11
ATOM     11  C   UNL d   1      31.976 -17.984  -1.544  0.00  0.00     0.144 C 
BRANCH  11  12
ATOM     12  C   UNL d   1      32.297 -19.188  -2.448  0.00  0.00     0.149 C 
BRANCH  12  13
ATOM     13  N   UNL d   1      31.568 -19.181  -3.745  0.00  0.00    -0.350 N 
ATOM     14  C   UNL d   1      31.024 -20.282  -4.409  0.00  0.00     0.108 A 
ATOM     15  C   UNL d   1      30.439 -19.819  -5.551  0.00  0.00     0.106 A 
ATOM     16  N   UNL d   1      30.639 -18.460  -5.558  0.00  0.00    -0.361 N 
ATOM     17  C   UNL d   1      31.320 -18.076  -4.473  0.00  0.00     0.182 A 
ATOM     18  H   UNL d   1      30.315 -17.829  -6.289  0.00  0.00     0.166 HD
ENDBRANCH  12  13
ENDBRANCH  11  12
ENDBRANCH   8  11
ENDBRANCH   3   5
BRANCH   1  19
ATOM     19  C   UNL d   1      24.733 -17.953  -0.582  0.00  0.00     0.218 C 
ATOM     20  C   UNL d   1      24.963 -17.023  -1.779  0.00  0.00     0.050 C 
BRANCH  19  21
ATOM     21  O   UNL d   1      23.607 -17.453   0.173  0.00  0.00    -0.337 OA
BRANCH  21  22
ATOM     22  C   UNL d   1      22.369 -18.035   0.063  0.00  0.00     0.070 C 
ATOM     23  C   UNL d   1      21.662 -18.157  -1.124  0.00  0.00     0.037 C 
ATOM     24  C   UNL d   1      20.629 -19.072  -1.273  0.00  0.00     0.015 C 
ATOM     25  C   UNL d   1      20.062 -19.649  -0.155  0.00  0.00    -0.026 A 
ATOM     26  C   UNL d   1      18.929 -20.450  -0.316  0.00  0.00     0.012 A 
ATOM     27  C   UNL d   1      20.587 -19.346   1.122  0.00  0.00    -0.023 A 
ATOM     28  C   UNL d   1      18.247 -20.909   0.801  0.00  0.00     0.001 A 
ATOM     29  C   UNL d   1      18.717 -20.591   2.073  0.00  0.00     0.001 A 
ATOM     30  C   UNL d   1      19.883 -19.831   2.237  0.00  0.00     0.012 A 
ATOM     31  C   UNL d   1      21.778 -18.575   1.213  0.00  0.00     0.049 C 
ENDBRANCH  21  22
ENDBRANCH  19  21
ENDBRANCH   1  19
TORSDOF 7
ENDMDL
MODEL 6
REMARK VINA RESULT:    -7.930      4.526      5.697
REMARK INTER + INTRA:         -11.935
REMARK INTER:                 -10.019
REMARK INTRA:                  -1.917
REMARK CONF_INDEPENDENT:        2.088
REMARK UNBOUND:                -1.917
REMARK  7 active torsions:
REMARK  status: ('A' for Active; 'I' for Inactive)
REMARK    1  A    between atoms: C_2  and  C_14 
REMARK    2  A    between atoms: C_2  and  O_3 
REMARK    3  A    between atoms: O_3  and  C_4 
REMARK       I    between atoms: C_14  and  N_16 
REMARK    4  A    between atoms: N_16  and  N_17 
REMARK       I    between atoms: N_17  and  C_18 
REMARK       I    between atoms: C_18  and  N_20 
REMARK    5  A    between atoms: N_20  and  C_21 
REMARK    6  A    between atoms: C_21  and  C_22 
REMARK    7  A    between atoms: C_22  and  N_23 
ROOT
ATOM      1  C   UNL d   1      26.023 -18.008  -0.064  0.00  0.00     0.265 C 
ATOM      2  O   UNL d   1      26.253 -18.660   0.959  0.00  0.00    -0.269 OA
ATOM      3  N   UNL d   1      27.054 -17.305  -0.672  0.00  0.00    -0.264 N 
ATOM      4  H   UNL d   1      26.895 -16.316  -0.874  0.00  0.00     0.190 HD
ENDROOT
BRANCH   3   5
ATOM      5  N   UNL d   1      28.369 -17.616  -0.193  0.00  0.00    -0.249 N 
ATOM      6  C   UNL d   1      29.460 -16.942  -0.689  0.00  0.00     0.334 C 
ATOM      7  O   UNL d   1      29.381 -16.070  -1.540  0.00  0.00    -0.246 OA
ATOM      8  N   UNL d   1      30.671 -17.392  -0.185  0.00  0.00    -0.340 N 
ATOM      9  H   UNL d   1      30.676 -18.120   0.515  0.00  0.00     0.164 HD
ATOM     10  H   UNL d   1      28.393 -18.184   0.650  0.00  0.00     0.192 HD
BRANCH   8  11
ATOM     11  C   UNL d   1      31.903 -16.825  -0.710  0.00  0.00     0.144 C 
BRANCH  11  12
ATOM     12  C   UNL d   1      32.777 -16.012   0.263  0.00  0.00     0.149 C 
BRANCH  12  13
ATOM     13  N   UNL d   1      32.010 -15.341   1.347  0.00  0.00    -0.350 N 
ATOM     14  C   UNL d   1      30.976 -14.417   1.197  0.00  0.00     0.108 A 
ATOM     15  C   UNL d   1      30.556 -14.071   2.448  0.00  0.00     0.106 A 
ATOM     16  N   UNL d   1      31.336 -14.784   3.323  0.00  0.00    -0.361 N 
ATOM     17  C   UNL d   1      32.213 -15.547   2.662  0.00  0.00     0.182 A 
ATOM     18  H   UNL d   1      31.261 -14.739   4.338  0.00  0.00     0.166 HD
ENDBRANCH  12  13
ENDBRANCH  11  12
ENDBRANCH   8  11
ENDBRANCH   3   5
BRANCH   1  19
ATOM     19  C   UNL d   1      24.620 -17.976  -0.768  0.00  0.00     0.218 C 
ATOM     20  C   UNL d   1      24.945 -17.191  -2.044  0.00  0.00     0.050 C 
BRANCH  19  21
ATOM     21  O   UNL d   1      23.447 -17.392  -0.160  0.00  0.00    -0.337 OA
BRANCH  21  22
ATOM     22  C   UNL d   1      22.250 -18.065  -0.146  0.00  0.00     0.070 C 
ATOM     23  C   UNL d   1      21.473 -18.306  -1.270  0.00  0.00     0.037 C 
ATOM     24  C   UNL d   1      20.503 -19.298  -1.292  0.00  0.00     0.015 C 
ATOM     25  C   UNL d   1      20.060 -19.846  -0.106  0.00  0.00    -0.026 A 
ATOM     26  C   UNL d   1      18.981 -20.732  -0.139  0.00  0.00     0.012 A 
ATOM     27  C   UNL d   1      20.649 -19.432   1.111  0.00  0.00    -0.023 A 
ATOM     28  C   UNL d   1      18.414 -21.170   1.049  0.00  0.00     0.001 A 
ATOM     29  C   UNL d   1      18.947 -20.745   2.264  0.00  0.00     0.001 A 
ATOM     30  C   UNL d   1      20.062 -19.897   2.299  0.00  0.00     0.012 A 
ATOM     31  C   UNL d   1      21.783 -18.575   1.072  0.00  0.00     0.049 C 
ENDBRANCH  21  22
ENDBRANCH  19  21
ENDBRANCH   1  19
TORSDOF 7
ENDMDL
MODEL 7
REMARK VINA RESULT:    -7.534      4.345      5.578
REMARK INTER + INTRA:         -11.543
REMARK INTER:                  -9.623
REMARK INTRA:                  -1.920
REMARK CONF_INDEPENDENT:        2.088
REMARK UNBOUND:                -1.920
REMARK  7 active torsions:
REMARK  status: ('A' for Active; 'I' for Inactive)
REMARK    1  A    between atoms: C_2  and  C_14 
REMARK    2  A    between atoms: C_2  and  O_3 
REMARK    3  A    between atoms: O_3  and  C_4 
REMARK       I    between atoms: C_14  and  N_16 
REMARK    4  A    between atoms: N_16  and  N_17 
REMARK       I    between atoms: N_17  and  C_18 
REMARK       I    between atoms: C_18  and  N_20 
REMARK    5  A    between atoms: N_20  and  C_21 
REMARK    6  A    between atoms: C_21  and  C_22 
REMARK    7  A    between atoms: C_22  and  N_23 
ROOT
ATOM      1  C   UNL d   1      25.006 -17.185  -0.055  0.00  0.00     0.265 C 
ATOM      2  O   UNL d   1      25.412 -18.096   0.671  0.00  0.00    -0.269 OA
ATOM      3  N   UNL d   1      25.691 -15.978  -0.083  0.00  0.00    -0.264 N 
ATOM      4  H   UNL d   1      25.150 -15.124   0.069  0.00  0.00     0.190 HD
ENDROOT
BRANCH   3   5
ATOM      5  N   UNL d   1      26.978 -15.993   0.550  0.00  0.00    -0.249 N 
ATOM      6  C   UNL d   1      27.661 -14.817   0.750  0.00  0.00     0.334 C 
ATOM      7  O   UNL d   1      27.231 -13.724   0.413  0.00  0.00    -0.246 OA
ATOM      8  N   UNL d   1      28.917 -14.989   1.310  0.00  0.00    -0.340 N 
ATOM      9  H   UNL d   1      29.222 -15.917   1.565  0.00  0.00     0.164 HD
ATOM     10  H   UNL d   1      27.220 -16.869   1.005  0.00  0.00     0.192 HD
BRANCH   8  11
ATOM     11  C   UNL d   1      29.776 -13.827   1.477  0.00  0.00     0.144 C 
BRANCH  11  12
ATOM     12  C   UNL d   1      29.841 -13.192   2.878  0.00  0.00     0.149 C 
BRANCH  12  13
ATOM     13  N   UNL d   1      28.839 -13.735   3.835  0.00  0.00    -0.350 N 
ATOM     14  C   UNL d   1      27.638 -13.139   4.223  0.00  0.00     0.108 A 
ATOM     15  C   UNL d   1      27.031 -13.986   5.104  0.00  0.00     0.106 A 
ATOM     16  N   UNL d   1      27.867 -15.068   5.231  0.00  0.00    -0.361 N 
ATOM     17  C   UNL d   1      28.956 -14.917   4.470  0.00  0.00     0.182 A 
ATOM     18  H   UNL d   1      27.685 -15.875   5.825  0.00  0.00     0.166 HD
ENDBRANCH  12  13
ENDBRANCH  11  12
ENDBRANCH   8  11
ENDBRANCH   3   5
BRANCH   1  19
ATOM     19  C   UNL d   1      23.772 -17.331  -1.013  0.00  0.00     0.218 C 
ATOM     20  C   UNL d   1      22.733 -16.460  -0.297  0.00  0.00     0.050 C 
BRANCH  19  21
ATOM     21  O   UNL d   1      23.162 -18.603  -1.326  0.00  0.00    -0.337 OA
BRANCH  21  22
ATOM     22  C   UNL d   1      21.913 -18.922  -0.855  0.00  0.00     0.070 C 
ATOM     23  C   UNL d   1      20.776 -19.011  -1.645  0.00  0.00     0.037 C 
ATOM     24  C   UNL d   1      19.646 -19.700  -1.230  0.00  0.00     0.015 C 
ATOM     25  C   UNL d   1      19.500 -20.033   0.101  0.00  0.00    -0.026 A 
ATOM     26  C   UNL d   1      18.291 -20.592   0.523  0.00  0.00     0.012 A 
ATOM     27  C   UNL d   1      20.536 -19.721   1.011  0.00  0.00    -0.023 A 
ATOM     28  C   UNL d   1      18.058 -20.785   1.877  0.00  0.00     0.001 A 
ATOM     29  C   UNL d   1      19.046 -20.448   2.800  0.00  0.00     0.001 A 
ATOM     30  C   UNL d   1      20.279 -19.935   2.375  0.00  0.00     0.012 A 
ATOM     31  C   UNL d   1      21.764 -19.210   0.508  0.00  0.00     0.049 C 
ENDBRANCH  21  22
ENDBRANCH  19  21
ENDBRANCH   1  19
TORSDOF 7
ENDMDL
MODEL 8
REMARK VINA RESULT:    -7.506      4.789     10.452
REMARK INTER + INTRA:         -11.424
REMARK INTER:                  -9.594
REMARK INTRA:                  -1.831
REMARK CONF_INDEPENDENT:        2.088
REMARK UNBOUND:                -1.831
REMARK  7 active torsions:
REMARK  status: ('A' for Active; 'I' for Inactive)
REMARK    1  A    between atoms: C_2  and  C_14 
REMARK    2  A    between atoms: C_2  and  O_3 
REMARK    3  A    between atoms: O_3  and  C_4 
REMARK       I    between atoms: C_14  and  N_16 
REMARK    4  A    between atoms: N_16  and  N_17 
REMARK       I    between atoms: N_17  and  C_18 
REMARK       I    between atoms: C_18  and  N_20 
REMARK    5  A    between atoms: N_20  and  C_21 
REMARK    6  A    between atoms: C_21  and  C_22 
REMARK    7  A    between atoms: C_22  and  N_23 
ROOT
ATOM      1  C   UNL d   1      26.994 -15.168  -4.669  0.00  0.00     0.265 C 
ATOM      2  O   UNL d   1      26.240 -15.585  -5.552  0.00  0.00    -0.269 OA
ATOM      3  N   UNL d   1      26.665 -15.375  -3.336  0.00  0.00    -0.264 N 
ATOM      4  H   UNL d   1      26.668 -14.562  -2.717  0.00  0.00     0.190 HD
ENDROOT
BRANCH   3   5
ATOM      5  N   UNL d   1      25.591 -16.297  -3.110  0.00  0.00    -0.249 N 
ATOM      6  C   UNL d   1      24.959 -16.333  -1.889  0.00  0.00     0.334 C 
ATOM      7  O   UNL d   1      25.263 -15.610  -0.954  0.00  0.00    -0.246 OA
ATOM      8  N   UNL d   1      23.986 -17.316  -1.792  0.00  0.00    -0.340 N 
ATOM      9  H   UNL d   1      23.779 -17.889  -2.598  0.00  0.00     0.164 HD
ATOM     10  H   UNL d   1      25.219 -16.734  -3.949  0.00  0.00     0.192 HD
BRANCH   8  11
ATOM     11  C   UNL d   1      23.318 -17.518  -0.516  0.00  0.00     0.144 C 
BRANCH  11  12
ATOM     12  C   UNL d   1      22.908 -18.957  -0.154  0.00  0.00     0.149 C 
BRANCH  12  13
ATOM     13  N   UNL d   1      21.440 -19.195  -0.196  0.00  0.00    -0.350 N 
ATOM     14  C   UNL d   1      20.639 -19.692   0.833  0.00  0.00     0.108 A 
ATOM     15  C   UNL d   1      19.358 -19.739   0.364  0.00  0.00     0.106 A 
ATOM     16  N   UNL d   1      19.407 -19.275  -0.927  0.00  0.00    -0.361 N 
ATOM     17  C   UNL d   1      20.660 -18.950  -1.266  0.00  0.00     0.182 A 
ATOM     18  H   UNL d   1      18.602 -19.191  -1.545  0.00  0.00     0.166 HD
ENDBRANCH  12  13
ENDBRANCH  11  12
ENDBRANCH   8  11
ENDBRANCH   3   5
BRANCH   1  19
ATOM     19  C   UNL d   1      28.361 -14.457  -4.967  0.00  0.00     0.218 C 
ATOM     20  C   UNL d   1      28.347 -14.416  -6.500  0.00  0.00     0.050 C 
BRANCH  19  21
ATOM     21  O   UNL d   1      29.635 -14.986  -4.538  0.00  0.00    -0.337 OA
BRANCH  21  22
ATOM     22  C   UNL d   1      30.062 -16.223  -4.953  0.00  0.00     0.070 C 
ATOM     23  C   UNL d   1      29.972 -17.380  -4.192  0.00  0.00     0.037 C 
ATOM     24  C   UNL d   1      30.040 -18.642  -4.765  0.00  0.00     0.015 C 
ATOM     25  C   UNL d   1      30.526 -18.783  -6.048  0.00  0.00    -0.026 A 
ATOM     26  C   UNL d   1      30.727 -20.072  -6.551  0.00  0.00     0.012 A 
ATOM     27  C   UNL d   1      30.888 -17.631  -6.783  0.00  0.00    -0.023 A 
ATOM     28  C   UNL d   1      31.363 -20.243  -7.771  0.00  0.00     0.001 A 
ATOM     29  C   UNL d   1      31.768 -19.125  -8.499  0.00  0.00     0.001 A 
ATOM     30  C   UNL d   1      31.521 -17.831  -8.020  0.00  0.00     0.012 A 
ATOM     31  C   UNL d   1      30.601 -16.349  -6.240  0.00  0.00     0.049 C 
ENDBRANCH  21  22
ENDBRANCH  19  21
ENDBRANCH   1  19
TORSDOF 7
ENDMDL
MODEL 9
REMARK VINA RESULT:    -7.455      7.820     10.443
REMARK INTER + INTRA:         -11.370
REMARK INTER:                  -9.543
REMARK INTRA:                  -1.826
REMARK CONF_INDEPENDENT:        2.088
REMARK UNBOUND:                -1.826
REMARK  7 active torsions:
REMARK  status: ('A' for Active; 'I' for Inactive)
REMARK    1  A    between atoms: C_2  and  C_14 
REMARK    2  A    between atoms: C_2  and  O_3 
REMARK    3  A    between atoms: O_3  and  C_4 
REMARK       I    between atoms: C_14  and  N_16 
REMARK    4  A    between atoms: N_16  and  N_17 
REMARK       I    between atoms: N_17  and  C_18 
REMARK       I    between atoms: C_18  and  N_20 
REMARK    5  A    between atoms: N_20  and  C_21 
REMARK    6  A    between atoms: C_21  and  C_22 
REMARK    7  A    between atoms: C_22  and  N_23 
ROOT
ATOM      1  C   UNL d   1      30.830 -14.903   2.029  0.00  0.00     0.265 C 
ATOM      2  O   UNL d   1      32.045 -14.924   2.245  0.00  0.00    -0.269 OA
ATOM      3  N   UNL d   1      29.960 -14.566   3.058  0.00  0.00    -0.264 N 
ATOM      4  H   UNL d   1      29.185 -15.204   3.248  0.00  0.00     0.190 HD
ENDROOT
BRANCH   3   5
ATOM      5  N   UNL d   1      30.583 -14.015   4.226  0.00  0.00    -0.249 N 
ATOM      6  C   UNL d   1      29.882 -13.932   5.406  0.00  0.00     0.334 C 
ATOM      7  O   UNL d   1      28.726 -14.308   5.529  0.00  0.00    -0.246 OA
ATOM      8  N   UNL d   1      30.584 -13.318   6.431  0.00  0.00    -0.340 N 
ATOM      9  H   UNL d   1      31.537 -13.023   6.271  0.00  0.00     0.164 HD
ATOM     10  H   UNL d   1      31.591 -13.905   4.161  0.00  0.00     0.192 HD
BRANCH   8  11
ATOM     11  C   UNL d   1      29.912 -13.082   7.699  0.00  0.00     0.144 C 
BRANCH  11  12
ATOM     12  C   UNL d   1      30.139 -14.110   8.822  0.00  0.00     0.149 C 
BRANCH  12  13
ATOM     13  N   UNL d   1      29.408 -13.802  10.080  0.00  0.00    -0.350 N 
ATOM     14  C   UNL d   1      29.877 -13.058  11.164  0.00  0.00     0.108 A 
ATOM     15  C   UNL d   1      28.877 -13.019  12.092  0.00  0.00     0.106 A 
ATOM     16  N   UNL d   1      27.833 -13.733  11.559  0.00  0.00    -0.361 N 
ATOM     17  C   UNL d   1      28.152 -14.207  10.350  0.00  0.00     0.182 A 
ATOM     18  H   UNL d   1      26.938 -13.885  12.020  0.00  0.00     0.166 HD
ENDBRANCH  12  13
ENDBRANCH  11  12
ENDBRANCH   8  11
ENDBRANCH   3   5
BRANCH   1  19
ATOM     19  C   UNL d   1      30.200 -15.178   0.619  0.00  0.00     0.218 C 
ATOM     20  C   UNL d   1      31.154 -14.398  -0.292  0.00  0.00     0.050 C 
BRANCH  19  21
ATOM     21  O   UNL d   1      28.844 -14.814   0.276  0.00  0.00    -0.337 OA
BRANCH  21  22
ATOM     22  C   UNL d   1      27.899 -15.775   0.017  0.00  0.00     0.070 C 
ATOM     23  C   UNL d   1      28.091 -17.136   0.208  0.00  0.00     0.037 C 
ATOM     24  C   UNL d   1      27.028 -18.020   0.315  0.00  0.00     0.015 C 
ATOM     25  C   UNL d   1      25.769 -17.625  -0.091  0.00  0.00    -0.026 A 
ATOM     26  C   UNL d   1      24.744 -18.574  -0.115  0.00  0.00     0.012 A 
ATOM     27  C   UNL d   1      25.573 -16.303  -0.551  0.00  0.00    -0.023 A 
ATOM     28  C   UNL d   1      23.516 -18.246  -0.670  0.00  0.00     0.001 A 
ATOM     29  C   UNL d   1      23.307 -16.962  -1.170  0.00  0.00     0.001 A 
ATOM     30  C   UNL d   1      24.317 -15.993  -1.099  0.00  0.00     0.012 A 
ATOM     31  C   UNL d   1      26.640 -15.369  -0.443  0.00  0.00     0.049 C 
ENDBRANCH  21  22
ENDBRANCH  19  21
ENDBRANCH   1  19
TORSDOF 7
ENDMDL
