MODEL 1
REMARK VINA RESULT:    -8.204      0.000      0.000
REMARK INTER + INTRA:         -10.169
REMARK INTER:                  -9.696
REMARK INTRA:                  -0.473
REMARK CONF_INDEPENDENT:        1.492
REMARK UNBOUND:                -0.473
REMARK  5 active torsions:
REMARK  status: ('A' for Active; 'I' for Inactive)
REMARK    1  A    between atoms: C_5  and  C_6 
REMARK    2  A    between atoms: C_9  and  N_10 
REMARK       I    between atoms: N_10  and  C_11 
REMARK    3  A    between atoms: C_11  and  C_13 
REMARK    4  A    between atoms: C_16  and  C_17 
REMARK    5  A    between atoms: C_17  and  N_18 
REMARK       I    between atoms: N_18  and  C_19 
REMARK       I    between atoms: C_19  and  N_20 
ROOT
ATOM      1  N   UNL d   1      26.351 -15.302  -3.924  0.00  0.00    -0.301 N 
ATOM      2  C   UNL d   1      26.680 -15.649  -2.622  0.00  0.00     0.257 C 
ATOM      3  O   UNL d   1      27.789 -15.560  -2.101  0.00  0.00    -0.267 OA
ATOM      4  H   UNL d   1      25.407 -15.337  -4.278  0.00  0.00     0.171 HD
ENDROOT
BRANCH   2   5
ATOM      5  C   UNL d   1      25.617 -16.232  -1.759  0.00  0.00     0.032 A 
ATOM      6  C   UNL d   1      25.860 -17.441  -1.084  0.00  0.00     0.017 A 
ATOM      7  C   UNL d   1      24.805 -18.162  -0.504  0.00  0.00     0.010 A 
ATOM      8  C   UNL d   1      23.495 -17.655  -0.519  0.00  0.00    -0.040 A 
ATOM      9  C   UNL d   1      23.276 -16.442  -1.194  0.00  0.00     0.010 A 
ATOM     10  C   UNL d   1      24.320 -15.733  -1.801  0.00  0.00     0.017 A 
BRANCH   8  11
ATOM     11  C   UNL d   1      22.405 -18.413   0.216  0.00  0.00     0.162 C 
BRANCH  11  12
ATOM     12  N   UNL d   1      21.197 -18.662  -0.547  0.00  0.00    -0.339 N 
ATOM     13  C   UNL d   1      20.282 -19.631  -0.387  0.00  0.00     0.314 C 
ATOM     14  N   UNL d   1      20.469 -20.513   0.606  0.00  0.00    -0.352 N 
ATOM     15  O   UNL d   1      19.304 -19.700  -1.131  0.00  0.00    -0.248 OA
ATOM     16  H   UNL d   1      21.247 -20.478   1.241  0.00  0.00     0.160 HD
ATOM     17  H   UNL d   1      19.774 -21.237   0.718  0.00  0.00     0.160 HD
ATOM     18  H   UNL d   1      20.946 -18.054  -1.309  0.00  0.00     0.164 HD
ENDBRANCH  11  12
ENDBRANCH   8  11
ENDBRANCH   2   5
BRANCH   1  19
ATOM     19  C   UNL d   1      27.343 -14.868  -4.777  0.00  0.00     0.173 A 
ATOM     20  S   UNL d   1      27.288 -13.231  -5.269  0.00  0.00    -0.061 SA
ATOM     21  C   UNL d   1      28.707 -13.484  -6.220  0.00  0.00     0.085 A 
ATOM     22  C   UNL d   1      29.125 -14.794  -6.075  0.00  0.00     0.077 A 
ATOM     23  N   UNL d   1      28.325 -15.574  -5.274  0.00  0.00    -0.223 NA
BRANCH  22  24
ATOM     24  C   UNL d   1      30.321 -15.351  -6.692  0.00  0.00    -0.001 A 
ATOM     25  C   UNL d   1      31.022 -14.557  -7.611  0.00  0.00     0.015 A 
ATOM     26  C   UNL d   1      32.171 -15.036  -8.246  0.00  0.00     0.007 A 
ATOM     27  C   UNL d   1      32.639 -16.325  -7.984  0.00  0.00    -0.061 A 
ATOM     28  C   UNL d   1      33.868 -16.841  -8.676  0.00  0.00     0.048 C 
ATOM     29  C   UNL d   1      31.931 -17.130  -7.077  0.00  0.00     0.014 A 
ATOM     30  C   UNL d   1      30.766 -16.661  -6.431  0.00  0.00    -0.049 A 
ATOM     31  C   UNL d   1      30.034 -17.593  -5.502  0.00  0.00     0.049 C 
ENDBRANCH  22  24
ENDBRANCH   1  19
TORSDOF 5
ENDMDL
MODEL 2
REMARK VINA RESULT:    -8.159      0.764      1.508
REMARK INTER + INTRA:         -10.195
REMARK INTER:                  -9.651
REMARK INTRA:                  -0.544
REMARK CONF_INDEPENDENT:        1.492
REMARK UNBOUND:                -0.544
REMARK  5 active torsions:
REMARK  status: ('A' for Active; 'I' for Inactive)
REMARK    1  A    between atoms: C_5  and  C_6 
REMARK    2  A    between atoms: C_9  and  N_10 
REMARK       I    between atoms: N_10  and  C_11 
REMARK    3  A    between atoms: C_11  and  C_13 
REMARK    4  A    between atoms: C_16  and  C_17 
REMARK    5  A    between atoms: C_17  and  N_18 
REMARK       I    between atoms: N_18  and  C_19 
REMARK       I    between atoms: C_19  and  N_20 
ROOT
ATOM      1  N   UNL d   1      26.455 -15.429  -3.855  0.00  0.00    -0.301 N 
ATOM      2  C   UNL d   1      26.855 -15.949  -2.633  0.00  0.00     0.257 C 
ATOM      3  O   UNL d   1      28.012 -16.090  -2.243  0.00  0.00    -0.267 OA
ATOM      4  H   UNL d   1      25.486 -15.277  -4.094  0.00  0.00     0.171 HD
ENDROOT
BRANCH   2   5
ATOM      5  C   UNL d   1      25.805 -16.434  -1.696  0.00  0.00     0.032 A 
ATOM      6  C   UNL d   1      26.117 -17.447  -0.774  0.00  0.00     0.017 A 
ATOM      7  C   UNL d   1      25.100 -18.125  -0.083  0.00  0.00     0.010 A 
ATOM      8  C   UNL d   1      23.754 -17.755  -0.243  0.00  0.00    -0.040 A 
ATOM      9  C   UNL d   1      23.466 -16.736  -1.166  0.00  0.00     0.010 A 
ATOM     10  C   UNL d   1      24.474 -16.076  -1.879  0.00  0.00     0.017 A 
BRANCH   8  11
ATOM     11  C   UNL d   1      22.698 -18.440   0.605  0.00  0.00     0.162 C 
BRANCH  11  12
ATOM     12  N   UNL d   1      21.795 -19.317  -0.114  0.00  0.00    -0.339 N 
ATOM     13  C   UNL d   1      20.827 -18.999  -0.989  0.00  0.00     0.314 C 
ATOM     14  N   UNL d   1      20.637 -17.702  -1.270  0.00  0.00    -0.352 N 
ATOM     15  O   UNL d   1      20.143 -19.876  -1.516  0.00  0.00    -0.248 OA
ATOM     16  H   UNL d   1      21.186 -16.960  -0.871  0.00  0.00     0.160 HD
ATOM     17  H   UNL d   1      19.908 -17.474  -1.931  0.00  0.00     0.160 HD
ATOM     18  H   UNL d   1      21.855 -20.314   0.006  0.00  0.00     0.164 HD
ENDBRANCH  11  12
ENDBRANCH   8  11
ENDBRANCH   2   5
BRANCH   1  19
ATOM     19  C   UNL d   1      27.410 -15.080  -4.784  0.00  0.00     0.173 A 
ATOM     20  S   UNL d   1      27.263 -13.539  -5.513  0.00  0.00    -0.061 SA
ATOM     21  C   UNL d   1      28.679 -13.862  -6.446  0.00  0.00     0.085 A 
ATOM     22  C   UNL d   1      29.167 -15.114  -6.118  0.00  0.00     0.077 A 
ATOM     23  N   UNL d   1      28.421 -15.803  -5.192  0.00  0.00    -0.223 NA
BRANCH  22  24
ATOM     24  C   UNL d   1      30.381 -15.697  -6.670  0.00  0.00    -0.001 A 
ATOM     25  C   UNL d   1      30.406 -17.081  -6.896  0.00  0.00     0.015 A 
ATOM     26  C   UNL d   1      31.544 -17.705  -7.415  0.00  0.00     0.007 A 
ATOM     27  C   UNL d   1      32.688 -16.960  -7.708  0.00  0.00    -0.061 A 
ATOM     28  C   UNL d   1      33.914 -17.635  -8.255  0.00  0.00     0.048 C 
ATOM     29  C   UNL d   1      32.674 -15.576  -7.467  0.00  0.00     0.014 A 
ATOM     30  C   UNL d   1      31.532 -14.933  -6.941  0.00  0.00    -0.049 A 
ATOM     31  C   UNL d   1      31.601 -13.453  -6.670  0.00  0.00     0.049 C 
ENDBRANCH  22  24
ENDBRANCH   1  19
TORSDOF 5
ENDMDL
MODEL 3
REMARK VINA RESULT:    -8.019      3.085     10.288
REMARK INTER + INTRA:         -10.194
REMARK INTER:                  -9.510
REMARK INTRA:                  -0.684
REMARK CONF_INDEPENDENT:        1.492
REMARK UNBOUND:                -0.684
REMARK  5 active torsions:
REMARK  status: ('A' for Active; 'I' for Inactive)
REMARK    1  A    between atoms: C_5  and  C_6 
REMARK    2  A    between atoms: C_9  and  N_10 
REMARK       I    between atoms: N_10  and  C_11 
REMARK    3  A    between atoms: C_11  and  C_13 
REMARK    4  A    between atoms: C_16  and  C_17 
REMARK    5  A    between atoms: C_17  and  N_18 
REMARK       I    between atoms: N_18  and  C_19 
REMARK       I    between atoms: C_19  and  N_20 
ROOT
ATOM      1  N   UNL d   1      28.530 -14.950  -3.606  0.00  0.00    -0.301 N 
ATOM      2  C   UNL d   1      28.148 -15.269  -4.901  0.00  0.00     0.257 C 
ATOM      3  O   UNL d   1      27.017 -15.575  -5.274  0.00  0.00    -0.267 OA
ATOM      4  H   UNL d   1      29.462 -14.644  -3.371  0.00  0.00     0.171 HD
ENDROOT
BRANCH   2   5
ATOM      5  C   UNL d   1      29.195 -15.296  -5.958  0.00  0.00     0.032 A 
ATOM      6  C   UNL d   1      29.948 -16.466  -6.154  0.00  0.00     0.017 A 
ATOM      7  C   UNL d   1      31.120 -16.442  -6.927  0.00  0.00     0.010 A 
ATOM      8  C   UNL d   1      31.525 -15.267  -7.581  0.00  0.00    -0.040 A 
ATOM      9  C   UNL d   1      30.754 -14.111  -7.375  0.00  0.00     0.010 A 
ATOM     10  C   UNL d   1      29.600 -14.121  -6.582  0.00  0.00     0.017 A 
BRANCH   8  11
ATOM     11  C   UNL d   1      32.735 -15.314  -8.495  0.00  0.00     0.162 C 
BRANCH  11  12
ATOM     12  N   UNL d   1      33.433 -14.055  -8.669  0.00  0.00    -0.339 N 
ATOM     13  C   UNL d   1      33.014 -12.935  -9.280  0.00  0.00     0.314 C 
ATOM     14  N   UNL d   1      31.784 -12.934  -9.815  0.00  0.00    -0.352 N 
ATOM     15  O   UNL d   1      33.740 -11.943  -9.340  0.00  0.00    -0.248 OA
ATOM     16  H   UNL d   1      31.159 -13.720  -9.771  0.00  0.00     0.160 HD
ATOM     17  H   UNL d   1      31.478 -12.086 -10.270  0.00  0.00     0.160 HD
ATOM     18  H   UNL d   1      34.359 -13.933  -8.296  0.00  0.00     0.164 HD
ENDBRANCH  11  12
ENDBRANCH   8  11
ENDBRANCH   2   5
BRANCH   1  19
ATOM     19  C   UNL d   1      27.602 -15.030  -2.590  0.00  0.00     0.173 A 
ATOM     20  S   UNL d   1      27.609 -13.776  -1.428  0.00  0.00    -0.061 SA
ATOM     21  C   UNL d   1      26.307 -14.553  -0.603  0.00  0.00     0.085 A 
ATOM     22  C   UNL d   1      25.954 -15.702  -1.287  0.00  0.00     0.077 A 
ATOM     23  N   UNL d   1      26.716 -15.972  -2.399  0.00  0.00    -0.223 NA
BRANCH  22  24
ATOM     24  C   UNL d   1      24.859 -16.584  -0.910  0.00  0.00    -0.001 A 
ATOM     25  C   UNL d   1      23.552 -16.193  -1.239  0.00  0.00     0.015 A 
ATOM     26  C   UNL d   1      22.455 -16.989  -0.895  0.00  0.00     0.007 A 
ATOM     27  C   UNL d   1      22.640 -18.189  -0.205  0.00  0.00    -0.061 A 
ATOM     28  C   UNL d   1      21.459 -19.037   0.173  0.00  0.00     0.048 C 
ATOM     29  C   UNL d   1      23.945 -18.575   0.141  0.00  0.00     0.014 A 
ATOM     30  C   UNL d   1      25.062 -17.780  -0.196  0.00  0.00    -0.049 A 
ATOM     31  C   UNL d   1      26.429 -18.236   0.243  0.00  0.00     0.049 C 
ENDBRANCH  22  24
ENDBRANCH   1  19
TORSDOF 5
ENDMDL
MODEL 4
REMARK VINA RESULT:    -7.842      6.776      8.124
REMARK INTER + INTRA:         -10.107
REMARK INTER:                  -9.333
REMARK INTRA:                  -0.773
REMARK CONF_INDEPENDENT:        1.492
REMARK UNBOUND:                -0.773
REMARK  5 active torsions:
REMARK  status: ('A' for Active; 'I' for Inactive)
REMARK    1  A    between atoms: C_5  and  C_6 
REMARK    2  A    between atoms: C_9  and  N_10 
REMARK       I    between atoms: N_10  and  C_11 
REMARK    3  A    between atoms: C_11  and  C_13 
REMARK    4  A    between atoms: C_16  and  C_17 
REMARK    5  A    between atoms: C_17  and  N_18 
REMARK       I    between atoms: N_18  and  C_19 
REMARK       I    between atoms: C_19  and  N_20 
ROOT
ATOM      1  N   UNL d   1      27.921 -15.571   1.517  0.00  0.00    -0.301 N 
ATOM      2  C   UNL d   1      27.533 -14.411   2.171  0.00  0.00     0.257 C 
ATOM      3  O   UNL d   1      26.738 -13.570   1.757  0.00  0.00    -0.267 OA
ATOM      4  H   UNL d   1      28.530 -16.257   1.936  0.00  0.00     0.171 HD
ENDROOT
BRANCH   2   5
ATOM      5  C   UNL d   1      28.157 -14.102   3.486  0.00  0.00     0.032 A 
ATOM      6  C   UNL d   1      29.500 -14.450   3.712  0.00  0.00     0.017 A 
ATOM      7  C   UNL d   1      30.032 -14.442   5.011  0.00  0.00     0.010 A 
ATOM      8  C   UNL d   1      29.258 -14.014   6.103  0.00  0.00    -0.040 A 
ATOM      9  C   UNL d   1      27.920 -13.666   5.852  0.00  0.00     0.010 A 
ATOM     10  C   UNL d   1      27.374 -13.700   4.563  0.00  0.00     0.017 A 
BRANCH   8  11
ATOM     11  C   UNL d   1      29.907 -13.915   7.471  0.00  0.00     0.162 C 
BRANCH  11  12
ATOM     12  N   UNL d   1      29.047 -14.241   8.592  0.00  0.00    -0.339 N 
ATOM     13  C   UNL d   1      28.450 -13.414   9.466  0.00  0.00     0.314 C 
ATOM     14  N   UNL d   1      28.646 -12.097   9.318  0.00  0.00    -0.352 N 
ATOM     15  O   UNL d   1      27.744 -13.861  10.371  0.00  0.00    -0.248 OA
ATOM     16  H   UNL d   1      29.203 -11.697   8.584  0.00  0.00     0.160 HD
ATOM     17  H   UNL d   1      28.191 -11.484   9.980  0.00  0.00     0.160 HD
ATOM     18  H   UNL d   1      28.817 -15.200   8.792  0.00  0.00     0.164 HD
ENDBRANCH  11  12
ENDBRANCH   8  11
ENDBRANCH   2   5
BRANCH   1  19
ATOM     19  C   UNL d   1      27.445 -15.821   0.248  0.00  0.00     0.173 A 
ATOM     20  S   UNL d   1      26.117 -16.890   0.110  0.00  0.00    -0.061 SA
ATOM     21  C   UNL d   1      26.152 -16.689  -1.604  0.00  0.00     0.085 A 
ATOM     22  C   UNL d   1      27.163 -15.807  -1.940  0.00  0.00     0.077 A 
ATOM     23  N   UNL d   1      27.904 -15.343  -0.879  0.00  0.00    -0.223 NA
BRANCH  22  24
ATOM     24  C   UNL d   1      27.452 -15.361  -3.295  0.00  0.00    -0.001 A 
ATOM     25  C   UNL d   1      28.711 -15.663  -3.836  0.00  0.00     0.015 A 
ATOM     26  C   UNL d   1      29.055 -15.254  -5.128  0.00  0.00     0.007 A 
ATOM     27  C   UNL d   1      28.153 -14.522  -5.903  0.00  0.00    -0.061 A 
ATOM     28  C   UNL d   1      28.530 -14.075  -7.286  0.00  0.00     0.048 C 
ATOM     29  C   UNL d   1      26.899 -14.202  -5.358  0.00  0.00     0.014 A 
ATOM     30  C   UNL d   1      26.538 -14.606  -4.054  0.00  0.00    -0.049 A 
ATOM     31  C   UNL d   1      25.192 -14.193  -3.519  0.00  0.00     0.049 C 
ENDBRANCH  22  24
ENDBRANCH   1  19
TORSDOF 5
ENDMDL
MODEL 5
REMARK VINA RESULT:    -7.767      6.132      8.771
REMARK INTER + INTRA:          -9.969
REMARK INTER:                  -9.258
REMARK INTRA:                  -0.711
REMARK CONF_INDEPENDENT:        1.492
REMARK UNBOUND:                -0.711
REMARK  5 active torsions:
REMARK  status: ('A' for Active; 'I' for Inactive)
REMARK    1  A    between atoms: C_5  and  C_6 
REMARK    2  A    between atoms: C_9  and  N_10 
REMARK       I    between atoms: N_10  and  C_11 
REMARK    3  A    between atoms: C_11  and  C_13 
REMARK    4  A    between atoms: C_16  and  C_17 
REMARK    5  A    between atoms: C_17  and  N_18 
REMARK       I    between atoms: N_18  and  C_19 
REMARK       I    between atoms: C_19  and  N_20 
ROOT
ATOM      1  N   UNL d   1      27.372 -15.811   1.350  0.00  0.00    -0.301 N 
ATOM      2  C   UNL d   1      26.571 -15.424   0.286  0.00  0.00     0.257 C 
ATOM      3  O   UNL d   1      26.558 -14.320  -0.254  0.00  0.00    -0.267 OA
ATOM      4  H   UNL d   1      27.384 -16.753   1.710  0.00  0.00     0.171 HD
ENDROOT
BRANCH   2   5
ATOM      5  C   UNL d   1      25.587 -16.404  -0.249  0.00  0.00     0.032 A 
ATOM      6  C   UNL d   1      24.492 -15.944  -1.000  0.00  0.00     0.017 A 
ATOM      7  C   UNL d   1      23.404 -16.789  -1.270  0.00  0.00     0.010 A 
ATOM      8  C   UNL d   1      23.420 -18.134  -0.862  0.00  0.00    -0.040 A 
ATOM      9  C   UNL d   1      24.527 -18.573  -0.118  0.00  0.00     0.010 A 
ATOM     10  C   UNL d   1      25.602 -17.726   0.181  0.00  0.00     0.017 A 
BRANCH   8  11
ATOM     11  C   UNL d   1      22.274 -19.039  -1.272  0.00  0.00     0.162 C 
BRANCH  11  12
ATOM     12  N   UNL d   1      21.432 -19.507  -0.187  0.00  0.00    -0.339 N 
ATOM     13  C   UNL d   1      20.099 -19.668  -0.162  0.00  0.00     0.314 C 
ATOM     14  N   UNL d   1      19.410 -19.370  -1.273  0.00  0.00    -0.352 N 
ATOM     15  O   UNL d   1      19.535 -20.079   0.852  0.00  0.00    -0.248 OA
ATOM     16  H   UNL d   1      19.838 -19.046  -2.122  0.00  0.00     0.160 HD
ATOM     17  H   UNL d   1      18.408 -19.497  -1.243  0.00  0.00     0.160 HD
ATOM     18  H   UNL d   1      21.841 -19.774   0.692  0.00  0.00     0.164 HD
ENDBRANCH  11  12
ENDBRANCH   8  11
ENDBRANCH   2   5
BRANCH   1  19
ATOM     19  C   UNL d   1      28.208 -14.886   1.936  0.00  0.00     0.173 A 
ATOM     20  S   UNL d   1      29.584 -14.402   1.043  0.00  0.00    -0.061 SA
ATOM     21  C   UNL d   1      30.044 -13.362   2.343  0.00  0.00     0.085 A 
ATOM     22  C   UNL d   1      29.102 -13.450   3.352  0.00  0.00     0.077 A 
ATOM     23  N   UNL d   1      28.080 -14.338   3.116  0.00  0.00    -0.223 NA
BRANCH  22  24
ATOM     24  C   UNL d   1      29.136 -12.672   4.582  0.00  0.00    -0.001 A 
ATOM     25  C   UNL d   1      29.457 -11.309   4.494  0.00  0.00     0.015 A 
ATOM     26  C   UNL d   1      29.518 -10.509   5.638  0.00  0.00     0.007 A 
ATOM     27  C   UNL d   1      29.271 -11.057   6.899  0.00  0.00    -0.061 A 
ATOM     28  C   UNL d   1      29.347 -10.196   8.128  0.00  0.00     0.048 C 
ATOM     29  C   UNL d   1      28.966 -12.424   6.993  0.00  0.00     0.014 A 
ATOM     30  C   UNL d   1      28.904 -13.245   5.847  0.00  0.00    -0.049 A 
ATOM     31  C   UNL d   1      28.612 -14.712   6.026  0.00  0.00     0.049 C 
ENDBRANCH  22  24
ENDBRANCH   1  19
TORSDOF 5
ENDMDL
MODEL 6
REMARK VINA RESULT:    -7.659      7.793     10.187
REMARK INTER + INTRA:          -9.958
REMARK INTER:                  -9.150
REMARK INTRA:                  -0.808
REMARK CONF_INDEPENDENT:        1.492
REMARK UNBOUND:                -0.808
REMARK  5 active torsions:
REMARK  status: ('A' for Active; 'I' for Inactive)
REMARK    1  A    between atoms: C_5  and  C_6 
REMARK    2  A    between atoms: C_9  and  N_10 
REMARK       I    between atoms: N_10  and  C_11 
REMARK    3  A    between atoms: C_11  and  C_13 
REMARK    4  A    between atoms: C_16  and  C_17 
REMARK    5  A    between atoms: C_17  and  N_18 
REMARK       I    between atoms: N_18  and  C_19 
REMARK       I    between atoms: C_19  and  N_20 
ROOT
ATOM      1  N   UNL d   1      28.750 -13.952   2.599  0.00  0.00    -0.301 N 
ATOM      2  C   UNL d   1      28.436 -14.433   3.861  0.00  0.00     0.257 C 
ATOM      3  O   UNL d   1      27.782 -15.442   4.116  0.00  0.00    -0.267 OA
ATOM      4  H   UNL d   1      29.347 -13.152   2.452  0.00  0.00     0.171 HD
ENDROOT
BRANCH   2   5
ATOM      5  C   UNL d   1      28.882 -13.649   5.045  0.00  0.00     0.032 A 
ATOM      6  C   UNL d   1      29.918 -14.148   5.853  0.00  0.00     0.017 A 
ATOM      7  C   UNL d   1      30.167 -13.595   7.120  0.00  0.00     0.010 A 
ATOM      8  C   UNL d   1      29.438 -12.484   7.575  0.00  0.00    -0.040 A 
ATOM      9  C   UNL d   1      28.411 -11.998   6.747  0.00  0.00     0.010 A 
ATOM     10  C   UNL d   1      28.138 -12.564   5.496  0.00  0.00     0.017 A 
BRANCH   8  11
ATOM     11  C   UNL d   1      29.815 -11.850   8.900  0.00  0.00     0.162 C 
BRANCH  11  12
ATOM     12  N   UNL d   1      28.817 -11.955   9.947  0.00  0.00    -0.339 N 
ATOM     13  C   UNL d   1      28.222 -13.054  10.439  0.00  0.00     0.314 C 
ATOM     14  N   UNL d   1      28.571 -14.241   9.923  0.00  0.00    -0.352 N 
ATOM     15  O   UNL d   1      27.385 -12.966  11.338  0.00  0.00    -0.248 OA
ATOM     16  H   UNL d   1      29.260 -14.352   9.200  0.00  0.00     0.160 HD
ATOM     17  H   UNL d   1      28.119 -15.061  10.301  0.00  0.00     0.160 HD
ATOM     18  H   UNL d   1      28.488 -11.129  10.418  0.00  0.00     0.164 HD
ENDBRANCH  11  12
ENDBRANCH   8  11
ENDBRANCH   2   5
BRANCH   1  19
ATOM     19  C   UNL d   1      28.251 -14.597   1.488  0.00  0.00     0.173 A 
ATOM     20  S   UNL d   1      29.210 -14.566   0.072  0.00  0.00    -0.061 SA
ATOM     21  C   UNL d   1      27.999 -15.482  -0.750  0.00  0.00     0.085 A 
ATOM     22  C   UNL d   1      26.963 -15.758   0.124  0.00  0.00     0.077 A 
ATOM     23  N   UNL d   1      27.110 -15.227   1.383  0.00  0.00    -0.223 NA
BRANCH  22  24
ATOM     24  C   UNL d   1      25.793 -16.556  -0.210  0.00  0.00    -0.001 A 
ATOM     25  C   UNL d   1      24.747 -15.937  -0.910  0.00  0.00     0.015 A 
ATOM     26  C   UNL d   1      23.591 -16.645  -1.252  0.00  0.00     0.007 A 
ATOM     27  C   UNL d   1      23.450 -17.986  -0.889  0.00  0.00    -0.061 A 
ATOM     28  C   UNL d   1      22.202 -18.741  -1.248  0.00  0.00     0.048 C 
ATOM     29  C   UNL d   1      24.487 -18.605  -0.173  0.00  0.00     0.014 A 
ATOM     30  C   UNL d   1      25.659 -17.902   0.181  0.00  0.00    -0.049 A 
ATOM     31  C   UNL d   1      26.712 -18.618   0.985  0.00  0.00     0.049 C 
ENDBRANCH  22  24
ENDBRANCH   1  19
TORSDOF 5
ENDMDL
MODEL 7
REMARK VINA RESULT:    -7.545      2.375      3.325
REMARK INTER + INTRA:          -9.785
REMARK INTER:                  -9.037
REMARK INTRA:                  -0.749
REMARK CONF_INDEPENDENT:        1.492
REMARK UNBOUND:                -0.749
REMARK  5 active torsions:
REMARK  status: ('A' for Active; 'I' for Inactive)
REMARK    1  A    between atoms: C_5  and  C_6 
REMARK    2  A    between atoms: C_9  and  N_10 
REMARK       I    between atoms: N_10  and  C_11 
REMARK    3  A    between atoms: C_11  and  C_13 
REMARK    4  A    between atoms: C_16  and  C_17 
REMARK    5  A    between atoms: C_17  and  N_18 
REMARK       I    between atoms: N_18  and  C_19 
REMARK       I    between atoms: C_19  and  N_20 
ROOT
ATOM      1  N   UNL d   1      25.020 -15.201  -2.197  0.00  0.00    -0.301 N 
ATOM      2  C   UNL d   1      25.303 -16.330  -1.443  0.00  0.00     0.257 C 
ATOM      3  O   UNL d   1      26.419 -16.767  -1.172  0.00  0.00    -0.267 OA
ATOM      4  H   UNL d   1      24.082 -14.854  -2.332  0.00  0.00     0.171 HD
ENDROOT
BRANCH   2   5
ATOM      5  C   UNL d   1      24.163 -17.140  -0.932  0.00  0.00     0.032 A 
ATOM      6  C   UNL d   1      24.336 -18.518  -0.718  0.00  0.00     0.017 A 
ATOM      7  C   UNL d   1      23.228 -19.357  -0.520  0.00  0.00     0.010 A 
ATOM      8  C   UNL d   1      21.928 -18.827  -0.456  0.00  0.00    -0.040 A 
ATOM      9  C   UNL d   1      21.780 -17.446  -0.667  0.00  0.00     0.010 A 
ATOM     10  C   UNL d   1      22.879 -16.609  -0.895  0.00  0.00     0.017 A 
BRANCH   8  11
ATOM     11  C   UNL d   1      20.772 -19.753  -0.130  0.00  0.00     0.162 C 
BRANCH  11  12
ATOM     12  N   UNL d   1      20.489 -19.921   1.282  0.00  0.00    -0.339 N 
ATOM     13  C   UNL d   1      19.400 -20.444   1.869  0.00  0.00     0.314 C 
ATOM     14  N   UNL d   1      18.414 -20.888   1.078  0.00  0.00    -0.352 N 
ATOM     15  O   UNL d   1      19.319 -20.512   3.096  0.00  0.00    -0.248 OA
ATOM     16  H   UNL d   1      18.452 -20.862   0.074  0.00  0.00     0.160 HD
ATOM     17  H   UNL d   1      17.600 -21.281   1.529  0.00  0.00     0.160 HD
ATOM     18  H   UNL d   1      21.165 -19.636   1.972  0.00  0.00     0.164 HD
ENDBRANCH  11  12
ENDBRANCH   8  11
ENDBRANCH   2   5
BRANCH   1  19
ATOM     19  C   UNL d   1      26.056 -14.500  -2.776  0.00  0.00     0.173 A 
ATOM     20  S   UNL d   1      27.226 -13.828  -1.725  0.00  0.00    -0.061 SA
ATOM     21  C   UNL d   1      28.062 -13.185  -3.092  0.00  0.00     0.085 A 
ATOM     22  C   UNL d   1      27.395 -13.548  -4.248  0.00  0.00     0.077 A 
ATOM     23  N   UNL d   1      26.243 -14.273  -4.050  0.00  0.00    -0.223 NA
BRANCH  22  24
ATOM     24  C   UNL d   1      27.842 -13.226  -5.595  0.00  0.00    -0.001 A 
ATOM     25  C   UNL d   1      27.383 -12.035  -6.177  0.00  0.00     0.015 A 
ATOM     26  C   UNL d   1      27.767 -11.673  -7.472  0.00  0.00     0.007 A 
ATOM     27  C   UNL d   1      28.609 -12.499  -8.218  0.00  0.00    -0.061 A 
ATOM     28  C   UNL d   1      29.012 -12.112  -9.612  0.00  0.00     0.048 C 
ATOM     29  C   UNL d   1      29.058 -13.700  -7.645  0.00  0.00     0.014 A 
ATOM     30  C   UNL d   1      28.677 -14.081  -6.340  0.00  0.00    -0.049 A 
ATOM     31  C   UNL d   1      29.162 -15.402  -5.805  0.00  0.00     0.049 C 
ENDBRANCH  22  24
ENDBRANCH   1  19
TORSDOF 5
ENDMDL
MODEL 8
REMARK VINA RESULT:    -7.484      7.216      8.748
REMARK INTER + INTRA:          -9.717
REMARK INTER:                  -8.976
REMARK INTRA:                  -0.741
REMARK CONF_INDEPENDENT:        1.492
REMARK UNBOUND:                -0.741
REMARK  5 active torsions:
REMARK  status: ('A' for Active; 'I' for Inactive)
REMARK    1  A    between atoms: C_5  and  C_6 
REMARK    2  A    between atoms: C_9  and  N_10 
REMARK       I    between atoms: N_10  and  C_11 
REMARK    3  A    between atoms: C_11  and  C_13 
REMARK    4  A    between atoms: C_16  and  C_17 
REMARK    5  A    between atoms: C_17  and  N_18 
REMARK       I    between atoms: N_18  and  C_19 
REMARK       I    between atoms: C_19  and  N_20 
ROOT
ATOM      1  N   UNL d   1      27.934 -14.956   1.803  0.00  0.00    -0.301 N 
ATOM      2  C   UNL d   1      27.462 -13.945   2.628  0.00  0.00     0.257 C 
ATOM      3  O   UNL d   1      26.537 -13.174   2.382  0.00  0.00    -0.267 OA
ATOM      4  H   UNL d   1      28.656 -15.600   2.087  0.00  0.00     0.171 HD
ENDROOT
BRANCH   2   5
ATOM      5  C   UNL d   1      28.151 -13.717   3.927  0.00  0.00     0.032 A 
ATOM      6  C   UNL d   1      28.573 -14.820   4.688  0.00  0.00     0.017 A 
ATOM      7  C   UNL d   1      28.958 -14.660   6.029  0.00  0.00     0.010 A 
ATOM      8  C   UNL d   1      29.003 -13.384   6.616  0.00  0.00    -0.040 A 
ATOM      9  C   UNL d   1      28.582 -12.295   5.834  0.00  0.00     0.010 A 
ATOM     10  C   UNL d   1      28.169 -12.453   4.505  0.00  0.00     0.017 A 
BRANCH   8  11
ATOM     11  C   UNL d   1      29.530 -13.245   8.031  0.00  0.00     0.162 C 
BRANCH  11  12
ATOM     12  N   UNL d   1      28.801 -13.985   9.043  0.00  0.00    -0.339 N 
ATOM     13  C   UNL d   1      28.155 -13.524  10.126  0.00  0.00     0.314 C 
ATOM     14  N   UNL d   1      28.154 -12.201  10.340  0.00  0.00    -0.352 N 
ATOM     15  O   UNL d   1      27.581 -14.298  10.891  0.00  0.00    -0.248 OA
ATOM     16  H   UNL d   1      28.600 -11.539   9.728  0.00  0.00     0.160 HD
ATOM     17  H   UNL d   1      27.664 -11.864  11.156  0.00  0.00     0.160 HD
ATOM     18  H   UNL d   1      28.722 -14.986   8.978  0.00  0.00     0.164 HD
ENDBRANCH  11  12
ENDBRANCH   8  11
ENDBRANCH   2   5
BRANCH   1  19
ATOM     19  C   UNL d   1      27.387 -15.113   0.548  0.00  0.00     0.173 A 
ATOM     20  S   UNL d   1      26.621 -16.605   0.212  0.00  0.00    -0.061 SA
ATOM     21  C   UNL d   1      26.263 -16.045  -1.382  0.00  0.00     0.085 A 
ATOM     22  C   UNL d   1      26.740 -14.755  -1.530  0.00  0.00     0.077 A 
ATOM     23  N   UNL d   1      27.397 -14.249  -0.434  0.00  0.00    -0.223 NA
BRANCH  22  24
ATOM     24  C   UNL d   1      26.571 -13.946  -2.729  0.00  0.00    -0.001 A 
ATOM     25  C   UNL d   1      25.757 -12.806  -2.648  0.00  0.00     0.015 A 
ATOM     26  C   UNL d   1      25.546 -11.993  -3.765  0.00  0.00     0.007 A 
ATOM     27  C   UNL d   1      26.133 -12.308  -4.992  0.00  0.00    -0.061 A 
ATOM     28  C   UNL d   1      25.895 -11.438  -6.193  0.00  0.00     0.048 C 
ATOM     29  C   UNL d   1      26.934 -13.458  -5.082  0.00  0.00     0.014 A 
ATOM     30  C   UNL d   1      27.155 -14.290  -3.963  0.00  0.00    -0.049 A 
ATOM     31  C   UNL d   1      27.991 -15.530  -4.141  0.00  0.00     0.049 C 
ENDBRANCH  22  24
ENDBRANCH   1  19
TORSDOF 5
ENDMDL
MODEL 9
REMARK VINA RESULT:    -7.297      1.656      2.257
REMARK INTER + INTRA:          -9.575
REMARK INTER:                  -8.789
REMARK INTRA:                  -0.786
REMARK CONF_INDEPENDENT:        1.492
REMARK UNBOUND:                -0.786
REMARK  5 active torsions:
REMARK  status: ('A' for Active; 'I' for Inactive)
REMARK    1  A    between atoms: C_5  and  C_6 
REMARK    2  A    between atoms: C_9  and  N_10 
REMARK       I    between atoms: N_10  and  C_11 
REMARK    3  A    between atoms: C_11  and  C_13 
REMARK    4  A    between atoms: C_16  and  C_17 
REMARK    5  A    between atoms: C_17  and  N_18 
REMARK       I    between atoms: N_18  and  C_19 
REMARK       I    between atoms: C_19  and  N_20 
ROOT
ATOM      1  N   UNL d   1      25.225 -15.487  -2.307  0.00  0.00    -0.301 N 
ATOM      2  C   UNL d   1      25.389 -16.652  -1.572  0.00  0.00     0.257 C 
ATOM      3  O   UNL d   1      26.446 -17.246  -1.371  0.00  0.00    -0.267 OA
ATOM      4  H   UNL d   1      24.340 -15.009  -2.384  0.00  0.00     0.171 HD
ENDROOT
BRANCH   2   5
ATOM      5  C   UNL d   1      24.178 -17.297  -0.996  0.00  0.00     0.032 A 
ATOM      6  C   UNL d   1      24.209 -18.667  -0.681  0.00  0.00     0.017 A 
ATOM      7  C   UNL d   1      23.021 -19.367  -0.413  0.00  0.00     0.010 A 
ATOM      8  C   UNL d   1      21.786 -18.699  -0.381  0.00  0.00    -0.040 A 
ATOM      9  C   UNL d   1      21.780 -17.329  -0.693  0.00  0.00     0.010 A 
ATOM     10  C   UNL d   1      22.957 -16.632  -0.990  0.00  0.00     0.017 A 
BRANCH   8  11
ATOM     11  C   UNL d   1      20.544 -19.471   0.021  0.00  0.00     0.162 C 
BRANCH  11  12
ATOM     12  N   UNL d   1      20.458 -19.825   1.425  0.00  0.00    -0.339 N 
ATOM     13  C   UNL d   1      19.448 -20.410   2.089  0.00  0.00     0.314 C 
ATOM     14  N   UNL d   1      18.346 -20.733   1.396  0.00  0.00    -0.352 N 
ATOM     15  O   UNL d   1      19.539 -20.642   3.294  0.00  0.00    -0.248 OA
ATOM     16  H   UNL d   1      18.243 -20.572   0.410  0.00  0.00     0.160 HD
ATOM     17  H   UNL d   1      17.593 -21.175   1.905  0.00  0.00     0.160 HD
ATOM     18  H   UNL d   1      21.233 -19.643   2.041  0.00  0.00     0.164 HD
ENDBRANCH  11  12
ENDBRANCH   8  11
ENDBRANCH   2   5
BRANCH   1  19
ATOM     19  C   UNL d   1      26.314 -14.934  -2.946  0.00  0.00     0.173 A 
ATOM     20  S   UNL d   1      26.657 -13.291  -2.620  0.00  0.00    -0.061 SA
ATOM     21  C   UNL d   1      28.003 -13.374  -3.699  0.00  0.00     0.085 A 
ATOM     22  C   UNL d   1      28.098 -14.654  -4.212  0.00  0.00     0.077 A 
ATOM     23  N   UNL d   1      27.117 -15.521  -3.794  0.00  0.00    -0.223 NA
BRANCH  22  24
ATOM     24  C   UNL d   1      29.147 -15.105  -5.116  0.00  0.00    -0.001 A 
ATOM     25  C   UNL d   1      29.302 -14.431  -6.337  0.00  0.00     0.015 A 
ATOM     26  C   UNL d   1      30.282 -14.821  -7.254  0.00  0.00     0.007 A 
ATOM     27  C   UNL d   1      31.122 -15.902  -6.976  0.00  0.00    -0.061 A 
ATOM     28  C   UNL d   1      32.167 -16.325  -7.968  0.00  0.00     0.048 C 
ATOM     29  C   UNL d   1      30.959 -16.589  -5.763  0.00  0.00     0.014 A 
ATOM     30  C   UNL d   1      29.971 -16.209  -4.828  0.00  0.00    -0.049 A 
ATOM     31  C   UNL d   1      29.826 -17.018  -3.566  0.00  0.00     0.049 C 
ENDBRANCH  22  24
ENDBRANCH   1  19
TORSDOF 5
ENDMDL
