MODEL 1
REMARK VINA RESULT:    -7.786      0.000      0.000
REMARK INTER + INTRA:         -12.777
REMARK INTER:                 -11.366
REMARK INTRA:                  -1.412
REMARK CONF_INDEPENDENT:        3.580
REMARK UNBOUND:                -1.412
REMARK  12 active torsions:
REMARK  status: ('A' for Active; 'I' for Inactive)
REMARK    1  A    between atoms: C_2  and  C_3 
REMARK    2  A    between atoms: C_3  and  C_4 
REMARK    3  A    between atoms: C_4  and  C_5 
REMARK    4  A    between atoms: C_6  and  C_5 
REMARK    5  A    between atoms: C_6  and  N_8 
REMARK       I    between atoms: N_8  and  C_9 
REMARK       I    between atoms: C_9  and  N_11 
REMARK    6  A    between atoms: N_11  and  C_12 
REMARK    7  A    between atoms: C_12  and  C_13 
REMARK    8  A    between atoms: C_13  and  O_14 
REMARK    9  A    between atoms: C_13  and  C_15 
REMARK   10  A    between atoms: C_15  and  O_16 
REMARK   11  A    between atoms: O_16  and  C_17 
REMARK   12  A    between atoms: C_20  and  N_21 
ROOT
ATOM      1  C   UNL d   1      28.021 -15.555  -0.270  0.00  0.00     0.158 C 
ENDROOT
BRANCH   1   2
ATOM      2  N   UNL d   1      28.628 -15.468   1.060  0.00  0.00    -0.341 N 
ATOM      3  C   UNL d   1      28.099 -14.622   2.000  0.00  0.00     0.316 C 
ATOM      4  N   UNL d   1      28.750 -14.625   3.210  0.00  0.00    -0.339 N 
ATOM      5  O   UNL d   1      27.137 -13.892   1.751  0.00  0.00    -0.247 OA
ATOM      6  H   UNL d   1      29.526 -15.252   3.359  0.00  0.00     0.164 HD
ATOM      7  H   UNL d   1      29.323 -16.152   1.321  0.00  0.00     0.164 HD
BRANCH   4   8
ATOM      8  C   UNL d   1      28.348 -13.716   4.295  0.00  0.00     0.082 C 
ATOM      9  C   UNL d   1      26.965 -14.074   4.871  0.00  0.00     0.032 C 
BRANCH   8  10
ATOM     10  C   UNL d   1      29.431 -13.666   5.402  0.00  0.00     0.025 C 
BRANCH  10  11
ATOM     11  C   UNL d   1      28.943 -14.299   6.696  0.00  0.00     0.002 C 
BRANCH  11  12
ATOM     12  C   UNL d   1      29.427 -13.588   7.933  0.00  0.00    -0.000 C 
BRANCH  12  13
ATOM     13  C   UNL d   1      28.725 -12.236   7.999  0.00  0.00    -0.005 C 
ATOM     14  C   UNL d   1      29.401 -11.362   9.026  0.00  0.00     0.005 C 
ENDBRANCH  12  13
ENDBRANCH  11  12
ENDBRANCH  10  11
ENDBRANCH   8  10
ENDBRANCH   4   8
ENDBRANCH   1   2
BRANCH   1  15
ATOM     15  C   UNL d   1      28.007 -16.977  -0.863  0.00  0.00     0.160 C 
BRANCH  15  16
ATOM     16  O   UNL d   1      29.192 -17.665  -0.434  0.00  0.00    -0.392 OA
ATOM     17  H   UNL d   1      28.945 -18.249   0.303  0.00  0.00     0.210 HD
ENDBRANCH  15  16
BRANCH  15  18
ATOM     18  C   UNL d   1      26.736 -17.757  -0.439  0.00  0.00     0.209 C 
BRANCH  18  19
ATOM     19  O   UNL d   1      25.702 -16.830  -0.071  0.00  0.00    -0.349 OA
BRANCH  19  20
ATOM     20  C   UNL d   1      24.409 -17.224  -0.295  0.00  0.00     0.069 A 
ATOM     21  C   UNL d   1      24.188 -18.605  -0.365  0.00  0.00     0.039 A 
ATOM     22  C   UNL d   1      22.931 -19.115  -0.717  0.00  0.00     0.039 A 
ATOM     23  C   UNL d   1      21.870 -18.230  -0.936  0.00  0.00     0.103 A 
ATOM     24  C   UNL d   1      22.082 -16.848  -0.880  0.00  0.00     0.039 A 
ATOM     25  C   UNL d   1      23.355 -16.349  -0.567  0.00  0.00     0.039 A 
BRANCH  23  26
ATOM     26  N   UNL d   1      20.516 -18.751  -1.172  0.00  0.00    -0.116 N 
ATOM     27  O   UNL d   1      19.557 -18.017  -0.895  0.00  0.00    -0.532 OA
ATOM     28  O   UNL d   1      20.413 -19.886  -1.661  0.00  0.00    -0.532 OA
ENDBRANCH  23  26
ENDBRANCH  19  20
ENDBRANCH  18  19
ENDBRANCH  15  18
ENDBRANCH   1  15
TORSDOF 12
ENDMDL
MODEL 2
REMARK VINA RESULT:    -7.178      0.892      1.605
REMARK INTER + INTRA:         -12.734
REMARK INTER:                 -10.757
REMARK INTRA:                  -1.977
REMARK CONF_INDEPENDENT:        3.580
REMARK UNBOUND:                -1.977
REMARK  12 active torsions:
REMARK  status: ('A' for Active; 'I' for Inactive)
REMARK    1  A    between atoms: C_2  and  C_3 
REMARK    2  A    between atoms: C_3  and  C_4 
REMARK    3  A    between atoms: C_4  and  C_5 
REMARK    4  A    between atoms: C_6  and  C_5 
REMARK    5  A    between atoms: C_6  and  N_8 
REMARK       I    between atoms: N_8  and  C_9 
REMARK       I    between atoms: C_9  and  N_11 
REMARK    6  A    between atoms: N_11  and  C_12 
REMARK    7  A    between atoms: C_12  and  C_13 
REMARK    8  A    between atoms: C_13  and  O_14 
REMARK    9  A    between atoms: C_13  and  C_15 
REMARK   10  A    between atoms: C_15  and  O_16 
REMARK   11  A    between atoms: O_16  and  C_17 
REMARK   12  A    between atoms: C_20  and  N_21 
ROOT
ATOM      1  C   UNL d   1      28.331 -14.684  -0.190  0.00  0.00     0.158 C 
ENDROOT
BRANCH   1   2
ATOM      2  N   UNL d   1      28.758 -14.958   1.184  0.00  0.00    -0.341 N 
ATOM      3  C   UNL d   1      28.169 -14.296   2.229  0.00  0.00     0.316 C 
ATOM      4  N   UNL d   1      28.649 -14.635   3.471  0.00  0.00    -0.339 N 
ATOM      5  O   UNL d   1      27.304 -13.435   2.050  0.00  0.00    -0.247 OA
ATOM      6  H   UNL d   1      29.351 -15.354   3.557  0.00  0.00     0.164 HD
ATOM      7  H   UNL d   1      29.362 -15.750   1.354  0.00  0.00     0.164 HD
BRANCH   4   8
ATOM      8  C   UNL d   1      28.170 -13.957   4.686  0.00  0.00     0.082 C 
ATOM      9  C   UNL d   1      28.363 -14.820   5.948  0.00  0.00     0.032 C 
BRANCH   8  10
ATOM     10  C   UNL d   1      28.837 -12.566   4.840  0.00  0.00     0.025 C 
BRANCH  10  11
ATOM     11  C   UNL d   1      28.246 -11.785   6.004  0.00  0.00     0.002 C 
BRANCH  11  12
ATOM     12  C   UNL d   1      29.239 -11.494   7.099  0.00  0.00    -0.000 C 
BRANCH  12  13
ATOM     13  C   UNL d   1      28.528 -11.675   8.435  0.00  0.00    -0.005 C 
ATOM     14  C   UNL d   1      28.520 -13.136   8.812  0.00  0.00     0.005 C 
ENDBRANCH  12  13
ENDBRANCH  11  12
ENDBRANCH  10  11
ENDBRANCH   8  10
ENDBRANCH   4   8
ENDBRANCH   1   2
BRANCH   1  15
ATOM     15  C   UNL d   1      27.614 -15.864  -0.874  0.00  0.00     0.160 C 
BRANCH  15  16
ATOM     16  O   UNL d   1      28.205 -17.089  -0.414  0.00  0.00    -0.392 OA
ATOM     17  H   UNL d   1      27.794 -17.313   0.438  0.00  0.00     0.210 HD
ENDBRANCH  15  16
BRANCH  15  18
ATOM     18  C   UNL d   1      26.092 -15.846  -0.585  0.00  0.00     0.209 C 
BRANCH  18  19
ATOM     19  O   UNL d   1      25.703 -17.085   0.031  0.00  0.00    -0.349 OA
BRANCH  19  20
ATOM     20  C   UNL d   1      24.470 -17.581  -0.300  0.00  0.00     0.069 A 
ATOM     21  C   UNL d   1      23.496 -16.635  -0.642  0.00  0.00     0.039 A 
ATOM     22  C   UNL d   1      22.168 -17.020  -0.872  0.00  0.00     0.039 A 
ATOM     23  C   UNL d   1      21.831 -18.377  -0.821  0.00  0.00     0.103 A 
ATOM     24  C   UNL d   1      22.794 -19.330  -0.469  0.00  0.00     0.039 A 
ATOM     25  C   UNL d   1      24.109 -18.927  -0.201  0.00  0.00     0.039 A 
BRANCH  23  26
ATOM     26  N   UNL d   1      20.477 -18.812  -1.193  0.00  0.00    -0.116 N 
ATOM     27  O   UNL d   1      20.369 -19.721  -2.027  0.00  0.00    -0.532 OA
ATOM     28  O   UNL d   1      19.520 -18.261  -0.627  0.00  0.00    -0.532 OA
ENDBRANCH  23  26
ENDBRANCH  19  20
ENDBRANCH  18  19
ENDBRANCH  15  18
ENDBRANCH   1  15
TORSDOF 12
ENDMDL
MODEL 3
REMARK VINA RESULT:    -6.934      3.413      9.018
REMARK INTER + INTRA:         -12.147
REMARK INTER:                 -10.514
REMARK INTRA:                  -1.634
REMARK CONF_INDEPENDENT:        3.580
REMARK UNBOUND:                -1.634
REMARK  12 active torsions:
REMARK  status: ('A' for Active; 'I' for Inactive)
REMARK    1  A    between atoms: C_2  and  C_3 
REMARK    2  A    between atoms: C_3  and  C_4 
REMARK    3  A    between atoms: C_4  and  C_5 
REMARK    4  A    between atoms: C_6  and  C_5 
REMARK    5  A    between atoms: C_6  and  N_8 
REMARK       I    between atoms: N_8  and  C_9 
REMARK       I    between atoms: C_9  and  N_11 
REMARK    6  A    between atoms: N_11  and  C_12 
REMARK    7  A    between atoms: C_12  and  C_13 
REMARK    8  A    between atoms: C_13  and  O_14 
REMARK    9  A    between atoms: C_13  and  C_15 
REMARK   10  A    between atoms: C_15  and  O_16 
REMARK   11  A    between atoms: O_16  and  C_17 
REMARK   12  A    between atoms: C_20  and  N_21 
ROOT
ATOM      1  C   UNL d   1      29.000 -14.465   1.356  0.00  0.00     0.158 C 
ENDROOT
BRANCH   1   2
ATOM      2  N   UNL d   1      28.311 -15.703   0.983  0.00  0.00    -0.341 N 
ATOM      3  C   UNL d   1      27.084 -15.647   0.375  0.00  0.00     0.316 C 
ATOM      4  N   UNL d   1      26.535 -16.870   0.071  0.00  0.00    -0.339 N 
ATOM      5  O   UNL d   1      26.512 -14.576   0.158  0.00  0.00    -0.247 OA
ATOM      6  H   UNL d   1      27.054 -17.713   0.263  0.00  0.00     0.164 HD
ATOM      7  H   UNL d   1      28.821 -16.573   1.029  0.00  0.00     0.164 HD
BRANCH   4   8
ATOM      8  C   UNL d   1      25.190 -16.978  -0.516  0.00  0.00     0.082 C 
ATOM      9  C   UNL d   1      25.191 -16.681  -2.028  0.00  0.00     0.032 C 
BRANCH   8  10
ATOM     10  C   UNL d   1      24.562 -18.360  -0.208  0.00  0.00     0.025 C 
BRANCH  10  11
ATOM     11  C   UNL d   1      23.311 -18.608  -1.036  0.00  0.00     0.002 C 
BRANCH  11  12
ATOM     12  C   UNL d   1      22.048 -18.113  -0.380  0.00  0.00    -0.000 C 
BRANCH  12  13
ATOM     13  C   UNL d   1      21.188 -19.327  -0.049  0.00  0.00    -0.005 C 
ATOM     14  C   UNL d   1      19.937 -19.309  -0.893  0.00  0.00     0.005 C 
ENDBRANCH  12  13
ENDBRANCH  11  12
ENDBRANCH  10  11
ENDBRANCH   8  10
ENDBRANCH   4   8
ENDBRANCH   1   2
BRANCH   1  15
ATOM     15  C   UNL d   1      29.528 -14.450   2.803  0.00  0.00     0.160 C 
BRANCH  15  16
ATOM     16  O   UNL d   1      30.564 -13.461   2.903  0.00  0.00    -0.392 OA
ATOM     17  H   UNL d   1      30.583 -13.146   3.823  0.00  0.00     0.210 HD
ENDBRANCH  15  16
BRANCH  15  18
ATOM     18  C   UNL d   1      28.393 -14.161   3.818  0.00  0.00     0.209 C 
BRANCH  18  19
ATOM     19  O   UNL d   1      28.615 -12.885   4.440  0.00  0.00    -0.349 OA
BRANCH  19  20
ATOM     20  C   UNL d   1      27.993 -11.803   3.873  0.00  0.00     0.069 A 
ATOM     21  C   UNL d   1      27.782 -10.703   4.714  0.00  0.00     0.039 A 
ATOM     22  C   UNL d   1      27.043  -9.596   4.277  0.00  0.00     0.039 A 
ATOM     23  C   UNL d   1      26.568  -9.566   2.961  0.00  0.00     0.103 A 
ATOM     24  C   UNL d   1      26.763 -10.665   2.116  0.00  0.00     0.039 A 
ATOM     25  C   UNL d   1      27.470 -11.784   2.580  0.00  0.00     0.039 A 
BRANCH  23  26
ATOM     26  N   UNL d   1      25.909  -8.357   2.445  0.00  0.00    -0.116 N 
ATOM     27  O   UNL d   1      25.002  -8.503   1.615  0.00  0.00    -0.532 OA
ATOM     28  O   UNL d   1      26.282  -7.263   2.893  0.00  0.00    -0.532 OA
ENDBRANCH  23  26
ENDBRANCH  19  20
ENDBRANCH  18  19
ENDBRANCH  15  18
ENDBRANCH   1  15
TORSDOF 12
ENDMDL
MODEL 4
REMARK VINA RESULT:    -6.761      1.777      3.001
REMARK INTER + INTRA:         -11.880
REMARK INTER:                 -10.341
REMARK INTRA:                  -1.539
REMARK CONF_INDEPENDENT:        3.580
REMARK UNBOUND:                -1.539
REMARK  12 active torsions:
REMARK  status: ('A' for Active; 'I' for Inactive)
REMARK    1  A    between atoms: C_2  and  C_3 
REMARK    2  A    between atoms: C_3  and  C_4 
REMARK    3  A    between atoms: C_4  and  C_5 
REMARK    4  A    between atoms: C_6  and  C_5 
REMARK    5  A    between atoms: C_6  and  N_8 
REMARK       I    between atoms: N_8  and  C_9 
REMARK       I    between atoms: C_9  and  N_11 
REMARK    6  A    between atoms: N_11  and  C_12 
REMARK    7  A    between atoms: C_12  and  C_13 
REMARK    8  A    between atoms: C_13  and  O_14 
REMARK    9  A    between atoms: C_13  and  C_15 
REMARK   10  A    between atoms: C_15  and  O_16 
REMARK   11  A    between atoms: O_16  and  C_17 
REMARK   12  A    between atoms: C_20  and  N_21 
ROOT
ATOM      1  C   UNL d   1      27.767 -14.561   2.897  0.00  0.00     0.158 C 
ENDROOT
BRANCH   1   2
ATOM      2  N   UNL d   1      28.855 -14.638   3.875  0.00  0.00    -0.341 N 
ATOM      3  C   UNL d   1      28.635 -14.259   5.173  0.00  0.00     0.316 C 
ATOM      4  N   UNL d   1      29.727 -14.374   6.000  0.00  0.00    -0.339 N 
ATOM      5  O   UNL d   1      27.548 -13.814   5.548  0.00  0.00    -0.247 OA
ATOM      6  H   UNL d   1      30.589 -14.754   5.640  0.00  0.00     0.164 HD
ATOM      7  H   UNL d   1      29.702 -15.123   3.619  0.00  0.00     0.164 HD
BRANCH   4   8
ATOM      8  C   UNL d   1      29.671 -13.936   7.404  0.00  0.00     0.082 C 
ATOM      9  C   UNL d   1      30.988 -14.216   8.153  0.00  0.00     0.032 C 
BRANCH   8  10
ATOM     10  C   UNL d   1      29.268 -12.443   7.500  0.00  0.00     0.025 C 
BRANCH  10  11
ATOM     11  C   UNL d   1      28.112 -12.233   8.466  0.00  0.00     0.002 C 
BRANCH  11  12
ATOM     12  C   UNL d   1      28.549 -12.064   9.899  0.00  0.00    -0.000 C 
BRANCH  12  13
ATOM     13  C   UNL d   1      27.778 -13.072  10.743  0.00  0.00    -0.005 C 
ATOM     14  C   UNL d   1      28.300 -14.463  10.478  0.00  0.00     0.005 C 
ENDBRANCH  12  13
ENDBRANCH  11  12
ENDBRANCH  10  11
ENDBRANCH   8  10
ENDBRANCH   4   8
ENDBRANCH   1   2
BRANCH   1  15
ATOM     15  C   UNL d   1      28.241 -14.381   1.442  0.00  0.00     0.160 C 
BRANCH  15  16
ATOM     16  O   UNL d   1      29.326 -15.288   1.197  0.00  0.00    -0.392 OA
ATOM     17  H   UNL d   1      29.098 -16.140   1.608  0.00  0.00     0.210 HD
ENDBRANCH  15  16
BRANCH  15  18
ATOM     18  C   UNL d   1      27.087 -14.619   0.436  0.00  0.00     0.209 C 
BRANCH  18  19
ATOM     19  O   UNL d   1      27.146 -15.969  -0.055  0.00  0.00    -0.349 OA
BRANCH  19  20
ATOM     20  C   UNL d   1      25.951 -16.592  -0.298  0.00  0.00     0.069 A 
ATOM     21  C   UNL d   1      25.025 -15.874  -1.066  0.00  0.00     0.039 A 
ATOM     22  C   UNL d   1      23.727 -16.361  -1.266  0.00  0.00     0.039 A 
ATOM     23  C   UNL d   1      23.376 -17.612  -0.745  0.00  0.00     0.103 A 
ATOM     24  C   UNL d   1      24.289 -18.332   0.033  0.00  0.00     0.039 A 
ATOM     25  C   UNL d   1      25.572 -17.814   0.261  0.00  0.00     0.039 A 
BRANCH  23  26
ATOM     26  N   UNL d   1      22.065 -18.197  -1.061  0.00  0.00    -0.116 N 
ATOM     27  O   UNL d   1      22.037 -19.368  -1.465  0.00  0.00    -0.532 OA
ATOM     28  O   UNL d   1      21.061 -17.494  -0.877  0.00  0.00    -0.532 OA
ENDBRANCH  23  26
ENDBRANCH  19  20
ENDBRANCH  18  19
ENDBRANCH  15  18
ENDBRANCH   1  15
TORSDOF 12
ENDMDL
MODEL 5
REMARK VINA RESULT:    -6.740      1.656      2.477
REMARK INTER + INTRA:         -12.367
REMARK INTER:                 -10.320
REMARK INTRA:                  -2.047
REMARK CONF_INDEPENDENT:        3.580
REMARK UNBOUND:                -2.047
REMARK  12 active torsions:
REMARK  status: ('A' for Active; 'I' for Inactive)
REMARK    1  A    between atoms: C_2  and  C_3 
REMARK    2  A    between atoms: C_3  and  C_4 
REMARK    3  A    between atoms: C_4  and  C_5 
REMARK    4  A    between atoms: C_6  and  C_5 
REMARK    5  A    between atoms: C_6  and  N_8 
REMARK       I    between atoms: N_8  and  C_9 
REMARK       I    between atoms: C_9  and  N_11 
REMARK    6  A    between atoms: N_11  and  C_12 
REMARK    7  A    between atoms: C_12  and  C_13 
REMARK    8  A    between atoms: C_13  and  O_14 
REMARK    9  A    between atoms: C_13  and  C_15 
REMARK   10  A    between atoms: C_15  and  O_16 
REMARK   11  A    between atoms: O_16  and  C_17 
REMARK   12  A    between atoms: C_20  and  N_21 
ROOT
ATOM      1  C   UNL d   1      27.998 -14.882  -0.145  0.00  0.00     0.158 C 
ENDROOT
BRANCH   1   2
ATOM      2  N   UNL d   1      28.547 -15.092   1.197  0.00  0.00    -0.341 N 
ATOM      3  C   UNL d   1      28.024 -14.411   2.265  0.00  0.00     0.316 C 
ATOM      4  N   UNL d   1      28.617 -14.690   3.473  0.00  0.00    -0.339 N 
ATOM      5  O   UNL d   1      27.118 -13.586   2.131  0.00  0.00    -0.247 OA
ATOM      6  H   UNL d   1      29.349 -15.382   3.523  0.00  0.00     0.164 HD
ATOM      7  H   UNL d   1      29.190 -15.858   1.342  0.00  0.00     0.164 HD
BRANCH   4   8
ATOM      8  C   UNL d   1      28.218 -13.983   4.700  0.00  0.00     0.082 C 
ATOM      9  C   UNL d   1      28.490 -14.818   5.966  0.00  0.00     0.032 C 
BRANCH   8  10
ATOM     10  C   UNL d   1      28.895 -12.591   4.780  0.00  0.00     0.025 C 
BRANCH  10  11
ATOM     11  C   UNL d   1      28.135 -11.549   3.974  0.00  0.00     0.002 C 
BRANCH  11  12
ATOM     12  C   UNL d   1      27.628 -10.398   4.804  0.00  0.00    -0.000 C 
BRANCH  12  13
ATOM     13  C   UNL d   1      27.308  -9.246   3.859  0.00  0.00    -0.005 C 
ATOM     14  C   UNL d   1      26.472  -9.750   2.708  0.00  0.00     0.005 C 
ENDBRANCH  12  13
ENDBRANCH  11  12
ENDBRANCH  10  11
ENDBRANCH   8  10
ENDBRANCH   4   8
ENDBRANCH   1   2
BRANCH   1  15
ATOM     15  C   UNL d   1      27.997 -16.143  -1.029  0.00  0.00     0.160 C 
BRANCH  15  16
ATOM     16  O   UNL d   1      28.645 -17.206  -0.313  0.00  0.00    -0.392 OA
ATOM     17  H   UNL d   1      28.087 -17.998  -0.390  0.00  0.00     0.210 HD
ENDBRANCH  15  16
BRANCH  15  18
ATOM     18  C   UNL d   1      26.559 -16.552  -1.434  0.00  0.00     0.209 C 
BRANCH  18  19
ATOM     19  O   UNL d   1      25.866 -17.078  -0.290  0.00  0.00    -0.349 OA
BRANCH  19  20
ATOM     20  C   UNL d   1      24.593 -17.542  -0.496  0.00  0.00     0.069 A 
ATOM     21  C   UNL d   1      23.586 -16.571  -0.562  0.00  0.00     0.039 A 
ATOM     22  C   UNL d   1      22.236 -16.940  -0.640  0.00  0.00     0.039 A 
ATOM     23  C   UNL d   1      21.901 -18.296  -0.720  0.00  0.00     0.103 A 
ATOM     24  C   UNL d   1      22.898 -19.274  -0.643  0.00  0.00     0.039 A 
ATOM     25  C   UNL d   1      24.242 -18.893  -0.524  0.00  0.00     0.039 A 
BRANCH  23  26
ATOM     26  N   UNL d   1      20.503 -18.694  -0.939  0.00  0.00    -0.116 N 
ATOM     27  O   UNL d   1      19.636 -17.811  -0.893  0.00  0.00    -0.532 OA
ATOM     28  O   UNL d   1      20.276 -19.888  -1.186  0.00  0.00    -0.532 OA
ENDBRANCH  23  26
ENDBRANCH  19  20
ENDBRANCH  18  19
ENDBRANCH  15  18
ENDBRANCH   1  15
TORSDOF 12
ENDMDL
MODEL 6
REMARK VINA RESULT:    -6.456      6.633     10.421
REMARK INTER + INTRA:         -12.184
REMARK INTER:                 -10.035
REMARK INTRA:                  -2.149
REMARK CONF_INDEPENDENT:        3.580
REMARK UNBOUND:                -2.149
REMARK  12 active torsions:
REMARK  status: ('A' for Active; 'I' for Inactive)
REMARK    1  A    between atoms: C_2  and  C_3 
REMARK    2  A    between atoms: C_3  and  C_4 
REMARK    3  A    between atoms: C_4  and  C_5 
REMARK    4  A    between atoms: C_6  and  C_5 
REMARK    5  A    between atoms: C_6  and  N_8 
REMARK       I    between atoms: N_8  and  C_9 
REMARK       I    between atoms: C_9  and  N_11 
REMARK    6  A    between atoms: N_11  and  C_12 
REMARK    7  A    between atoms: C_12  and  C_13 
REMARK    8  A    between atoms: C_13  and  O_14 
REMARK    9  A    between atoms: C_13  and  C_15 
REMARK   10  A    between atoms: C_15  and  O_16 
REMARK   11  A    between atoms: O_16  and  C_17 
REMARK   12  A    between atoms: C_20  and  N_21 
ROOT
ATOM      1  C   UNL d   1      26.533  -9.772  -4.513  0.00  0.00     0.158 C 
ENDROOT
BRANCH   1   2
ATOM      2  N   UNL d   1      25.611 -10.894  -4.701  0.00  0.00    -0.341 N 
ATOM      3  C   UNL d   1      25.972 -12.152  -4.294  0.00  0.00     0.316 C 
ATOM      4  N   UNL d   1      25.027 -13.125  -4.519  0.00  0.00    -0.339 N 
ATOM      5  O   UNL d   1      27.078 -12.385  -3.800  0.00  0.00    -0.247 OA
ATOM      6  H   UNL d   1      24.135 -12.873  -4.918  0.00  0.00     0.164 HD
ATOM      7  H   UNL d   1      24.659 -10.698  -4.975  0.00  0.00     0.164 HD
BRANCH   4   8
ATOM      8  C   UNL d   1      25.296 -14.537  -4.207  0.00  0.00     0.082 C 
ATOM      9  C   UNL d   1      26.571 -15.053  -4.900  0.00  0.00     0.032 C 
BRANCH   8  10
ATOM     10  C   UNL d   1      25.351 -14.762  -2.674  0.00  0.00     0.025 C 
BRANCH  10  11
ATOM     11  C   UNL d   1      25.154 -16.226  -2.313  0.00  0.00     0.002 C 
BRANCH  11  12
ATOM     12  C   UNL d   1      24.089 -16.450  -1.271  0.00  0.00    -0.000 C 
BRANCH  12  13
ATOM     13  C   UNL d   1      23.817 -17.949  -1.196  0.00  0.00    -0.005 C 
ATOM     14  C   UNL d   1      22.964 -18.251   0.012  0.00  0.00     0.005 C 
ENDBRANCH  12  13
ENDBRANCH  11  12
ENDBRANCH  10  11
ENDBRANCH   8  10
ENDBRANCH   4   8
ENDBRANCH   1   2
BRANCH   1  15
ATOM     15  C   UNL d   1      25.894  -8.388  -4.737  0.00  0.00     0.160 C 
BRANCH  15  16
ATOM     16  O   UNL d   1      24.506  -8.460  -4.375  0.00  0.00    -0.392 OA
ATOM     17  H   UNL d   1      24.402  -8.021  -3.514  0.00  0.00     0.210 HD
ENDBRANCH  15  16
BRANCH  15  18
ATOM     18  C   UNL d   1      26.618  -7.289  -3.919  0.00  0.00     0.209 C 
BRANCH  18  19
ATOM     19  O   UNL d   1      25.701  -6.702  -2.982  0.00  0.00    -0.349 OA
BRANCH  19  20
ATOM     20  C   UNL d   1      25.750  -7.165  -1.694  0.00  0.00     0.069 A 
ATOM     21  C   UNL d   1      25.136  -6.360  -0.725  0.00  0.00     0.039 A 
ATOM     22  C   UNL d   1      25.238  -6.672   0.638  0.00  0.00     0.039 A 
ATOM     23  C   UNL d   1      25.906  -7.838   1.025  0.00  0.00     0.103 A 
ATOM     24  C   UNL d   1      26.532  -8.643   0.067  0.00  0.00     0.039 A 
ATOM     25  C   UNL d   1      26.458  -8.298  -1.290  0.00  0.00     0.039 A 
BRANCH  23  26
ATOM     26  N   UNL d   1      25.904  -8.251   2.436  0.00  0.00    -0.116 N 
ATOM     27  O   UNL d   1      25.177  -9.200   2.760  0.00  0.00    -0.532 OA
ATOM     28  O   UNL d   1      26.654  -7.643   3.214  0.00  0.00    -0.532 OA
ENDBRANCH  23  26
ENDBRANCH  19  20
ENDBRANCH  18  19
ENDBRANCH  15  18
ENDBRANCH   1  15
TORSDOF 12
ENDMDL
MODEL 7
REMARK VINA RESULT:    -6.292      3.728      8.788
REMARK INTER + INTRA:         -12.480
REMARK INTER:                  -9.871
REMARK INTRA:                  -2.609
REMARK CONF_INDEPENDENT:        3.580
REMARK UNBOUND:                -2.609
REMARK  12 active torsions:
REMARK  status: ('A' for Active; 'I' for Inactive)
REMARK    1  A    between atoms: C_2  and  C_3 
REMARK    2  A    between atoms: C_3  and  C_4 
REMARK    3  A    between atoms: C_4  and  C_5 
REMARK    4  A    between atoms: C_6  and  C_5 
REMARK    5  A    between atoms: C_6  and  N_8 
REMARK       I    between atoms: N_8  and  C_9 
REMARK       I    between atoms: C_9  and  N_11 
REMARK    6  A    between atoms: N_11  and  C_12 
REMARK    7  A    between atoms: C_12  and  C_13 
REMARK    8  A    between atoms: C_13  and  O_14 
REMARK    9  A    between atoms: C_13  and  C_15 
REMARK   10  A    between atoms: C_15  and  O_16 
REMARK   11  A    between atoms: O_16  and  C_17 
REMARK   12  A    between atoms: C_20  and  N_21 
ROOT
ATOM      1  C   UNL d   1      28.004 -14.184   5.093  0.00  0.00     0.158 C 
ENDROOT
BRANCH   1   2
ATOM      2  N   UNL d   1      28.323 -14.824   3.815  0.00  0.00    -0.341 N 
ATOM      3  C   UNL d   1      27.633 -14.475   2.684  0.00  0.00     0.316 C 
ATOM      4  N   UNL d   1      28.019 -15.140   1.544  0.00  0.00    -0.339 N 
ATOM      5  O   UNL d   1      26.713 -13.654   2.709  0.00  0.00    -0.247 OA
ATOM      6  H   UNL d   1      28.786 -15.794   1.583  0.00  0.00     0.164 HD
ATOM      7  H   UNL d   1      29.156 -15.391   3.752  0.00  0.00     0.164 HD
BRANCH   4   8
ATOM      8  C   UNL d   1      27.323 -14.930   0.266  0.00  0.00     0.082 C 
ATOM      9  C   UNL d   1      28.030 -13.883  -0.616  0.00  0.00     0.032 C 
BRANCH   8  10
ATOM     10  C   UNL d   1      27.132 -16.272  -0.486  0.00  0.00     0.025 C 
BRANCH  10  11
ATOM     11  C   UNL d   1      27.031 -17.446   0.475  0.00  0.00     0.002 C 
BRANCH  11  12
ATOM     12  C   UNL d   1      25.731 -18.201   0.366  0.00  0.00    -0.000 C 
BRANCH  12  13
ATOM     13  C   UNL d   1      24.784 -17.377  -0.499  0.00  0.00    -0.005 C 
ATOM     14  C   UNL d   1      23.430 -18.042  -0.546  0.00  0.00     0.005 C 
ENDBRANCH  12  13
ENDBRANCH  11  12
ENDBRANCH  10  11
ENDBRANCH   8  10
ENDBRANCH   4   8
ENDBRANCH   1   2
BRANCH   1  15
ATOM     15  C   UNL d   1      29.239 -13.829   5.944  0.00  0.00     0.160 C 
BRANCH  15  16
ATOM     16  O   UNL d   1      30.404 -14.387   5.317  0.00  0.00    -0.392 OA
ATOM     17  H   UNL d   1      31.006 -13.653   5.107  0.00  0.00     0.210 HD
ENDBRANCH  15  16
BRANCH  15  18
ATOM     18  C   UNL d   1      29.389 -12.297   6.116  0.00  0.00     0.209 C 
BRANCH  18  19
ATOM     19  O   UNL d   1      29.830 -11.713   4.879  0.00  0.00    -0.349 OA
BRANCH  19  20
ATOM     20  C   UNL d   1      28.934 -10.917   4.216  0.00  0.00     0.069 A 
ATOM     21  C   UNL d   1      28.474  -9.792   4.913  0.00  0.00     0.039 A 
ATOM     22  C   UNL d   1      27.462  -8.982   4.381  0.00  0.00     0.039 A 
ATOM     23  C   UNL d   1      26.954  -9.266   3.109  0.00  0.00     0.103 A 
ATOM     24  C   UNL d   1      27.398 -10.394   2.409  0.00  0.00     0.039 A 
ATOM     25  C   UNL d   1      28.382 -11.220   2.970  0.00  0.00     0.039 A 
BRANCH  23  26
ATOM     26  N   UNL d   1      25.991  -8.350   2.481  0.00  0.00    -0.116 N 
ATOM     27  O   UNL d   1      25.155  -8.833   1.704  0.00  0.00    -0.532 OA
ATOM     28  O   UNL d   1      26.054  -7.150   2.787  0.00  0.00    -0.532 OA
ENDBRANCH  23  26
ENDBRANCH  19  20
ENDBRANCH  18  19
ENDBRANCH  15  18
ENDBRANCH   1  15
TORSDOF 12
ENDMDL
MODEL 8
REMARK VINA RESULT:    -6.004      4.137      7.710
REMARK INTER + INTRA:         -11.924
REMARK INTER:                  -9.583
REMARK INTRA:                  -2.341
REMARK CONF_INDEPENDENT:        3.580
REMARK UNBOUND:                -2.341
REMARK  12 active torsions:
REMARK  status: ('A' for Active; 'I' for Inactive)
REMARK    1  A    between atoms: C_2  and  C_3 
REMARK    2  A    between atoms: C_3  and  C_4 
REMARK    3  A    between atoms: C_4  and  C_5 
REMARK    4  A    between atoms: C_6  and  C_5 
REMARK    5  A    between atoms: C_6  and  N_8 
REMARK       I    between atoms: N_8  and  C_9 
REMARK       I    between atoms: C_9  and  N_11 
REMARK    6  A    between atoms: N_11  and  C_12 
REMARK    7  A    between atoms: C_12  and  C_13 
REMARK    8  A    between atoms: C_13  and  O_14 
REMARK    9  A    between atoms: C_13  and  C_15 
REMARK   10  A    between atoms: C_15  and  O_16 
REMARK   11  A    between atoms: O_16  and  C_17 
REMARK   12  A    between atoms: C_20  and  N_21 
ROOT
ATOM      1  C   UNL d   1      28.622 -14.643   1.285  0.00  0.00     0.158 C 
ENDROOT
BRANCH   1   2
ATOM      2  N   UNL d   1      27.948 -15.894   0.930  0.00  0.00    -0.341 N 
ATOM      3  C   UNL d   1      26.716 -15.862   0.330  0.00  0.00     0.316 C 
ATOM      4  N   UNL d   1      26.181 -17.095   0.043  0.00  0.00    -0.339 N 
ATOM      5  O   UNL d   1      26.128 -14.801   0.107  0.00  0.00    -0.247 OA
ATOM      6  H   UNL d   1      26.714 -17.929   0.239  0.00  0.00     0.164 HD
ATOM      7  H   UNL d   1      28.470 -16.757   0.980  0.00  0.00     0.164 HD
BRANCH   4   8
ATOM      8  C   UNL d   1      24.834 -17.227  -0.533  0.00  0.00     0.082 C 
ATOM      9  C   UNL d   1      24.823 -16.975  -2.053  0.00  0.00     0.032 C 
BRANCH   8  10
ATOM     10  C   UNL d   1      24.216 -18.604  -0.180  0.00  0.00     0.025 C 
BRANCH  10  11
ATOM     11  C   UNL d   1      22.705 -18.519  -0.021  0.00  0.00     0.002 C 
BRANCH  11  12
ATOM     12  C   UNL d   1      21.947 -18.941  -1.253  0.00  0.00    -0.000 C 
BRANCH  12  13
ATOM     13  C   UNL d   1      20.507 -19.224  -0.840  0.00  0.00    -0.005 C 
ATOM     14  C   UNL d   1      20.471 -19.675   0.600  0.00  0.00     0.005 C 
ENDBRANCH  12  13
ENDBRANCH  11  12
ENDBRANCH  10  11
ENDBRANCH   8  10
ENDBRANCH   4   8
ENDBRANCH   1   2
BRANCH   1  15
ATOM     15  C   UNL d   1      30.145 -14.663   1.054  0.00  0.00     0.160 C 
BRANCH  15  16
ATOM     16  O   UNL d   1      30.537 -15.995   0.690  0.00  0.00    -0.392 OA
ATOM     17  H   UNL d   1      30.514 -16.541   1.494  0.00  0.00     0.210 HD
ENDBRANCH  15  16
BRANCH  15  18
ATOM     18  C   UNL d   1      30.567 -13.648  -0.038  0.00  0.00     0.209 C 
BRANCH  18  19
ATOM     19  O   UNL d   1      30.849 -14.346  -1.262  0.00  0.00    -0.349 OA
BRANCH  19  20
ATOM     20  C   UNL d   1      29.796 -14.556  -2.113  0.00  0.00     0.069 A 
ATOM     21  C   UNL d   1      28.989 -13.443  -2.382  0.00  0.00     0.039 A 
ATOM     22  C   UNL d   1      27.814 -13.572  -3.133  0.00  0.00     0.039 A 
ATOM     23  C   UNL d   1      27.480 -14.818  -3.674  0.00  0.00     0.103 A 
ATOM     24  C   UNL d   1      28.273 -15.940  -3.402  0.00  0.00     0.039 A 
ATOM     25  C   UNL d   1      29.425 -15.805  -2.614  0.00  0.00     0.039 A 
BRANCH  23  26
ATOM     26  N   UNL d   1      26.326 -14.943  -4.576  0.00  0.00    -0.116 N 
ATOM     27  O   UNL d   1      26.548 -15.201  -5.767  0.00  0.00    -0.532 OA
ATOM     28  O   UNL d   1      25.195 -14.810  -4.086  0.00  0.00    -0.532 OA
ENDBRANCH  23  26
ENDBRANCH  19  20
ENDBRANCH  18  19
ENDBRANCH  15  18
ENDBRANCH   1  15
TORSDOF 12
ENDMDL
MODEL 9
REMARK VINA RESULT:    -5.752      4.236      6.556
REMARK INTER + INTRA:         -12.314
REMARK INTER:                  -9.332
REMARK INTRA:                  -2.982
REMARK CONF_INDEPENDENT:        3.580
REMARK UNBOUND:                -2.982
REMARK  12 active torsions:
REMARK  status: ('A' for Active; 'I' for Inactive)
REMARK    1  A    between atoms: C_2  and  C_3 
REMARK    2  A    between atoms: C_3  and  C_4 
REMARK    3  A    between atoms: C_4  and  C_5 
REMARK    4  A    between atoms: C_6  and  C_5 
REMARK    5  A    between atoms: C_6  and  N_8 
REMARK       I    between atoms: N_8  and  C_9 
REMARK       I    between atoms: C_9  and  N_11 
REMARK    6  A    between atoms: N_11  and  C_12 
REMARK    7  A    between atoms: C_12  and  C_13 
REMARK    8  A    between atoms: C_13  and  O_14 
REMARK    9  A    between atoms: C_13  and  C_15 
REMARK   10  A    between atoms: C_15  and  O_16 
REMARK   11  A    between atoms: O_16  and  C_17 
REMARK   12  A    between atoms: C_20  and  N_21 
ROOT
ATOM      1  C   UNL d   1      29.371 -16.689  -0.513  0.00  0.00     0.158 C 
ENDROOT
BRANCH   1   2
ATOM      2  N   UNL d   1      29.137 -16.806  -1.954  0.00  0.00    -0.341 N 
ATOM      3  C   UNL d   1      28.710 -15.718  -2.669  0.00  0.00     0.316 C 
ATOM      4  N   UNL d   1      28.526 -15.946  -4.012  0.00  0.00    -0.339 N 
ATOM      5  O   UNL d   1      28.475 -14.634  -2.129  0.00  0.00    -0.247 OA
ATOM      6  H   UNL d   1      28.744 -16.851  -4.400  0.00  0.00     0.164 HD
ATOM      7  H   UNL d   1      29.453 -17.639  -2.430  0.00  0.00     0.164 HD
BRANCH   4   8
ATOM      8  C   UNL d   1      27.998 -14.897  -4.899  0.00  0.00     0.082 C 
ATOM      9  C   UNL d   1      28.926 -14.630  -6.099  0.00  0.00     0.032 C 
BRANCH   8  10
ATOM     10  C   UNL d   1      26.557 -15.236  -5.358  0.00  0.00     0.025 C 
BRANCH  10  11
ATOM     11  C   UNL d   1      25.655 -15.569  -4.180  0.00  0.00     0.002 C 
BRANCH  11  12
ATOM     12  C   UNL d   1      25.643 -14.505  -3.113  0.00  0.00    -0.000 C 
BRANCH  12  13
ATOM     13  C   UNL d   1      25.074 -13.232  -3.729  0.00  0.00    -0.005 C 
ATOM     14  C   UNL d   1      25.852 -12.037  -3.237  0.00  0.00     0.005 C 
ENDBRANCH  12  13
ENDBRANCH  11  12
ENDBRANCH  10  11
ENDBRANCH   8  10
ENDBRANCH   4   8
ENDBRANCH   1   2
BRANCH   1  15
ATOM     15  C   UNL d   1      28.090 -16.473   0.316  0.00  0.00     0.160 C 
BRANCH  15  16
ATOM     16  O   UNL d   1      27.736 -15.083   0.260  0.00  0.00    -0.392 OA
ATOM     17  H   UNL d   1      27.359 -14.909  -0.619  0.00  0.00     0.210 HD
ENDBRANCH  15  16
BRANCH  15  18
ATOM     18  C   UNL d   1      26.926 -17.357  -0.198  0.00  0.00     0.209 C 
BRANCH  18  19
ATOM     19  O   UNL d   1      25.781 -16.533  -0.477  0.00  0.00    -0.349 OA
BRANCH  19  20
ATOM     20  C   UNL d   1      24.579 -17.174  -0.628  0.00  0.00     0.069 A 
ATOM     21  C   UNL d   1      23.467 -16.352  -0.853  0.00  0.00     0.039 A 
ATOM     22  C   UNL d   1      22.173 -16.890  -0.894  0.00  0.00     0.039 A 
ATOM     23  C   UNL d   1      22.003 -18.273  -0.773  0.00  0.00     0.103 A 
ATOM     24  C   UNL d   1      23.106 -19.102  -0.537  0.00  0.00     0.039 A 
ATOM     25  C   UNL d   1      24.391 -18.546  -0.457  0.00  0.00     0.039 A 
BRANCH  23  26
ATOM     26  N   UNL d   1      20.670 -18.867  -0.950  0.00  0.00    -0.116 N 
ATOM     27  O   UNL d   1      20.602 -19.997  -1.453  0.00  0.00    -0.532 OA
ATOM     28  O   UNL d   1      19.692 -18.213  -0.558  0.00  0.00    -0.532 OA
ENDBRANCH  23  26
ENDBRANCH  19  20
ENDBRANCH  18  19
ENDBRANCH  15  18
ENDBRANCH   1  15
TORSDOF 12
ENDMDL
