MODEL 1
REMARK VINA RESULT:    -6.788      0.000      0.000
REMARK INTER + INTRA:         -10.711
REMARK INTER:                  -8.876
REMARK INTRA:                  -1.835
REMARK CONF_INDEPENDENT:        2.088
REMARK UNBOUND:                -1.835
REMARK  7 active torsions:
REMARK  status: ('A' for Active; 'I' for Inactive)
REMARK    1  A    between atoms: C_6  and  C_7 
REMARK    2  A    between atoms: C_12  and  C_13 
REMARK    3  A    between atoms: N_20  and  C_21 
REMARK    4  A    between atoms: C_21  and  C_22 
REMARK    5  A    between atoms: C_22  and  C_23 
REMARK    6  A    between atoms: C_23  and  O_24 
REMARK    7  A    between atoms: C_27  and  O_28 
ROOT
ATOM      1  C   UNL d   1      29.238 -13.821   0.255  0.00  0.00     0.074 A 
ATOM      2  N   UNL d   1      30.514 -13.476  -0.156  0.00  0.00    -0.276 N 
ATOM      3  N   UNL d   1      30.663 -13.376  -1.505  0.00  0.00    -0.168 NA
ATOM      4  C   UNL d   1      29.472 -13.767  -1.963  0.00  0.00     0.155 A 
ATOM      5  C   UNL d   1      28.573 -14.067  -0.936  0.00  0.00     0.035 A 
ATOM      6  C   UNL d   1      27.280 -14.491  -1.549  0.00  0.00     0.162 C 
ATOM      7  N   UNL d   1      27.633 -14.681  -2.970  0.00  0.00    -0.333 N 
ATOM      8  C   UNL d   1      28.871 -14.045  -3.278  0.00  0.00     0.275 C 
ATOM      9  O   UNL d   1      29.320 -13.802  -4.374  0.00  0.00    -0.266 OA
ATOM     10  H   UNL d   1      31.314 -13.287   0.444  0.00  0.00     0.189 HD
ENDROOT
BRANCH   1  11
ATOM     11  C   UNL d   1      28.860 -13.964   1.677  0.00  0.00     0.032 C 
ATOM     12  C   UNL d   1      27.595 -13.540   2.132  0.00  0.00    -0.046 C 
ATOM     13  C   UNL d   1      27.304 -13.325   3.470  0.00  0.00     0.014 C 
ATOM     14  C   UNL d   1      26.552 -13.123   1.192  0.00  0.00     0.049 C 
ATOM     15  C   UNL d   1      28.183 -13.783   4.422  0.00  0.00    -0.059 C 
ATOM     16  C   UNL d   1      27.782 -13.702   5.855  0.00  0.00     0.048 C 
ATOM     17  C   UNL d   1      29.378 -14.384   4.003  0.00  0.00     0.044 C 
ATOM     18  C   UNL d   1      29.726 -14.451   2.647  0.00  0.00     0.079 C 
BRANCH  18  19
ATOM     19  O   UNL d   1      30.930 -15.027   2.350  0.00  0.00    -0.360 OA
ATOM     20  H   UNL d   1      30.790 -15.957   2.107  0.00  0.00     0.217 HD
ENDBRANCH  18  19
ENDBRANCH   1  11
BRANCH   6  21
ATOM     21  C   UNL d   1      26.734 -15.710  -0.887  0.00  0.00     0.008 A 
ATOM     22  C   UNL d   1      27.595 -16.520  -0.126  0.00  0.00     0.012 A 
ATOM     23  C   UNL d   1      27.108 -17.680   0.473  0.00  0.00     0.001 A 
ATOM     24  C   UNL d   1      25.774 -18.062   0.298  0.00  0.00     0.003 A 
ATOM     25  C   UNL d   1      24.889 -17.245  -0.407  0.00  0.00     0.043 A 
ATOM     26  C   UNL d   1      25.355 -16.054  -0.961  0.00  0.00     0.125 A 
ATOM     27  F   UNL d   1      24.539 -15.363  -1.774  0.00  0.00    -0.205 F 
ENDBRANCH   6  21
BRANCH   7  28
ATOM     28  C   UNL d   1      26.890 -15.575  -3.905  0.00  0.00     0.129 C 
BRANCH  28  29
ATOM     29  C   UNL d   1      26.010 -14.888  -4.971  0.00  0.00     0.046 C 
BRANCH  29  30
ATOM     30  C   UNL d   1      25.270 -13.626  -4.619  0.00  0.00     0.165 C 
BRANCH  30  31
ATOM     31  O   UNL d   1      23.923 -13.976  -4.269  0.00  0.00    -0.401 OA
ATOM     32  H   UNL d   1      23.329 -13.700  -4.994  0.00  0.00     0.209 HD
ENDBRANCH  30  31
ENDBRANCH  29  30
ENDBRANCH  28  29
ENDBRANCH   7  28
TORSDOF 7
ENDMDL
MODEL 2
REMARK VINA RESULT:    -6.596      8.276     11.447
REMARK INTER + INTRA:         -10.504
REMARK INTER:                  -8.684
REMARK INTRA:                  -1.819
REMARK CONF_INDEPENDENT:        2.088
REMARK UNBOUND:                -1.819
REMARK  7 active torsions:
REMARK  status: ('A' for Active; 'I' for Inactive)
REMARK    1  A    between atoms: C_6  and  C_7 
REMARK    2  A    between atoms: C_12  and  C_13 
REMARK    3  A    between atoms: N_20  and  C_21 
REMARK    4  A    between atoms: C_21  and  C_22 
REMARK    5  A    between atoms: C_22  and  C_23 
REMARK    6  A    between atoms: C_23  and  O_24 
REMARK    7  A    between atoms: C_27  and  O_28 
ROOT
ATOM      1  C   UNL d   1      30.608 -21.575   2.011  0.00  0.00     0.074 A 
ATOM      2  N   UNL d   1      29.387 -22.002   2.506  0.00  0.00    -0.276 N 
ATOM      3  N   UNL d   1      29.281 -21.950   3.863  0.00  0.00    -0.168 NA
ATOM      4  C   UNL d   1      30.505 -21.575   4.240  0.00  0.00     0.155 A 
ATOM      5  C   UNL d   1      31.357 -21.350   3.155  0.00  0.00     0.035 A 
ATOM      6  C   UNL d   1      32.692 -20.937   3.681  0.00  0.00     0.162 C 
ATOM      7  N   UNL d   1      32.588 -21.237   5.123  0.00  0.00    -0.333 N 
ATOM      8  C   UNL d   1      31.228 -21.407   5.512  0.00  0.00     0.275 C 
ATOM      9  O   UNL d   1      30.780 -21.419   6.636  0.00  0.00    -0.266 OA
ATOM     10  H   UNL d   1      28.593 -22.327   1.961  0.00  0.00     0.189 HD
ENDROOT
BRANCH   1  11
ATOM     11  C   UNL d   1      30.922 -21.535   0.568  0.00  0.00     0.032 C 
ATOM     12  C   UNL d   1      30.577 -22.612  -0.275  0.00  0.00    -0.046 C 
ATOM     13  C   UNL d   1      31.131 -22.797  -1.532  0.00  0.00     0.014 C 
ATOM     14  C   UNL d   1      29.738 -23.711   0.206  0.00  0.00     0.049 C 
ATOM     15  C   UNL d   1      31.845 -21.770  -2.100  0.00  0.00    -0.059 C 
ATOM     16  C   UNL d   1      32.289 -21.913  -3.516  0.00  0.00     0.048 C 
ATOM     17  C   UNL d   1      32.053 -20.599  -1.357  0.00  0.00     0.044 C 
ATOM     18  C   UNL d   1      31.619 -20.492  -0.028  0.00  0.00     0.079 C 
BRANCH  18  19
ATOM     19  O   UNL d   1      31.903 -19.320   0.616  0.00  0.00    -0.360 OA
ATOM     20  H   UNL d   1      31.113 -18.754   0.617  0.00  0.00     0.217 HD
ENDBRANCH  18  19
ENDBRANCH   1  11
BRANCH   6  21
ATOM     21  C   UNL d   1      33.799 -21.653   2.986  0.00  0.00     0.008 A 
ATOM     22  C   UNL d   1      33.489 -22.704   2.104  0.00  0.00     0.012 A 
ATOM     23  C   UNL d   1      34.513 -23.404   1.471  0.00  0.00     0.001 A 
ATOM     24  C   UNL d   1      35.851 -23.091   1.731  0.00  0.00     0.003 A 
ATOM     25  C   UNL d   1      36.182 -22.019   2.560  0.00  0.00     0.043 A 
ATOM     26  C   UNL d   1      35.162 -21.276   3.152  0.00  0.00     0.125 A 
ATOM     27  F   UNL d   1      35.490 -20.357   4.074  0.00  0.00    -0.205 F 
ENDBRANCH   6  21
BRANCH   7  28
ATOM     28  C   UNL d   1      33.757 -21.510   6.008  0.00  0.00     0.129 C 
BRANCH  28  29
ATOM     29  C   UNL d   1      33.725 -22.825   6.816  0.00  0.00     0.046 C 
BRANCH  29  30
ATOM     30  C   UNL d   1      34.935 -23.720   6.823  0.00  0.00     0.165 C 
BRANCH  30  31
ATOM     31  O   UNL d   1      35.024 -24.367   5.545  0.00  0.00    -0.401 OA
ATOM     32  H   UNL d   1      34.155 -24.309   5.102  0.00  0.00     0.209 HD
ENDBRANCH  30  31
ENDBRANCH  29  30
ENDBRANCH  28  29
ENDBRANCH   7  28
TORSDOF 7
ENDMDL
MODEL 3
REMARK VINA RESULT:    -6.135      1.909      5.796
REMARK INTER + INTRA:         -10.198
REMARK INTER:                  -8.223
REMARK INTRA:                  -1.975
REMARK CONF_INDEPENDENT:        2.088
REMARK UNBOUND:                -1.975
REMARK  7 active torsions:
REMARK  status: ('A' for Active; 'I' for Inactive)
REMARK    1  A    between atoms: C_6  and  C_7 
REMARK    2  A    between atoms: C_12  and  C_13 
REMARK    3  A    between atoms: N_20  and  C_21 
REMARK    4  A    between atoms: C_21  and  C_22 
REMARK    5  A    between atoms: C_22  and  C_23 
REMARK    6  A    between atoms: C_23  and  O_24 
REMARK    7  A    between atoms: C_27  and  O_28 
ROOT
ATOM      1  C   UNL d   1      27.313 -16.047  -1.743  0.00  0.00     0.074 A 
ATOM      2  N   UNL d   1      27.562 -15.955  -3.101  0.00  0.00    -0.276 N 
ATOM      3  N   UNL d   1      28.836 -15.592  -3.417  0.00  0.00    -0.168 NA
ATOM      4  C   UNL d   1      29.378 -15.349  -2.221  0.00  0.00     0.155 A 
ATOM      5  C   UNL d   1      28.491 -15.593  -1.169  0.00  0.00     0.035 A 
ATOM      6  C   UNL d   1      29.189 -15.294   0.115  0.00  0.00     0.162 C 
ATOM      7  N   UNL d   1      30.412 -14.595  -0.326  0.00  0.00    -0.333 N 
ATOM      8  C   UNL d   1      30.652 -14.813  -1.714  0.00  0.00     0.275 C 
ATOM      9  O   UNL d   1      31.671 -14.595  -2.327  0.00  0.00    -0.266 OA
ATOM     10  H   UNL d   1      26.902 -16.141  -3.852  0.00  0.00     0.189 HD
ENDROOT
BRANCH   1  11
ATOM     11  C   UNL d   1      26.002 -16.444  -1.188  0.00  0.00     0.032 C 
ATOM     12  C   UNL d   1      25.919 -17.367  -0.125  0.00  0.00    -0.046 C 
ATOM     13  C   UNL d   1      24.751 -18.035   0.208  0.00  0.00     0.014 C 
ATOM     14  C   UNL d   1      27.119 -17.815   0.585  0.00  0.00     0.049 C 
ATOM     15  C   UNL d   1      23.564 -17.606  -0.334  0.00  0.00    -0.059 C 
ATOM     16  C   UNL d   1      22.297 -18.217   0.160  0.00  0.00     0.048 C 
ATOM     17  C   UNL d   1      23.586 -16.557  -1.264  0.00  0.00     0.044 C 
ATOM     18  C   UNL d   1      24.793 -15.999  -1.707  0.00  0.00     0.079 C 
BRANCH  18  19
ATOM     19  O   UNL d   1      24.703 -15.004  -2.640  0.00  0.00    -0.360 OA
ATOM     20  H   UNL d   1      25.025 -14.172  -2.255  0.00  0.00     0.217 HD
ENDBRANCH  18  19
ENDBRANCH   1  11
BRANCH   6  21
ATOM     21  C   UNL d   1      28.328 -14.497   1.034  0.00  0.00     0.008 A 
ATOM     22  C   UNL d   1      28.340 -14.788   2.410  0.00  0.00     0.012 A 
ATOM     23  C   UNL d   1      27.518 -14.075   3.279  0.00  0.00     0.001 A 
ATOM     24  C   UNL d   1      26.655 -13.089   2.788  0.00  0.00     0.003 A 
ATOM     25  C   UNL d   1      26.665 -12.746   1.436  0.00  0.00     0.043 A 
ATOM     26  C   UNL d   1      27.527 -13.416   0.569  0.00  0.00     0.125 A 
ATOM     27  F   UNL d   1      27.409 -13.194  -0.750  0.00  0.00    -0.205 F 
ENDBRANCH   6  21
BRANCH   7  28
ATOM     28  C   UNL d   1      31.183 -13.640   0.522  0.00  0.00     0.129 C 
BRANCH  28  29
ATOM     29  C   UNL d   1      32.219 -14.251   1.490  0.00  0.00     0.046 C 
BRANCH  29  30
ATOM     30  C   UNL d   1      31.752 -15.142   2.608  0.00  0.00     0.165 C 
BRANCH  30  31
ATOM     31  O   UNL d   1      31.144 -14.320   3.615  0.00  0.00    -0.401 OA
ATOM     32  H   UNL d   1      31.822 -14.084   4.279  0.00  0.00     0.209 HD
ENDBRANCH  30  31
ENDBRANCH  29  30
ENDBRANCH  28  29
ENDBRANCH   7  28
TORSDOF 7
ENDMDL
MODEL 4
REMARK VINA RESULT:    -6.129      1.420      1.648
REMARK INTER + INTRA:         -10.544
REMARK INTER:                  -8.217
REMARK INTRA:                  -2.327
REMARK CONF_INDEPENDENT:        2.088
REMARK UNBOUND:                -2.327
REMARK  7 active torsions:
REMARK  status: ('A' for Active; 'I' for Inactive)
REMARK    1  A    between atoms: C_6  and  C_7 
REMARK    2  A    between atoms: C_12  and  C_13 
REMARK    3  A    between atoms: N_20  and  C_21 
REMARK    4  A    between atoms: C_21  and  C_22 
REMARK    5  A    between atoms: C_22  and  C_23 
REMARK    6  A    between atoms: C_23  and  O_24 
REMARK    7  A    between atoms: C_27  and  O_28 
ROOT
ATOM      1  C   UNL d   1      28.132 -13.026   0.105  0.00  0.00     0.074 A 
ATOM      2  N   UNL d   1      29.088 -12.237  -0.512  0.00  0.00    -0.276 N 
ATOM      3  N   UNL d   1      28.862 -12.010  -1.835  0.00  0.00    -0.168 NA
ATOM      4  C   UNL d   1      27.786 -12.760  -2.083  0.00  0.00     0.155 A 
ATOM      5  C   UNL d   1      27.311 -13.414  -0.943  0.00  0.00     0.035 A 
ATOM      6  C   UNL d   1      26.115 -14.220  -1.325  0.00  0.00     0.162 C 
ATOM      7  N   UNL d   1      26.151 -14.190  -2.800  0.00  0.00    -0.333 N 
ATOM      8  C   UNL d   1      27.003 -13.148  -3.269  0.00  0.00     0.275 C 
ATOM      9  O   UNL d   1      27.068 -12.699  -4.390  0.00  0.00    -0.266 OA
ATOM     10  H   UNL d   1      29.905 -11.821  -0.073  0.00  0.00     0.189 HD
ENDROOT
BRANCH   1  11
ATOM     11  C   UNL d   1      28.180 -13.377   1.540  0.00  0.00     0.032 C 
ATOM     12  C   UNL d   1      27.344 -12.723   2.469  0.00  0.00    -0.046 C 
ATOM     13  C   UNL d   1      27.570 -12.747   3.837  0.00  0.00     0.014 C 
ATOM     14  C   UNL d   1      26.280 -11.821   2.027  0.00  0.00     0.049 C 
ATOM     15  C   UNL d   1      28.478 -13.644   4.344  0.00  0.00    -0.059 C 
ATOM     16  C   UNL d   1      28.588 -13.782   5.824  0.00  0.00     0.048 C 
ATOM     17  C   UNL d   1      29.201 -14.450   3.453  0.00  0.00     0.044 C 
ATOM     18  C   UNL d   1      29.073 -14.301   2.065  0.00  0.00     0.079 C 
BRANCH  18  19
ATOM     19  O   UNL d   1      29.849 -15.114   1.287  0.00  0.00    -0.360 OA
ATOM     20  H   UNL d   1      29.949 -15.976   1.723  0.00  0.00     0.217 HD
ENDBRANCH  18  19
ENDBRANCH   1  11
BRANCH   6  21
ATOM     21  C   UNL d   1      26.168 -15.590  -0.740  0.00  0.00     0.008 A 
ATOM     22  C   UNL d   1      27.407 -16.109  -0.323  0.00  0.00     0.012 A 
ATOM     23  C   UNL d   1      27.481 -17.400   0.196  0.00  0.00     0.001 A 
ATOM     24  C   UNL d   1      26.335 -18.197   0.277  0.00  0.00     0.003 A 
ATOM     25  C   UNL d   1      25.087 -17.684  -0.079  0.00  0.00     0.043 A 
ATOM     26  C   UNL d   1      24.996 -16.374  -0.546  0.00  0.00     0.125 A 
ATOM     27  F   UNL d   1      23.823 -15.949  -1.040  0.00  0.00    -0.205 F 
ENDBRANCH   6  21
BRANCH   7  28
ATOM     28  C   UNL d   1      25.530 -15.227  -3.674  0.00  0.00     0.129 C 
BRANCH  28  29
ATOM     29  C   UNL d   1      26.262 -15.553  -4.994  0.00  0.00     0.046 C 
BRANCH  29  30
ATOM     30  C   UNL d   1      27.767 -15.575  -5.019  0.00  0.00     0.165 C 
BRANCH  30  31
ATOM     31  O   UNL d   1      28.210 -14.795  -6.139  0.00  0.00    -0.401 OA
ATOM     32  H   UNL d   1      27.895 -13.876  -6.026  0.00  0.00     0.209 HD
ENDBRANCH  30  31
ENDBRANCH  29  30
ENDBRANCH  28  29
ENDBRANCH   7  28
TORSDOF 7
ENDMDL
MODEL 5
REMARK VINA RESULT:    -5.907      3.414      7.192
REMARK INTER + INTRA:         -10.483
REMARK INTER:                  -7.995
REMARK INTRA:                  -2.488
REMARK CONF_INDEPENDENT:        2.088
REMARK UNBOUND:                -2.488
REMARK  7 active torsions:
REMARK  status: ('A' for Active; 'I' for Inactive)
REMARK    1  A    between atoms: C_6  and  C_7 
REMARK    2  A    between atoms: C_12  and  C_13 
REMARK    3  A    between atoms: N_20  and  C_21 
REMARK    4  A    between atoms: C_21  and  C_22 
REMARK    5  A    between atoms: C_22  and  C_23 
REMARK    6  A    between atoms: C_23  and  O_24 
REMARK    7  A    between atoms: C_27  and  O_28 
ROOT
ATOM      1  C   UNL d   1      26.170 -13.792  -4.209  0.00  0.00     0.074 A 
ATOM      2  N   UNL d   1      24.815 -14.065  -4.279  0.00  0.00    -0.276 N 
ATOM      3  N   UNL d   1      24.291 -14.607  -3.145  0.00  0.00    -0.168 NA
ATOM      4  C   UNL d   1      25.368 -14.774  -2.374  0.00  0.00     0.155 A 
ATOM      5  C   UNL d   1      26.540 -14.311  -2.978  0.00  0.00     0.035 A 
ATOM      6  C   UNL d   1      27.677 -14.542  -2.041  0.00  0.00     0.162 C 
ATOM      7  N   UNL d   1      27.088 -15.423  -1.014  0.00  0.00    -0.333 N 
ATOM      8  C   UNL d   1      25.664 -15.393  -1.071  0.00  0.00     0.275 C 
ATOM      9  O   UNL d   1      24.886 -15.796  -0.238  0.00  0.00    -0.266 OA
ATOM     10  H   UNL d   1      24.201 -13.890  -5.070  0.00  0.00     0.189 HD
ENDROOT
BRANCH   1  11
ATOM     11  C   UNL d   1      26.928 -13.185  -5.324  0.00  0.00     0.032 C 
ATOM     12  C   UNL d   1      26.763 -11.824  -5.650  0.00  0.00    -0.046 C 
ATOM     13  C   UNL d   1      27.162 -11.282  -6.863  0.00  0.00     0.014 C 
ATOM     14  C   UNL d   1      25.988 -10.927  -4.790  0.00  0.00     0.049 C 
ATOM     15  C   UNL d   1      27.981 -12.020  -7.682  0.00  0.00    -0.059 C 
ATOM     16  C   UNL d   1      28.542 -11.367  -8.898  0.00  0.00     0.048 C 
ATOM     17  C   UNL d   1      28.322 -13.325  -7.297  0.00  0.00     0.044 C 
ATOM     18  C   UNL d   1      27.781 -13.911  -6.145  0.00  0.00     0.079 C 
BRANCH  18  19
ATOM     19  O   UNL d   1      28.154 -15.199  -5.880  0.00  0.00    -0.360 OA
ATOM     20  H   UNL d   1      28.734 -15.519  -6.591  0.00  0.00     0.217 HD
ENDBRANCH  18  19
ENDBRANCH   1  11
BRANCH   6  21
ATOM     21  C   UNL d   1      28.856 -15.125  -2.743  0.00  0.00     0.008 A 
ATOM     22  C   UNL d   1      28.887 -16.508  -2.998  0.00  0.00     0.012 A 
ATOM     23  C   UNL d   1      29.994 -17.075  -3.623  0.00  0.00     0.001 A 
ATOM     24  C   UNL d   1      31.093 -16.282  -3.974  0.00  0.00     0.003 A 
ATOM     25  C   UNL d   1      31.062 -14.901  -3.780  0.00  0.00     0.043 A 
ATOM     26  C   UNL d   1      29.933 -14.318  -3.206  0.00  0.00     0.125 A 
ATOM     27  F   UNL d   1      29.982 -13.018  -2.873  0.00  0.00    -0.205 F 
ENDBRANCH   6  21
BRANCH   7  28
ATOM     28  C   UNL d   1      27.876 -16.360  -0.160  0.00  0.00     0.129 C 
BRANCH  28  29
ATOM     29  C   UNL d   1      27.407 -17.830  -0.125  0.00  0.00     0.046 C 
BRANCH  29  30
ATOM     30  C   UNL d   1      26.358 -18.248   0.869  0.00  0.00     0.165 C 
BRANCH  30  31
ATOM     31  O   UNL d   1      25.134 -18.489   0.158  0.00  0.00    -0.401 OA
ATOM     32  H   UNL d   1      24.650 -17.645   0.073  0.00  0.00     0.209 HD
ENDBRANCH  30  31
ENDBRANCH  29  30
ENDBRANCH  28  29
ENDBRANCH   7  28
TORSDOF 7
ENDMDL
MODEL 6
REMARK VINA RESULT:    -5.898      3.564      7.211
REMARK INTER + INTRA:         -10.470
REMARK INTER:                  -7.986
REMARK INTRA:                  -2.484
REMARK CONF_INDEPENDENT:        2.088
REMARK UNBOUND:                -2.484
REMARK  7 active torsions:
REMARK  status: ('A' for Active; 'I' for Inactive)
REMARK    1  A    between atoms: C_6  and  C_7 
REMARK    2  A    between atoms: C_12  and  C_13 
REMARK    3  A    between atoms: N_20  and  C_21 
REMARK    4  A    between atoms: C_21  and  C_22 
REMARK    5  A    between atoms: C_22  and  C_23 
REMARK    6  A    between atoms: C_23  and  O_24 
REMARK    7  A    between atoms: C_27  and  O_28 
ROOT
ATOM      1  C   UNL d   1      25.952 -13.460  -4.164  0.00  0.00     0.074 A 
ATOM      2  N   UNL d   1      24.608 -13.778  -4.256  0.00  0.00    -0.276 N 
ATOM      3  N   UNL d   1      24.113 -14.450  -3.180  0.00  0.00    -0.168 NA
ATOM      4  C   UNL d   1      25.201 -14.649  -2.432  0.00  0.00     0.155 A 
ATOM      5  C   UNL d   1      26.350 -14.083  -2.991  0.00  0.00     0.035 A 
ATOM      6  C   UNL d   1      27.502 -14.360  -2.085  0.00  0.00     0.162 C 
ATOM      7  N   UNL d   1      26.954 -15.361  -1.148  0.00  0.00    -0.333 N 
ATOM      8  C   UNL d   1      25.531 -15.382  -1.198  0.00  0.00     0.275 C 
ATOM      9  O   UNL d   1      24.774 -15.896  -0.407  0.00  0.00    -0.266 OA
ATOM     10  H   UNL d   1      23.982 -13.550  -5.025  0.00  0.00     0.189 HD
ENDROOT
BRANCH   1  11
ATOM     11  C   UNL d   1      26.678 -12.716  -5.215  0.00  0.00     0.032 C 
ATOM     12  C   UNL d   1      27.618 -13.369  -6.039  0.00  0.00    -0.046 C 
ATOM     13  C   UNL d   1      28.565 -12.690  -6.791  0.00  0.00     0.014 C 
ATOM     14  C   UNL d   1      27.768 -14.825  -6.012  0.00  0.00     0.049 C 
ATOM     15  C   UNL d   1      28.434 -11.333  -6.955  0.00  0.00    -0.059 C 
ATOM     16  C   UNL d   1      29.354 -10.641  -7.901  0.00  0.00     0.048 C 
ATOM     17  C   UNL d   1      27.390 -10.670  -6.294  0.00  0.00     0.044 C 
ATOM     18  C   UNL d   1      26.537 -11.349  -5.413  0.00  0.00     0.079 C 
BRANCH  18  19
ATOM     19  O   UNL d   1      25.574 -10.602  -4.794  0.00  0.00    -0.360 OA
ATOM     20  H   UNL d   1      24.780 -11.147  -4.661  0.00  0.00     0.217 HD
ENDBRANCH  18  19
ENDBRANCH   1  11
BRANCH   6  21
ATOM     21  C   UNL d   1      28.698 -14.824  -2.844  0.00  0.00     0.008 A 
ATOM     22  C   UNL d   1      28.782 -16.172  -3.233  0.00  0.00     0.012 A 
ATOM     23  C   UNL d   1      29.907 -16.630  -3.915  0.00  0.00     0.001 A 
ATOM     24  C   UNL d   1      30.970 -15.763  -4.190  0.00  0.00     0.003 A 
ATOM     25  C   UNL d   1      30.886 -14.409  -3.862  0.00  0.00     0.043 A 
ATOM     26  C   UNL d   1      29.738 -13.932  -3.231  0.00  0.00     0.125 A 
ATOM     27  F   UNL d   1      29.737 -12.670  -2.773  0.00  0.00    -0.205 F 
ENDBRANCH   6  21
BRANCH   7  28
ATOM     28  C   UNL d   1      27.785 -16.345  -0.394  0.00  0.00     0.129 C 
BRANCH  28  29
ATOM     29  C   UNL d   1      27.258 -17.795  -0.330  0.00  0.00     0.046 C 
BRANCH  29  30
ATOM     30  C   UNL d   1      26.340 -18.200   0.791  0.00  0.00     0.165 C 
BRANCH  30  31
ATOM     31  O   UNL d   1      25.060 -18.526   0.230  0.00  0.00    -0.401 OA
ATOM     32  H   UNL d   1      24.477 -17.745   0.304  0.00  0.00     0.209 HD
ENDBRANCH  30  31
ENDBRANCH  29  30
ENDBRANCH  28  29
ENDBRANCH   7  28
TORSDOF 7
ENDMDL
MODEL 7
REMARK VINA RESULT:    -5.842      3.755      6.108
REMARK INTER + INTRA:         -10.438
REMARK INTER:                  -7.930
REMARK INTRA:                  -2.508
REMARK CONF_INDEPENDENT:        2.088
REMARK UNBOUND:                -2.508
REMARK  7 active torsions:
REMARK  status: ('A' for Active; 'I' for Inactive)
REMARK    1  A    between atoms: C_6  and  C_7 
REMARK    2  A    between atoms: C_12  and  C_13 
REMARK    3  A    between atoms: N_20  and  C_21 
REMARK    4  A    between atoms: C_21  and  C_22 
REMARK    5  A    between atoms: C_22  and  C_23 
REMARK    6  A    between atoms: C_23  and  O_24 
REMARK    7  A    between atoms: C_27  and  O_28 
ROOT
ATOM      1  C   UNL d   1      28.604 -16.730  -1.767  0.00  0.00     0.074 A 
ATOM      2  N   UNL d   1      29.087 -17.246  -0.577  0.00  0.00    -0.276 N 
ATOM      3  N   UNL d   1      28.133 -17.788   0.230  0.00  0.00    -0.168 NA
ATOM      4  C   UNL d   1      27.003 -17.514  -0.426  0.00  0.00     0.155 A 
ATOM      5  C   UNL d   1      27.230 -16.857  -1.638  0.00  0.00     0.035 A 
ATOM      6  C   UNL d   1      25.912 -16.598  -2.289  0.00  0.00     0.162 C 
ATOM      7  N   UNL d   1      24.946 -16.898  -1.214  0.00  0.00    -0.333 N 
ATOM      8  C   UNL d   1      25.559 -17.654  -0.173  0.00  0.00     0.275 C 
ATOM      9  O   UNL d   1      25.009 -18.260   0.717  0.00  0.00    -0.266 OA
ATOM     10  H   UNL d   1      30.057 -17.264  -0.273  0.00  0.00     0.189 HD
ENDROOT
BRANCH   1  11
ATOM     11  C   UNL d   1      29.475 -16.115  -2.791  0.00  0.00     0.032 C 
ATOM     12  C   UNL d   1      29.712 -14.725  -2.793  0.00  0.00    -0.046 C 
ATOM     13  C   UNL d   1      30.218 -14.045  -3.891  0.00  0.00     0.014 C 
ATOM     14  C   UNL d   1      29.264 -13.878  -1.686  0.00  0.00     0.049 C 
ATOM     15  C   UNL d   1      30.757 -14.768  -4.928  0.00  0.00    -0.059 C 
ATOM     16  C   UNL d   1      31.451 -14.029  -6.020  0.00  0.00     0.048 C 
ATOM     17  C   UNL d   1      30.706 -16.167  -4.874  0.00  0.00     0.044 C 
ATOM     18  C   UNL d   1      30.050 -16.835  -3.830  0.00  0.00     0.079 C 
BRANCH  18  19
ATOM     19  O   UNL d   1      30.030 -18.200  -3.892  0.00  0.00    -0.360 OA
ATOM     20  H   UNL d   1      30.358 -18.488  -4.760  0.00  0.00     0.217 HD
ENDBRANCH  18  19
ENDBRANCH   1  11
BRANCH   6  21
ATOM     21  C   UNL d   1      25.826 -15.207  -2.819  0.00  0.00     0.008 A 
ATOM     22  C   UNL d   1      25.901 -14.127  -1.921  0.00  0.00     0.012 A 
ATOM     23  C   UNL d   1      25.790 -12.822  -2.395  0.00  0.00     0.001 A 
ATOM     24  C   UNL d   1      25.573 -12.578  -3.755  0.00  0.00     0.003 A 
ATOM     25  C   UNL d   1      25.549 -13.631  -4.670  0.00  0.00     0.043 A 
ATOM     26  C   UNL d   1      25.717 -14.936  -4.212  0.00  0.00     0.125 A 
ATOM     27  F   UNL d   1      25.526 -15.948  -5.073  0.00  0.00    -0.205 F 
ENDBRANCH   6  21
BRANCH   7  28
ATOM     28  C   UNL d   1      23.570 -16.325  -1.141  0.00  0.00     0.129 C 
BRANCH  28  29
ATOM     29  C   UNL d   1      22.530 -17.119  -0.322  0.00  0.00     0.046 C 
BRANCH  29  30
ATOM     30  C   UNL d   1      21.989 -18.412  -0.868  0.00  0.00     0.165 C 
BRANCH  30  31
ATOM     31  O   UNL d   1      22.764 -19.491  -0.325  0.00  0.00    -0.401 OA
ATOM     32  H   UNL d   1      23.078 -19.234   0.565  0.00  0.00     0.209 HD
ENDBRANCH  30  31
ENDBRANCH  29  30
ENDBRANCH  28  29
ENDBRANCH   7  28
TORSDOF 7
ENDMDL
MODEL 8
REMARK VINA RESULT:    -5.745      6.504      8.323
REMARK INTER + INTRA:         -10.432
REMARK INTER:                  -7.834
REMARK INTRA:                  -2.598
REMARK CONF_INDEPENDENT:        2.088
REMARK UNBOUND:                -2.598
REMARK  7 active torsions:
REMARK  status: ('A' for Active; 'I' for Inactive)
REMARK    1  A    between atoms: C_6  and  C_7 
REMARK    2  A    between atoms: C_12  and  C_13 
REMARK    3  A    between atoms: N_20  and  C_21 
REMARK    4  A    between atoms: C_21  and  C_22 
REMARK    5  A    between atoms: C_22  and  C_23 
REMARK    6  A    between atoms: C_23  and  O_24 
REMARK    7  A    between atoms: C_27  and  O_28 
ROOT
ATOM      1  C   UNL d   1      29.536 -10.907   8.114  0.00  0.00     0.074 A 
ATOM      2  N   UNL d   1      30.103  -9.698   8.478  0.00  0.00    -0.276 N 
ATOM      3  N   UNL d   1      29.748  -8.648   7.687  0.00  0.00    -0.168 NA
ATOM      4  C   UNL d   1      29.016  -9.232   6.735  0.00  0.00     0.155 A 
ATOM      5  C   UNL d   1      28.869 -10.607   6.936  0.00  0.00     0.035 A 
ATOM      6  C   UNL d   1      28.040 -11.161   5.826  0.00  0.00     0.162 C 
ATOM      7  N   UNL d   1      27.994 -10.046   4.858  0.00  0.00    -0.333 N 
ATOM      8  C   UNL d   1      28.377  -8.820   5.474  0.00  0.00     0.275 C 
ATOM      9  O   UNL d   1      28.219  -7.700   5.044  0.00  0.00    -0.266 OA
ATOM     10  H   UNL d   1      30.728  -9.534   9.264  0.00  0.00     0.189 HD
ENDROOT
BRANCH   1  11
ATOM     11  C   UNL d   1      29.777 -12.165   8.851  0.00  0.00     0.032 C 
ATOM     12  C   UNL d   1      30.957 -12.908   8.641  0.00  0.00    -0.046 C 
ATOM     13  C   UNL d   1      31.095 -14.234   9.022  0.00  0.00     0.014 C 
ATOM     14  C   UNL d   1      32.057 -12.371   7.838  0.00  0.00     0.049 C 
ATOM     15  C   UNL d   1      30.158 -14.783   9.864  0.00  0.00    -0.059 C 
ATOM     16  C   UNL d   1      30.405 -16.150  10.403  0.00  0.00     0.048 C 
ATOM     17  C   UNL d   1      29.057 -14.006  10.248  0.00  0.00     0.044 C 
ATOM     18  C   UNL d   1      28.853 -12.720   9.727  0.00  0.00     0.079 C 
BRANCH  18  19
ATOM     19  O   UNL d   1      27.729 -12.061  10.141  0.00  0.00    -0.360 OA
ATOM     20  H   UNL d   1      27.942 -11.126  10.293  0.00  0.00     0.217 HD
ENDBRANCH  18  19
ENDBRANCH   1  11
BRANCH   6  21
ATOM     21  C   UNL d   1      28.624 -12.419   5.281  0.00  0.00     0.008 A 
ATOM     22  C   UNL d   1      27.933 -13.630   5.464  0.00  0.00     0.012 A 
ATOM     23  C   UNL d   1      28.479 -14.820   4.990  0.00  0.00     0.001 A 
ATOM     24  C   UNL d   1      29.727 -14.825   4.358  0.00  0.00     0.003 A 
ATOM     25  C   UNL d   1      30.405 -13.630   4.117  0.00  0.00     0.043 A 
ATOM     26  C   UNL d   1      29.837 -12.428   4.538  0.00  0.00     0.125 A 
ATOM     27  F   UNL d   1      30.572 -11.307   4.450  0.00  0.00    -0.205 F 
ENDBRANCH   6  21
BRANCH   7  28
ATOM     28  C   UNL d   1      27.761 -10.217   3.395  0.00  0.00     0.129 C 
BRANCH  28  29
ATOM     29  C   UNL d   1      26.330  -9.945   2.883  0.00  0.00     0.046 C 
BRANCH  29  30
ATOM     30  C   UNL d   1      26.064  -8.725   2.042  0.00  0.00     0.165 C 
BRANCH  30  31
ATOM     31  O   UNL d   1      26.278  -7.562   2.855  0.00  0.00    -0.401 OA
ATOM     32  H   UNL d   1      27.116  -7.672   3.346  0.00  0.00     0.209 HD
ENDBRANCH  30  31
ENDBRANCH  29  30
ENDBRANCH  28  29
ENDBRANCH   7  28
TORSDOF 7
ENDMDL
MODEL 9
REMARK VINA RESULT:    -5.502      4.152      6.300
REMARK INTER + INTRA:         -10.011
REMARK INTER:                  -7.590
REMARK INTRA:                  -2.421
REMARK CONF_INDEPENDENT:        2.088
REMARK UNBOUND:                -2.421
REMARK  7 active torsions:
REMARK  status: ('A' for Active; 'I' for Inactive)
REMARK    1  A    between atoms: C_6  and  C_7 
REMARK    2  A    between atoms: C_12  and  C_13 
REMARK    3  A    between atoms: N_20  and  C_21 
REMARK    4  A    between atoms: C_21  and  C_22 
REMARK    5  A    between atoms: C_22  and  C_23 
REMARK    6  A    between atoms: C_23  and  O_24 
REMARK    7  A    between atoms: C_27  and  O_28 
ROOT
ATOM      1  C   UNL d   1      25.868 -11.936  -3.948  0.00  0.00     0.074 A 
ATOM      2  N   UNL d   1      25.543 -10.635  -3.606  0.00  0.00    -0.276 N 
ATOM      3  N   UNL d   1      25.763  -9.722  -4.592  0.00  0.00    -0.168 NA
ATOM      4  C   UNL d   1      26.339 -10.455  -5.548  0.00  0.00     0.155 A 
ATOM      5  C   UNL d   1      26.443 -11.805  -5.203  0.00  0.00     0.035 A 
ATOM      6  C   UNL d   1      27.095 -12.532  -6.331  0.00  0.00     0.162 C 
ATOM      7  N   UNL d   1      27.599 -11.437  -7.184  0.00  0.00    -0.333 N 
ATOM      8  C   UNL d   1      26.970 -10.202  -6.855  0.00  0.00     0.275 C 
ATOM      9  O   UNL d   1      26.969  -9.181  -7.503  0.00  0.00    -0.266 OA
ATOM     10  H   UNL d   1      25.158 -10.320  -2.719  0.00  0.00     0.189 HD
ENDROOT
BRANCH   1  11
ATOM     11  C   UNL d   1      25.688 -13.080  -3.030  0.00  0.00     0.032 C 
ATOM     12  C   UNL d   1      26.484 -13.206  -1.872  0.00  0.00    -0.046 C 
ATOM     13  C   UNL d   1      26.612 -14.393  -1.167  0.00  0.00     0.014 C 
ATOM     14  C   UNL d   1      27.374 -12.126  -1.443  0.00  0.00     0.049 C 
ATOM     15  C   UNL d   1      25.743 -15.422  -1.436  0.00  0.00    -0.059 C 
ATOM     16  C   UNL d   1      25.777 -16.626  -0.559  0.00  0.00     0.048 C 
ATOM     17  C   UNL d   1      24.805 -15.262  -2.466  0.00  0.00     0.044 C 
ATOM     18  C   UNL d   1      24.794 -14.115  -3.272  0.00  0.00     0.079 C 
BRANCH  18  19
ATOM     19  O   UNL d   1      23.861 -14.075  -4.270  0.00  0.00    -0.360 OA
ATOM     20  H   UNL d   1      23.789 -13.167  -4.607  0.00  0.00     0.217 HD
ENDBRANCH  18  19
ENDBRANCH   1  11
BRANCH   6  21
ATOM     21  C   UNL d   1      28.152 -13.463  -5.845  0.00  0.00     0.008 A 
ATOM     22  C   UNL d   1      29.462 -12.982  -5.671  0.00  0.00     0.012 A 
ATOM     23  C   UNL d   1      30.469 -13.846  -5.248  0.00  0.00     0.001 A 
ATOM     24  C   UNL d   1      30.194 -15.199  -5.024  0.00  0.00     0.003 A 
ATOM     25  C   UNL d   1      28.891 -15.687  -5.137  0.00  0.00     0.043 A 
ATOM     26  C   UNL d   1      27.867 -14.815  -5.504  0.00  0.00     0.125 A 
ATOM     27  F   UNL d   1      26.655 -15.327  -5.771  0.00  0.00    -0.205 F 
ENDBRANCH   6  21
BRANCH   7  28
ATOM     28  C   UNL d   1      28.744 -11.573  -8.131  0.00  0.00     0.129 C 
BRANCH  28  29
ATOM     29  C   UNL d   1      28.400 -11.951  -9.588  0.00  0.00     0.046 C 
BRANCH  29  30
ATOM     30  C   UNL d   1      26.980 -11.825 -10.070  0.00  0.00     0.165 C 
BRANCH  30  31
ATOM     31  O   UNL d   1      26.648 -10.431 -10.135  0.00  0.00    -0.401 OA
ATOM     32  H   UNL d   1      26.263 -10.159  -9.279  0.00  0.00     0.209 HD
ENDBRANCH  30  31
ENDBRANCH  29  30
ENDBRANCH  28  29
ENDBRANCH   7  28
TORSDOF 7
ENDMDL
