MODEL 1
REMARK VINA RESULT:    -8.578      0.000      0.000
REMARK INTER + INTRA:         -12.000
REMARK INTER:                 -10.368
REMARK INTRA:                  -1.633
REMARK CONF_INDEPENDENT:        1.790
REMARK UNBOUND:                -1.633
REMARK  6 active torsions:
REMARK  status: ('A' for Active; 'I' for Inactive)
REMARK    1  A    between atoms: CA_3  and  C_2 
REMARK    2  A    between atoms: CA_3  and  N_6 
REMARK    3  A    between atoms: CA_3  and  C_4 
REMARK    4  A    between atoms: C_4  and  O_5 
REMARK       I    between atoms: N_6  and  C_7 
REMARK    5  A    between atoms: C_7  and  C_9 
REMARK    6  A    between atoms: C_11  and  C_12 
ROOT
ATOM      1  C   UNL d   1      21.520 -18.787  -0.798  0.00  0.00     0.264 A 
ATOM      2  N   UNL d   1      22.459 -18.110  -0.170  0.00  0.00    -0.195 NA
ATOM      3  C   UNL d   1      23.548 -18.266  -1.014  0.00  0.00     0.190 A 
ATOM      4  N   UNL d   1      23.280 -18.951  -2.137  0.00  0.00    -0.105 NA
ATOM      5  O   UNL d   1      21.943 -19.325  -1.982  0.00  0.00    -0.185 OA
ENDROOT
BRANCH   1   6
ATOM      6  C   UNL d   1      20.159 -19.060  -0.361  0.00  0.00     0.297 C 
ATOM      7  N   UNL d   1      20.023 -19.836   0.792  0.00  0.00    -0.347 N 
ATOM      8  H   UNL d   1      20.878 -20.142   1.246  0.00  0.00     0.163 HD
ATOM      9  O   UNL d   1      19.180 -18.617  -0.953  0.00  0.00    -0.264 OA
BRANCH   7  10
ATOM     10  CA  UNL d   1      18.707 -20.163   1.422  0.00  0.00     0.108 C 
BRANCH  10  11
ATOM     11  C   UNL d   1      17.994 -21.278   0.615  0.00  0.00     0.189 C 
BRANCH  11  12
ATOM     12  O   UNL d   1      17.468 -20.830  -0.623  0.00  0.00    -0.399 OA
ATOM     13  H   UNL d   1      18.033 -20.088  -0.899  0.00  0.00     0.209 HD
ENDBRANCH  11  12
ENDBRANCH  10  11
BRANCH  10  14
ATOM     14  C   UNL d   1      18.905 -20.453   2.938  0.00  0.00     0.023 C 
ATOM     15  C   UNL d   1      20.281 -20.449   3.601  0.00  0.00     0.007 C 
ENDBRANCH  10  14
ENDBRANCH   7  10
ENDBRANCH   1   6
BRANCH   3  16
ATOM     16  C   UNL d   1      24.863 -17.750  -0.678  0.00  0.00     0.026 A 
ATOM     17  C   UNL d   1      25.695 -18.423   0.231  0.00  0.00     0.016 A 
ATOM     18  C   UNL d   1      26.930 -17.889   0.599  0.00  0.00     0.003 A 
ATOM     19  C   UNL d   1      27.370 -16.665   0.083  0.00  0.00     0.030 A 
ATOM     20  C   UNL d   1      26.547 -16.021  -0.850  0.00  0.00     0.043 A 
ATOM     21  N   UNL d   1      26.736 -14.836  -1.530  0.00  0.00    -0.365 N 
ATOM     22  C   UNL d   1      25.311 -16.540  -1.255  0.00  0.00     0.006 A 
ATOM     23  C   UNL d   1      25.692 -14.611  -2.386  0.00  0.00     0.089 A 
ATOM     24  H   UNL d   1      27.542 -14.237  -1.427  0.00  0.00     0.165 HD
ATOM     25  C   UNL d   1      24.786 -15.632  -2.221  0.00  0.00     0.031 A 
ENDBRANCH   3  16
TORSDOF 6
ENDMDL
MODEL 2
REMARK VINA RESULT:    -8.446      1.670      2.294
REMARK INTER + INTRA:         -12.253
REMARK INTER:                 -10.235
REMARK INTRA:                  -2.018
REMARK CONF_INDEPENDENT:        1.790
REMARK UNBOUND:                -2.018
REMARK  6 active torsions:
REMARK  status: ('A' for Active; 'I' for Inactive)
REMARK    1  A    between atoms: CA_3  and  C_2 
REMARK    2  A    between atoms: CA_3  and  N_6 
REMARK    3  A    between atoms: CA_3  and  C_4 
REMARK    4  A    between atoms: C_4  and  O_5 
REMARK       I    between atoms: N_6  and  C_7 
REMARK    5  A    between atoms: C_7  and  C_9 
REMARK    6  A    between atoms: C_11  and  C_12 
ROOT
ATOM      1  C   UNL d   1      23.267 -17.965  -0.534  0.00  0.00     0.264 A 
ATOM      2  N   UNL d   1      24.012 -16.999  -1.032  0.00  0.00    -0.195 NA
ATOM      3  C   UNL d   1      25.290 -17.404  -0.683  0.00  0.00     0.190 A 
ATOM      4  N   UNL d   1      25.339 -18.590  -0.055  0.00  0.00    -0.105 NA
ATOM      5  O   UNL d   1      23.995 -18.950   0.072  0.00  0.00    -0.185 OA
ENDROOT
BRANCH   1   6
ATOM      6  C   UNL d   1      21.814 -18.063  -0.511  0.00  0.00     0.297 C 
ATOM      7  N   UNL d   1      21.277 -19.107   0.247  0.00  0.00    -0.347 N 
ATOM      8  H   UNL d   1      21.933 -19.709   0.733  0.00  0.00     0.163 HD
ATOM      9  O   UNL d   1      21.095 -17.265  -1.102  0.00  0.00    -0.264 OA
BRANCH   7  10
ATOM     10  CA  UNL d   1      19.810 -19.324   0.436  0.00  0.00     0.108 C 
BRANCH  10  11
ATOM     11  C   UNL d   1      19.111 -19.464  -0.941  0.00  0.00     0.189 C 
BRANCH  11  12
ATOM     12  O   UNL d   1      20.013 -19.698  -2.010  0.00  0.00    -0.399 OA
ATOM     13  H   UNL d   1      20.281 -18.819  -2.328  0.00  0.00     0.209 HD
ENDBRANCH  11  12
ENDBRANCH  10  11
BRANCH  10  14
ATOM     14  C   UNL d   1      19.574 -20.495   1.432  0.00  0.00     0.023 C 
ATOM     15  C   UNL d   1      18.364 -21.424   1.334  0.00  0.00     0.007 C 
ENDBRANCH  10  14
ENDBRANCH   7  10
ENDBRANCH   1   6
BRANCH   3  16
ATOM     16  C   UNL d   1      26.459 -16.587  -0.954  0.00  0.00     0.026 A 
ATOM     17  C   UNL d   1      27.557 -16.578  -0.079  0.00  0.00     0.016 A 
ATOM     18  C   UNL d   1      28.649 -15.741  -0.311  0.00  0.00     0.003 A 
ATOM     19  C   UNL d   1      28.677 -14.880  -1.413  0.00  0.00     0.030 A 
ATOM     20  C   UNL d   1      27.591 -14.923  -2.298  0.00  0.00     0.043 A 
ATOM     21  N   UNL d   1      27.367 -14.216  -3.460  0.00  0.00    -0.365 N 
ATOM     22  C   UNL d   1      26.489 -15.765  -2.105  0.00  0.00     0.006 A 
ATOM     23  C   UNL d   1      26.190 -14.615  -4.036  0.00  0.00     0.089 A 
ATOM     24  H   UNL d   1      27.995 -13.523  -3.842  0.00  0.00     0.165 HD
ATOM     25  C   UNL d   1      25.615 -15.551  -3.210  0.00  0.00     0.031 A 
ENDBRANCH   3  16
TORSDOF 6
ENDMDL
MODEL 3
REMARK VINA RESULT:    -7.480      4.338      8.606
REMARK INTER + INTRA:         -11.232
REMARK INTER:                  -9.270
REMARK INTRA:                  -1.962
REMARK CONF_INDEPENDENT:        1.790
REMARK UNBOUND:                -1.962
REMARK  6 active torsions:
REMARK  status: ('A' for Active; 'I' for Inactive)
REMARK    1  A    between atoms: CA_3  and  C_2 
REMARK    2  A    between atoms: CA_3  and  N_6 
REMARK    3  A    between atoms: CA_3  and  C_4 
REMARK    4  A    between atoms: C_4  and  O_5 
REMARK       I    between atoms: N_6  and  C_7 
REMARK    5  A    between atoms: C_7  and  C_9 
REMARK    6  A    between atoms: C_11  and  C_12 
ROOT
ATOM      1  C   UNL d   1      25.959 -13.349  -2.992  0.00  0.00     0.264 A 
ATOM      2  N   UNL d   1      26.444 -14.101  -2.024  0.00  0.00    -0.195 NA
ATOM      3  C   UNL d   1      25.660 -15.241  -2.118  0.00  0.00     0.190 A 
ATOM      4  N   UNL d   1      24.778 -15.220  -3.130  0.00  0.00    -0.105 NA
ATOM      5  O   UNL d   1      24.953 -13.954  -3.692  0.00  0.00    -0.185 OA
ENDROOT
BRANCH   1   6
ATOM      6  C   UNL d   1      26.324 -11.984  -3.342  0.00  0.00     0.297 C 
ATOM      7  N   UNL d   1      25.625 -11.410  -4.405  0.00  0.00    -0.347 N 
ATOM      8  H   UNL d   1      24.909 -11.978  -4.846  0.00  0.00     0.163 HD
ATOM      9  O   UNL d   1      27.182 -11.358  -2.727  0.00  0.00    -0.264 OA
BRANCH   7  10
ATOM     10  CA  UNL d   1      25.821 -10.000  -4.862  0.00  0.00     0.108 C 
BRANCH  10  11
ATOM     11  C   UNL d   1      25.369  -9.851  -6.337  0.00  0.00     0.189 C 
BRANCH  11  12
ATOM     12  O   UNL d   1      24.859 -11.051  -6.895  0.00  0.00    -0.399 OA
ATOM     13  H   UNL d   1      24.405 -11.510  -6.168  0.00  0.00     0.209 HD
ENDBRANCH  11  12
ENDBRANCH  10  11
BRANCH  10  14
ATOM     14  C   UNL d   1      25.156  -9.020  -3.853  0.00  0.00     0.023 C 
ATOM     15  C   UNL d   1      25.777  -8.694  -2.495  0.00  0.00     0.007 C 
ENDBRANCH  10  14
ENDBRANCH   7  10
ENDBRANCH   1   6
BRANCH   3  16
ATOM     16  C   UNL d   1      25.779 -16.337  -1.174  0.00  0.00     0.026 A 
ATOM     17  C   UNL d   1      27.004 -16.633  -0.556  0.00  0.00     0.016 A 
ATOM     18  C   UNL d   1      27.127 -17.727   0.301  0.00  0.00     0.003 A 
ATOM     19  C   UNL d   1      26.038 -18.567   0.559  0.00  0.00     0.030 A 
ATOM     20  C   UNL d   1      24.812 -18.242  -0.037  0.00  0.00     0.043 A 
ATOM     21  N   UNL d   1      23.587 -18.867   0.060  0.00  0.00    -0.365 N 
ATOM     22  C   UNL d   1      24.651 -17.140  -0.885  0.00  0.00     0.006 A 
ATOM     23  C   UNL d   1      22.646 -18.174  -0.654  0.00  0.00     0.089 A 
ATOM     24  H   UNL d   1      23.408 -19.701   0.601  0.00  0.00     0.165 HD
ATOM     25  C   UNL d   1      23.277 -17.118  -1.267  0.00  0.00     0.031 A 
ENDBRANCH   3  16
TORSDOF 6
ENDMDL
MODEL 4
REMARK VINA RESULT:    -7.417      4.511      8.949
REMARK INTER + INTRA:         -10.644
REMARK INTER:                  -9.207
REMARK INTRA:                  -1.438
REMARK CONF_INDEPENDENT:        1.790
REMARK UNBOUND:                -1.438
REMARK  6 active torsions:
REMARK  status: ('A' for Active; 'I' for Inactive)
REMARK    1  A    between atoms: CA_3  and  C_2 
REMARK    2  A    between atoms: CA_3  and  N_6 
REMARK    3  A    between atoms: CA_3  and  C_4 
REMARK    4  A    between atoms: C_4  and  O_5 
REMARK       I    between atoms: N_6  and  C_7 
REMARK    5  A    between atoms: C_7  and  C_9 
REMARK    6  A    between atoms: C_11  and  C_12 
ROOT
ATOM      1  C   UNL d   1      26.013 -13.370  -3.464  0.00  0.00     0.264 A 
ATOM      2  N   UNL d   1      26.538 -14.046  -2.462  0.00  0.00    -0.195 NA
ATOM      3  C   UNL d   1      25.724 -15.167  -2.406  0.00  0.00     0.190 A 
ATOM      4  N   UNL d   1      24.783 -15.212  -3.363  0.00  0.00    -0.105 NA
ATOM      5  O   UNL d   1      24.953 -14.005  -4.047  0.00  0.00    -0.185 OA
ENDROOT
BRANCH   1   6
ATOM      6  C   UNL d   1      26.388 -12.052  -3.957  0.00  0.00     0.297 C 
ATOM      7  N   UNL d   1      25.532 -11.477  -4.899  0.00  0.00    -0.347 N 
ATOM      8  H   UNL d   1      24.709 -12.011  -5.160  0.00  0.00     0.163 HD
ATOM      9  O   UNL d   1      27.386 -11.463  -3.556  0.00  0.00    -0.264 OA
BRANCH   7  10
ATOM     10  CA  UNL d   1      25.723 -10.108  -5.467  0.00  0.00     0.108 C 
BRANCH  10  11
ATOM     11  C   UNL d   1      25.882  -9.075  -4.322  0.00  0.00     0.189 C 
BRANCH  11  12
ATOM     12  O   UNL d   1      25.162  -9.416  -3.150  0.00  0.00    -0.399 OA
ATOM     13  H   UNL d   1      24.400  -8.813  -3.120  0.00  0.00     0.209 HD
ENDBRANCH  11  12
ENDBRANCH  10  11
BRANCH  10  14
ATOM     14  C   UNL d   1      26.870 -10.128  -6.518  0.00  0.00     0.023 C 
ATOM     15  C   UNL d   1      26.704 -10.758  -7.901  0.00  0.00     0.007 C 
ENDBRANCH  10  14
ENDBRANCH   7  10
ENDBRANCH   1   6
BRANCH   3  16
ATOM     16  C   UNL d   1      25.875 -16.178  -1.376  0.00  0.00     0.026 A 
ATOM     17  C   UNL d   1      27.126 -16.443  -0.797  0.00  0.00     0.016 A 
ATOM     18  C   UNL d   1      27.276 -17.460   0.146  0.00  0.00     0.003 A 
ATOM     19  C   UNL d   1      26.189 -18.250   0.534  0.00  0.00     0.030 A 
ATOM     20  C   UNL d   1      24.938 -17.953  -0.024  0.00  0.00     0.043 A 
ATOM     21  N   UNL d   1      23.710 -18.541   0.191  0.00  0.00    -0.365 N 
ATOM     22  C   UNL d   1      24.750 -16.927  -0.958  0.00  0.00     0.006 A 
ATOM     23  C   UNL d   1      22.744 -17.895  -0.532  0.00  0.00     0.089 A 
ATOM     24  H   UNL d   1      23.547 -19.320   0.813  0.00  0.00     0.165 HD
ATOM     25  C   UNL d   1      23.359 -16.910  -1.269  0.00  0.00     0.031 A 
ENDBRANCH   3  16
TORSDOF 6
ENDMDL
MODEL 5
REMARK VINA RESULT:    -7.296      4.416      8.953
REMARK INTER + INTRA:         -10.851
REMARK INTER:                  -9.086
REMARK INTRA:                  -1.765
REMARK CONF_INDEPENDENT:        1.790
REMARK UNBOUND:                -1.765
REMARK  6 active torsions:
REMARK  status: ('A' for Active; 'I' for Inactive)
REMARK    1  A    between atoms: CA_3  and  C_2 
REMARK    2  A    between atoms: CA_3  and  N_6 
REMARK    3  A    between atoms: CA_3  and  C_4 
REMARK    4  A    between atoms: C_4  and  O_5 
REMARK       I    between atoms: N_6  and  C_7 
REMARK    5  A    between atoms: C_7  and  C_9 
REMARK    6  A    between atoms: C_11  and  C_12 
ROOT
ATOM      1  C   UNL d   1      25.853 -14.212  -4.190  0.00  0.00     0.264 A 
ATOM      2  N   UNL d   1      26.414 -15.171  -3.481  0.00  0.00    -0.195 NA
ATOM      3  C   UNL d   1      25.410 -15.501  -2.585  0.00  0.00     0.190 A 
ATOM      4  N   UNL d   1      24.264 -14.825  -2.769  0.00  0.00    -0.105 NA
ATOM      5  O   UNL d   1      24.565 -13.948  -3.814  0.00  0.00    -0.185 OA
ENDROOT
BRANCH   1   6
ATOM      6  C   UNL d   1      26.447 -13.403  -5.244  0.00  0.00     0.297 C 
ATOM      7  N   UNL d   1      25.908 -12.127  -5.422  0.00  0.00    -0.347 N 
ATOM      8  H   UNL d   1      25.155 -11.853  -4.800  0.00  0.00     0.163 HD
ATOM      9  O   UNL d   1      27.384 -13.804  -5.927  0.00  0.00    -0.264 OA
BRANCH   7  10
ATOM     10  CA  UNL d   1      26.432 -11.136  -6.412  0.00  0.00     0.108 C 
BRANCH  10  11
ATOM     11  C   UNL d   1      25.841  -9.733  -6.123  0.00  0.00     0.189 C 
BRANCH  11  12
ATOM     12  O   UNL d   1      25.135  -9.659  -4.896  0.00  0.00    -0.399 OA
ATOM     13  H   UNL d   1      24.427 -10.323  -4.957  0.00  0.00     0.209 HD
ENDBRANCH  11  12
ENDBRANCH  10  11
BRANCH  10  14
ATOM     14  C   UNL d   1      27.985 -11.213  -6.464  0.00  0.00     0.023 C 
ATOM     15  C   UNL d   1      28.742 -11.692  -7.703  0.00  0.00     0.007 C 
ENDBRANCH  10  14
ENDBRANCH   7  10
ENDBRANCH   1   6
BRANCH   3  16
ATOM     16  C   UNL d   1      25.611 -16.474  -1.527  0.00  0.00     0.026 A 
ATOM     17  C   UNL d   1      26.889 -16.721  -1.002  0.00  0.00     0.016 A 
ATOM     18  C   UNL d   1      27.086 -17.704  -0.031  0.00  0.00     0.003 A 
ATOM     19  C   UNL d   1      26.019 -18.477   0.439  0.00  0.00     0.030 A 
ATOM     20  C   UNL d   1      24.742 -18.198  -0.067  0.00  0.00     0.043 A 
ATOM     21  N   UNL d   1      23.526 -18.776   0.229  0.00  0.00    -0.365 N 
ATOM     22  C   UNL d   1      24.509 -17.206  -1.027  0.00  0.00     0.006 A 
ATOM     23  C   UNL d   1      22.526 -18.154  -0.468  0.00  0.00     0.089 A 
ATOM     24  H   UNL d   1      23.393 -19.531   0.886  0.00  0.00     0.165 HD
ATOM     25  C   UNL d   1      23.104 -17.198  -1.270  0.00  0.00     0.031 A 
ENDBRANCH   3  16
TORSDOF 6
ENDMDL
MODEL 6
REMARK VINA RESULT:    -7.209      0.961      2.076
REMARK INTER + INTRA:         -10.599
REMARK INTER:                  -8.998
REMARK INTRA:                  -1.601
REMARK CONF_INDEPENDENT:        1.790
REMARK UNBOUND:                -1.601
REMARK  6 active torsions:
REMARK  status: ('A' for Active; 'I' for Inactive)
REMARK    1  A    between atoms: CA_3  and  C_2 
REMARK    2  A    between atoms: CA_3  and  N_6 
REMARK    3  A    between atoms: CA_3  and  C_4 
REMARK    4  A    between atoms: C_4  and  O_5 
REMARK       I    between atoms: N_6  and  C_7 
REMARK    5  A    between atoms: C_7  and  C_9 
REMARK    6  A    between atoms: C_11  and  C_12 
ROOT
ATOM      1  C   UNL d   1      21.531 -18.751  -1.126  0.00  0.00     0.264 A 
ATOM      2  N   UNL d   1      22.223 -17.777  -0.570  0.00  0.00    -0.195 NA
ATOM      3  C   UNL d   1      23.383 -17.769  -1.328  0.00  0.00     0.190 A 
ATOM      4  N   UNL d   1      23.384 -18.651  -2.340  0.00  0.00    -0.105 NA
ATOM      5  O   UNL d   1      22.170 -19.325  -2.190  0.00  0.00    -0.185 OA
ENDROOT
BRANCH   1   6
ATOM      6  C   UNL d   1      20.246 -19.295  -0.714  0.00  0.00     0.297 C 
ATOM      7  N   UNL d   1      20.065 -19.484   0.658  0.00  0.00    -0.347 N 
ATOM      8  H   UNL d   1      20.834 -19.219   1.265  0.00  0.00     0.163 HD
ATOM      9  O   UNL d   1      19.356 -19.553  -1.518  0.00  0.00    -0.264 OA
BRANCH   7  10
ATOM     10  CA  UNL d   1      18.790 -19.972   1.267  0.00  0.00     0.108 C 
BRANCH  10  11
ATOM     11  C   UNL d   1      18.317 -21.262   0.548  0.00  0.00     0.189 C 
BRANCH  11  12
ATOM     12  O   UNL d   1      17.431 -21.013  -0.531  0.00  0.00    -0.399 OA
ATOM     13  H   UNL d   1      17.534 -20.071  -0.748  0.00  0.00     0.209 HD
ENDBRANCH  11  12
ENDBRANCH  10  11
BRANCH  10  14
ATOM     14  C   UNL d   1      18.951 -20.085   2.810  0.00  0.00     0.023 C 
ATOM     15  C   UNL d   1      20.280 -20.449   3.472  0.00  0.00     0.007 C 
ENDBRANCH  10  14
ENDBRANCH   7  10
ENDBRANCH   1   6
BRANCH   3  16
ATOM     16  C   UNL d   1      24.500 -16.896  -1.018  0.00  0.00     0.026 A 
ATOM     17  C   UNL d   1      24.566 -15.592  -1.533  0.00  0.00     0.016 A 
ATOM     18  C   UNL d   1      25.674 -14.781  -1.284  0.00  0.00     0.003 A 
ATOM     19  C   UNL d   1      26.753 -15.246  -0.527  0.00  0.00     0.030 A 
ATOM     20  C   UNL d   1      26.661 -16.537   0.010  0.00  0.00     0.043 A 
ATOM     21  N   UNL d   1      27.549 -17.233   0.802  0.00  0.00    -0.365 N 
ATOM     22  C   UNL d   1      25.555 -17.369  -0.204  0.00  0.00     0.006 A 
ATOM     23  C   UNL d   1      27.027 -18.452   1.139  0.00  0.00     0.089 A 
ATOM     24  H   UNL d   1      28.445 -16.880   1.109  0.00  0.00     0.165 HD
ATOM     25  C   UNL d   1      25.809 -18.575   0.514  0.00  0.00     0.031 A 
ENDBRANCH   3  16
TORSDOF 6
ENDMDL
MODEL 7
REMARK VINA RESULT:    -6.901      4.512      9.140
REMARK INTER + INTRA:         -10.221
REMARK INTER:                  -8.690
REMARK INTRA:                  -1.530
REMARK CONF_INDEPENDENT:        1.790
REMARK UNBOUND:                -1.530
REMARK  6 active torsions:
REMARK  status: ('A' for Active; 'I' for Inactive)
REMARK    1  A    between atoms: CA_3  and  C_2 
REMARK    2  A    between atoms: CA_3  and  N_6 
REMARK    3  A    between atoms: CA_3  and  C_4 
REMARK    4  A    between atoms: C_4  and  O_5 
REMARK       I    between atoms: N_6  and  C_7 
REMARK    5  A    between atoms: C_7  and  C_9 
REMARK    6  A    between atoms: C_11  and  C_12 
ROOT
ATOM      1  C   UNL d   1      25.790 -13.723  -3.991  0.00  0.00     0.264 A 
ATOM      2  N   UNL d   1      26.437 -14.576  -3.222  0.00  0.00    -0.195 NA
ATOM      3  C   UNL d   1      25.402 -15.217  -2.560  0.00  0.00     0.190 A 
ATOM      4  N   UNL d   1      24.177 -14.825  -2.943  0.00  0.00    -0.105 NA
ATOM      5  O   UNL d   1      24.432 -13.812  -3.870  0.00  0.00    -0.185 OA
ENDROOT
BRANCH   1   6
ATOM      6  C   UNL d   1      26.343 -12.704  -4.871  0.00  0.00     0.297 C 
ATOM      7  N   UNL d   1      27.390 -13.106  -5.703  0.00  0.00    -0.347 N 
ATOM      8  H   UNL d   1      27.679 -14.077  -5.643  0.00  0.00     0.163 HD
ATOM      9  O   UNL d   1      25.904 -11.559  -4.903  0.00  0.00    -0.264 OA
BRANCH   7  10
ATOM     10  CA  UNL d   1      28.035 -12.214  -6.714  0.00  0.00     0.108 C 
BRANCH  10  11
ATOM     11  C   UNL d   1      29.050 -13.021  -7.564  0.00  0.00     0.189 C 
BRANCH  11  12
ATOM     12  O   UNL d   1      28.943 -14.424  -7.390  0.00  0.00    -0.399 OA
ATOM     13  H   UNL d   1      28.883 -14.799  -8.285  0.00  0.00     0.209 HD
ENDBRANCH  11  12
ENDBRANCH  10  11
BRANCH  10  14
ATOM     14  C   UNL d   1      26.944 -11.449  -7.517  0.00  0.00     0.023 C 
ATOM     15  C   UNL d   1      27.130 -11.054  -8.982  0.00  0.00     0.007 C 
ENDBRANCH  10  14
ENDBRANCH   7  10
ENDBRANCH   1   6
BRANCH   3  16
ATOM     16  C   UNL d   1      25.646 -16.203  -1.522  0.00  0.00     0.026 A 
ATOM     17  C   UNL d   1      26.939 -16.426  -1.023  0.00  0.00     0.016 A 
ATOM     18  C   UNL d   1      27.176 -17.419  -0.072  0.00  0.00     0.003 A 
ATOM     19  C   UNL d   1      26.138 -18.228   0.401  0.00  0.00     0.030 A 
ATOM     20  C   UNL d   1      24.846 -17.973  -0.079  0.00  0.00     0.043 A 
ATOM     21  N   UNL d   1      23.650 -18.586   0.227  0.00  0.00    -0.365 N 
ATOM     22  C   UNL d   1      24.571 -16.971  -1.017  0.00  0.00     0.006 A 
ATOM     23  C   UNL d   1      22.623 -17.979  -0.443  0.00  0.00     0.089 A 
ATOM     24  H   UNL d   1      23.547 -19.356   0.873  0.00  0.00     0.165 HD
ATOM     25  C   UNL d   1      23.162 -16.995  -1.237  0.00  0.00     0.031 A 
ENDBRANCH   3  16
TORSDOF 6
ENDMDL
MODEL 8
REMARK VINA RESULT:    -6.621      4.754      8.827
REMARK INTER + INTRA:         -10.424
REMARK INTER:                  -8.410
REMARK INTRA:                  -2.014
REMARK CONF_INDEPENDENT:        1.790
REMARK UNBOUND:                -2.014
REMARK  6 active torsions:
REMARK  status: ('A' for Active; 'I' for Inactive)
REMARK    1  A    between atoms: CA_3  and  C_2 
REMARK    2  A    between atoms: CA_3  and  N_6 
REMARK    3  A    between atoms: CA_3  and  C_4 
REMARK    4  A    between atoms: C_4  and  O_5 
REMARK       I    between atoms: N_6  and  C_7 
REMARK    5  A    between atoms: C_7  and  C_9 
REMARK    6  A    between atoms: C_11  and  C_12 
ROOT
ATOM      1  C   UNL d   1      25.676 -13.208  -3.134  0.00  0.00     0.264 A 
ATOM      2  N   UNL d   1      25.756 -13.917  -2.027  0.00  0.00    -0.195 NA
ATOM      3  C   UNL d   1      25.156 -15.111  -2.398  0.00  0.00     0.190 A 
ATOM      4  N   UNL d   1      24.780 -15.159  -3.686  0.00  0.00    -0.105 NA
ATOM      5  O   UNL d   1      25.096 -13.887  -4.169  0.00  0.00    -0.185 OA
ENDROOT
BRANCH   1   6
ATOM      6  C   UNL d   1      26.069 -11.823  -3.348  0.00  0.00     0.297 C 
ATOM      7  N   UNL d   1      25.657 -11.241  -4.549  0.00  0.00    -0.347 N 
ATOM      8  H   UNL d   1      25.106 -11.818  -5.176  0.00  0.00     0.163 HD
ATOM      9  O   UNL d   1      26.707 -11.187  -2.515  0.00  0.00    -0.264 OA
BRANCH   7  10
ATOM     10  CA  UNL d   1      25.914  -9.813  -4.910  0.00  0.00     0.108 C 
BRANCH  10  11
ATOM     11  C   UNL d   1      25.814  -9.627  -6.446  0.00  0.00     0.189 C 
BRANCH  11  12
ATOM     12  O   UNL d   1      25.228 -10.733  -7.111  0.00  0.00    -0.399 OA
ATOM     13  H   UNL d   1      24.544 -11.073  -6.510  0.00  0.00     0.209 HD
ENDBRANCH  11  12
ENDBRANCH  10  11
BRANCH  10  14
ATOM     14  C   UNL d   1      25.005  -8.881  -4.059  0.00  0.00     0.023 C 
ATOM     15  C   UNL d   1      24.318  -7.648  -4.645  0.00  0.00     0.007 C 
ENDBRANCH  10  14
ENDBRANCH   7  10
ENDBRANCH   1   6
BRANCH   3  16
ATOM     16  C   UNL d   1      24.936 -16.189  -1.453  0.00  0.00     0.026 A 
ATOM     17  C   UNL d   1      23.637 -16.586  -1.095  0.00  0.00     0.016 A 
ATOM     18  C   UNL d   1      23.432 -17.579  -0.137  0.00  0.00     0.003 A 
ATOM     19  C   UNL d   1      24.511 -18.199   0.502  0.00  0.00     0.030 A 
ATOM     20  C   UNL d   1      25.802 -17.820   0.112  0.00  0.00     0.043 A 
ATOM     21  N   UNL d   1      27.029 -18.274   0.547  0.00  0.00    -0.365 N 
ATOM     22  C   UNL d   1      26.042 -16.841  -0.860  0.00  0.00     0.006 A 
ATOM     23  C   UNL d   1      28.034 -17.657  -0.147  0.00  0.00     0.089 A 
ATOM     24  H   UNL d   1      27.162 -18.979   1.258  0.00  0.00     0.165 HD
ATOM     25  C   UNL d   1      27.458 -16.750  -1.005  0.00  0.00     0.031 A 
ENDBRANCH   3  16
TORSDOF 6
ENDMDL
MODEL 9
REMARK VINA RESULT:    -6.497      4.485      8.678
REMARK INTER + INTRA:         -10.280
REMARK INTER:                  -8.287
REMARK INTRA:                  -1.993
REMARK CONF_INDEPENDENT:        1.790
REMARK UNBOUND:                -1.993
REMARK  6 active torsions:
REMARK  status: ('A' for Active; 'I' for Inactive)
REMARK    1  A    between atoms: CA_3  and  C_2 
REMARK    2  A    between atoms: CA_3  and  N_6 
REMARK    3  A    between atoms: CA_3  and  C_4 
REMARK    4  A    between atoms: C_4  and  O_5 
REMARK       I    between atoms: N_6  and  C_7 
REMARK    5  A    between atoms: C_7  and  C_9 
REMARK    6  A    between atoms: C_11  and  C_12 
ROOT
ATOM      1  C   UNL d   1      25.668 -14.676  -4.150  0.00  0.00     0.264 A 
ATOM      2  N   UNL d   1      25.820 -15.796  -3.473  0.00  0.00    -0.195 NA
ATOM      3  C   UNL d   1      24.782 -15.727  -2.556  0.00  0.00     0.190 A 
ATOM      4  N   UNL d   1      23.993 -14.650  -2.698  0.00  0.00    -0.105 NA
ATOM      5  O   UNL d   1      24.597 -13.936  -3.736  0.00  0.00    -0.185 OA
ENDROOT
BRANCH   1   6
ATOM      6  C   UNL d   1      26.515 -14.140  -5.206  0.00  0.00     0.297 C 
ATOM      7  N   UNL d   1      26.399 -12.771  -5.457  0.00  0.00    -0.347 N 
ATOM      8  H   UNL d   1      25.746 -12.250  -4.880  0.00  0.00     0.163 HD
ATOM      9  O   UNL d   1      27.305 -14.840  -5.830  0.00  0.00    -0.264 OA
BRANCH   7  10
ATOM     10  CA  UNL d   1      27.232 -12.038  -6.459  0.00  0.00     0.108 C 
BRANCH  10  11
ATOM     11  C   UNL d   1      26.502 -10.748  -6.915  0.00  0.00     0.189 C 
BRANCH  11  12
ATOM     12  O   UNL d   1      25.364 -10.436  -6.129  0.00  0.00    -0.399 OA
ATOM     13  H   UNL d   1      24.794 -11.222  -6.164  0.00  0.00     0.209 HD
ENDBRANCH  11  12
ENDBRANCH  10  11
BRANCH  10  14
ATOM     14  C   UNL d   1      28.670 -11.835  -5.902  0.00  0.00     0.023 C 
ATOM     15  C   UNL d   1      29.170 -12.541  -4.642  0.00  0.00     0.007 C 
ENDBRANCH  10  14
ENDBRANCH   7  10
ENDBRANCH   1   6
BRANCH   3  16
ATOM     16  C   UNL d   1      24.602 -16.727  -1.519  0.00  0.00     0.026 A 
ATOM     17  C   UNL d   1      23.324 -17.206  -1.188  0.00  0.00     0.016 A 
ATOM     18  C   UNL d   1      23.151 -18.119  -0.147  0.00  0.00     0.003 A 
ATOM     19  C   UNL d   1      24.241 -18.573   0.603  0.00  0.00     0.030 A 
ATOM     20  C   UNL d   1      25.515 -18.115   0.240  0.00  0.00     0.043 A 
ATOM     21  N   UNL d   1      26.749 -18.411   0.778  0.00  0.00    -0.365 N 
ATOM     22  C   UNL d   1      25.725 -17.215  -0.811  0.00  0.00     0.006 A 
ATOM     23  C   UNL d   1      27.736 -17.772   0.076  0.00  0.00     0.089 A 
ATOM     24  H   UNL d   1      26.901 -19.030   1.562  0.00  0.00     0.165 HD
ATOM     25  C   UNL d   1      27.133 -17.008  -0.895  0.00  0.00     0.031 A 
ENDBRANCH   3  16
TORSDOF 6
ENDMDL
