MODEL 1
REMARK VINA RESULT:    -7.908      0.000      0.000
REMARK INTER + INTRA:         -10.754
REMARK INTER:                  -9.399
REMARK INTRA:                  -1.355
REMARK CONF_INDEPENDENT:        1.492
REMARK UNBOUND:                -1.355
REMARK  5 active torsions:
REMARK  status: ('A' for Active; 'I' for Inactive)
REMARK       I    between atoms: C_2  and  N_3 
REMARK    1  A    between atoms: C_2  and  C_15 
REMARK    2  A    between atoms: N_3  and  N_4 
REMARK    3  A    between atoms: N_4  and  C_5 
REMARK    4  A    between atoms: C_10  and  C_11 
REMARK    5  A    between atoms: C_20  and  O_21 
ROOT
ATOM      1  O   UNL d   1      21.122 -17.531  -1.209  0.00  0.00    -0.266 OA
ATOM      2  C   UNL d   1      21.412 -18.444  -0.431  0.00  0.00     0.272 C 
ATOM      3  N   UNL d   1      22.743 -18.763  -0.129  0.00  0.00    -0.265 N 
ATOM      4  H   UNL d   1      22.910 -19.698   0.232  0.00  0.00     0.190 HD
ENDROOT
BRANCH   3   5
ATOM      5  N   UNL d   1      23.698 -18.294  -1.060  0.00  0.00    -0.297 N 
ATOM      6  H   UNL d   1      23.315 -17.967  -1.949  0.00  0.00     0.187 HD
BRANCH   5   7
ATOM      7  C   UNL d   1      24.946 -17.844  -0.607  0.00  0.00     0.063 A 
ATOM      8  C   UNL d   1      25.627 -18.575   0.390  0.00  0.00     0.032 A 
ATOM      9  C   UNL d   1      26.838 -18.127   0.942  0.00  0.00     0.002 A 
ATOM     10  C   UNL d   1      27.435 -16.971   0.460  0.00  0.00     0.001 A 
ATOM     11  C   UNL d   1      26.793 -16.246  -0.538  0.00  0.00     0.018 A 
ATOM     12  C   UNL d   1      25.552 -16.666  -1.079  0.00  0.00     0.075 A 
BRANCH  12  13
ATOM     13  C   UNL d   1      24.939 -15.767  -2.122  0.00  0.00     0.419 C 
ATOM     14  F   UNL d   1      23.587 -15.660  -1.997  0.00  0.00    -0.166 F 
ATOM     15  F   UNL d   1      25.423 -14.495  -2.006  0.00  0.00    -0.166 F 
ATOM     16  F   UNL d   1      25.155 -16.093  -3.424  0.00  0.00    -0.166 F 
ENDBRANCH  12  13
ENDBRANCH   5   7
ENDBRANCH   3   5
BRANCH   2  17
ATOM     17  C   UNL d   1      20.363 -19.302   0.222  0.00  0.00     0.066 A 
ATOM     18  C   UNL d   1      20.397 -19.538   1.608  0.00  0.00     0.020 A 
ATOM     19  C   UNL d   1      19.504 -20.441   2.201  0.00  0.00     0.001 A 
ATOM     20  C   UNL d   1      18.514 -21.054   1.435  0.00  0.00     0.003 A 
ATOM     21  C   UNL d   1      18.428 -20.783   0.070  0.00  0.00     0.037 A 
ATOM     22  C   UNL d   1      19.350 -19.915  -0.532  0.00  0.00     0.081 A 
BRANCH  22  23
ATOM     23  O   UNL d   1      19.264 -19.700  -1.880  0.00  0.00    -0.360 OA
ATOM     24  H   UNL d   1      20.011 -19.164  -2.186  0.00  0.00     0.217 HD
ENDBRANCH  22  23
ENDBRANCH   2  17
TORSDOF 5
ENDMDL
MODEL 2
REMARK VINA RESULT:    -7.324      2.000      2.652
REMARK INTER + INTRA:          -9.288
REMARK INTER:                  -8.816
REMARK INTRA:                  -0.472
REMARK CONF_INDEPENDENT:        1.492
REMARK UNBOUND:                -0.472
REMARK  5 active torsions:
REMARK  status: ('A' for Active; 'I' for Inactive)
REMARK       I    between atoms: C_2  and  N_3 
REMARK    1  A    between atoms: C_2  and  C_15 
REMARK    2  A    between atoms: N_3  and  N_4 
REMARK    3  A    between atoms: N_4  and  C_5 
REMARK    4  A    between atoms: C_10  and  C_11 
REMARK    5  A    between atoms: C_20  and  O_21 
ROOT
ATOM      1  O   UNL d   1      21.631 -17.475  -1.055  0.00  0.00    -0.266 OA
ATOM      2  C   UNL d   1      21.813 -18.495  -0.385  0.00  0.00     0.272 C 
ATOM      3  N   UNL d   1      23.084 -19.067  -0.239  0.00  0.00    -0.265 N 
ATOM      4  H   UNL d   1      23.109 -20.047   0.027  0.00  0.00     0.190 HD
ENDROOT
BRANCH   3   5
ATOM      5  N   UNL d   1      24.031 -18.682  -1.216  0.00  0.00    -0.297 N 
ATOM      6  H   UNL d   1      23.953 -19.169  -2.113  0.00  0.00     0.187 HD
BRANCH   5   7
ATOM      7  C   UNL d   1      24.643 -17.424  -1.133  0.00  0.00     0.063 A 
ATOM      8  C   UNL d   1      24.217 -16.388  -1.990  0.00  0.00     0.032 A 
ATOM      9  C   UNL d   1      24.850 -15.134  -2.010  0.00  0.00     0.002 A 
ATOM     10  C   UNL d   1      25.880 -14.862  -1.122  0.00  0.00     0.001 A 
ATOM     11  C   UNL d   1      26.303 -15.862  -0.253  0.00  0.00     0.018 A 
ATOM     12  C   UNL d   1      25.698 -17.144  -0.246  0.00  0.00     0.075 A 
BRANCH  12  13
ATOM     13  C   UNL d   1      26.279 -18.152   0.713  0.00  0.00     0.419 C 
ATOM     14  F   UNL d   1      26.707 -19.285   0.090  0.00  0.00    -0.166 F 
ATOM     15  F   UNL d   1      27.377 -17.639   1.343  0.00  0.00    -0.166 F 
ATOM     16  F   UNL d   1      25.477 -18.578   1.723  0.00  0.00    -0.166 F 
ENDBRANCH  12  13
ENDBRANCH   5   7
ENDBRANCH   3   5
BRANCH   2  17
ATOM     17  C   UNL d   1      20.683 -19.218   0.294  0.00  0.00     0.066 A 
ATOM     18  C   UNL d   1      20.657 -19.346   1.694  0.00  0.00     0.020 A 
ATOM     19  C   UNL d   1      19.680 -20.130   2.322  0.00  0.00     0.001 A 
ATOM     20  C   UNL d   1      18.669 -20.726   1.571  0.00  0.00     0.003 A 
ATOM     21  C   UNL d   1      18.644 -20.558   0.187  0.00  0.00     0.037 A 
ATOM     22  C   UNL d   1      19.647 -19.812  -0.447  0.00  0.00     0.081 A 
BRANCH  22  23
ATOM     23  O   UNL d   1      19.618 -19.698  -1.809  0.00  0.00    -0.360 OA
ATOM     24  H   UNL d   1      18.772 -19.324  -2.100  0.00  0.00     0.217 HD
ENDBRANCH  22  23
ENDBRANCH   2  17
TORSDOF 5
ENDMDL
MODEL 3
REMARK VINA RESULT:    -6.198      3.966      7.792
REMARK INTER + INTRA:          -8.914
REMARK INTER:                  -7.689
REMARK INTRA:                  -1.225
REMARK CONF_INDEPENDENT:        1.492
REMARK UNBOUND:                -1.225
REMARK  5 active torsions:
REMARK  status: ('A' for Active; 'I' for Inactive)
REMARK       I    between atoms: C_2  and  N_3 
REMARK    1  A    between atoms: C_2  and  C_15 
REMARK    2  A    between atoms: N_3  and  N_4 
REMARK    3  A    between atoms: N_4  and  C_5 
REMARK    4  A    between atoms: C_10  and  C_11 
REMARK    5  A    between atoms: C_20  and  O_21 
ROOT
ATOM      1  O   UNL d   1      24.036 -13.836  -4.088  0.00  0.00    -0.266 OA
ATOM      2  C   UNL d   1      25.204 -14.231  -4.158  0.00  0.00     0.272 C 
ATOM      3  N   UNL d   1      25.659 -15.330  -3.417  0.00  0.00    -0.265 N 
ATOM      4  H   UNL d   1      26.662 -15.386  -3.267  0.00  0.00     0.190 HD
ENDROOT
BRANCH   3   5
ATOM      5  N   UNL d   1      24.860 -15.674  -2.303  0.00  0.00    -0.297 N 
ATOM      6  H   UNL d   1      23.850 -15.613  -2.455  0.00  0.00     0.187 HD
BRANCH   5   7
ATOM      7  C   UNL d   1      25.386 -16.502  -1.301  0.00  0.00     0.063 A 
ATOM      8  C   UNL d   1      26.778 -16.518  -1.075  0.00  0.00     0.032 A 
ATOM      9  C   UNL d   1      27.369 -17.388  -0.145  0.00  0.00     0.002 A 
ATOM     10  C   UNL d   1      26.573 -18.215   0.635  0.00  0.00     0.001 A 
ATOM     11  C   UNL d   1      25.196 -18.200   0.445  0.00  0.00     0.018 A 
ATOM     12  C   UNL d   1      24.587 -17.354  -0.516  0.00  0.00     0.075 A 
BRANCH  12  13
ATOM     13  C   UNL d   1      23.091 -17.466  -0.655  0.00  0.00     0.419 C 
ATOM     14  F   UNL d   1      22.717 -18.325  -1.644  0.00  0.00    -0.166 F 
ATOM     15  F   UNL d   1      22.537 -17.960   0.493  0.00  0.00    -0.166 F 
ATOM     16  F   UNL d   1      22.404 -16.319  -0.895  0.00  0.00    -0.166 F 
ENDBRANCH  12  13
ENDBRANCH   5   7
ENDBRANCH   3   5
BRANCH   2  17
ATOM     17  C   UNL d   1      26.230 -13.542  -5.015  0.00  0.00     0.066 A 
ATOM     18  C   UNL d   1      26.107 -12.173  -5.314  0.00  0.00     0.020 A 
ATOM     19  C   UNL d   1      26.984 -11.557  -6.217  0.00  0.00     0.001 A 
ATOM     20  C   UNL d   1      28.043 -12.276  -6.767  0.00  0.00     0.003 A 
ATOM     21  C   UNL d   1      28.216 -13.618  -6.433  0.00  0.00     0.037 A 
ATOM     22  C   UNL d   1      27.313 -14.247  -5.565  0.00  0.00     0.081 A 
BRANCH  22  23
ATOM     23  O   UNL d   1      27.487 -15.575  -5.287  0.00  0.00    -0.360 OA
ATOM     24  H   UNL d   1      28.405 -15.751  -5.032  0.00  0.00     0.217 HD
ENDBRANCH  22  23
ENDBRANCH   2  17
TORSDOF 5
ENDMDL
MODEL 4
REMARK VINA RESULT:    -6.183      3.984      7.843
REMARK INTER + INTRA:          -9.056
REMARK INTER:                  -7.674
REMARK INTRA:                  -1.381
REMARK CONF_INDEPENDENT:        1.492
REMARK UNBOUND:                -1.381
REMARK  5 active torsions:
REMARK  status: ('A' for Active; 'I' for Inactive)
REMARK       I    between atoms: C_2  and  N_3 
REMARK    1  A    between atoms: C_2  and  C_15 
REMARK    2  A    between atoms: N_3  and  N_4 
REMARK    3  A    between atoms: N_4  and  C_5 
REMARK    4  A    between atoms: C_10  and  C_11 
REMARK    5  A    between atoms: C_20  and  O_21 
ROOT
ATOM      1  O   UNL d   1      24.337 -14.074  -4.140  0.00  0.00    -0.266 OA
ATOM      2  C   UNL d   1      25.508 -14.466  -4.142  0.00  0.00     0.272 C 
ATOM      3  N   UNL d   1      25.967 -15.429  -3.233  0.00  0.00    -0.265 N 
ATOM      4  H   UNL d   1      26.969 -15.453  -3.071  0.00  0.00     0.190 HD
ENDROOT
BRANCH   3   5
ATOM      5  N   UNL d   1      25.164 -15.597  -2.081  0.00  0.00    -0.297 N 
ATOM      6  H   UNL d   1      24.174 -15.373  -2.204  0.00  0.00     0.187 HD
BRANCH   5   7
ATOM      7  C   UNL d   1      25.583 -16.467  -1.064  0.00  0.00     0.063 A 
ATOM      8  C   UNL d   1      26.951 -16.530  -0.725  0.00  0.00     0.032 A 
ATOM      9  C   UNL d   1      27.438 -17.441   0.224  0.00  0.00     0.002 A 
ATOM     10  C   UNL d   1      26.559 -18.266   0.911  0.00  0.00     0.001 A 
ATOM     11  C   UNL d   1      25.203 -18.206   0.609  0.00  0.00     0.018 A 
ATOM     12  C   UNL d   1      24.700 -17.316  -0.373  0.00  0.00     0.075 A 
BRANCH  12  13
ATOM     13  C   UNL d   1      23.218 -17.382  -0.638  0.00  0.00     0.419 C 
ATOM     14  F   UNL d   1      22.905 -18.200  -1.681  0.00  0.00    -0.166 F 
ATOM     15  F   UNL d   1      22.557 -17.892   0.444  0.00  0.00    -0.166 F 
ATOM     16  F   UNL d   1      22.583 -16.209  -0.899  0.00  0.00    -0.166 F 
ENDBRANCH  12  13
ENDBRANCH   5   7
ENDBRANCH   3   5
BRANCH   2  17
ATOM     17  C   UNL d   1      26.534 -13.914  -5.093  0.00  0.00     0.066 A 
ATOM     18  C   UNL d   1      27.494 -14.761  -5.675  0.00  0.00     0.020 A 
ATOM     19  C   UNL d   1      28.532 -14.234  -6.456  0.00  0.00     0.001 A 
ATOM     20  C   UNL d   1      28.578 -12.870  -6.734  0.00  0.00     0.003 A 
ATOM     21  C   UNL d   1      27.598 -12.024  -6.215  0.00  0.00     0.037 A 
ATOM     22  C   UNL d   1      26.585 -12.544  -5.396  0.00  0.00     0.081 A 
BRANCH  22  23
ATOM     23  O   UNL d   1      25.662 -11.684  -4.870  0.00  0.00    -0.360 OA
ATOM     24  H   UNL d   1      24.781 -12.087  -4.876  0.00  0.00     0.217 HD
ENDBRANCH  22  23
ENDBRANCH   2  17
TORSDOF 5
ENDMDL
MODEL 5
REMARK VINA RESULT:    -5.973      4.558      7.627
REMARK INTER + INTRA:          -8.508
REMARK INTER:                  -7.464
REMARK INTRA:                  -1.044
REMARK CONF_INDEPENDENT:        1.492
REMARK UNBOUND:                -1.044
REMARK  5 active torsions:
REMARK  status: ('A' for Active; 'I' for Inactive)
REMARK       I    between atoms: C_2  and  N_3 
REMARK    1  A    between atoms: C_2  and  C_15 
REMARK    2  A    between atoms: N_3  and  N_4 
REMARK    3  A    between atoms: N_4  and  C_5 
REMARK    4  A    between atoms: C_10  and  C_11 
REMARK    5  A    between atoms: C_20  and  O_21 
ROOT
ATOM      1  O   UNL d   1      26.884 -13.707   1.058  0.00  0.00    -0.266 OA
ATOM      2  C   UNL d   1      27.811 -14.342   1.571  0.00  0.00     0.272 C 
ATOM      3  N   UNL d   1      28.594 -15.235   0.828  0.00  0.00    -0.265 N 
ATOM      4  H   UNL d   1      29.092 -15.945   1.358  0.00  0.00     0.190 HD
ENDROOT
BRANCH   3   5
ATOM      5  N   UNL d   1      28.013 -15.681  -0.382  0.00  0.00    -0.297 N 
ATOM      6  H   UNL d   1      28.666 -15.798  -1.160  0.00  0.00     0.187 HD
BRANCH   5   7
ATOM      7  C   UNL d   1      26.797 -16.377  -0.353  0.00  0.00     0.063 A 
ATOM      8  C   UNL d   1      26.613 -17.414   0.586  0.00  0.00     0.032 A 
ATOM      9  C   UNL d   1      25.451 -18.200   0.605  0.00  0.00     0.002 A 
ATOM     10  C   UNL d   1      24.410 -17.923  -0.270  0.00  0.00     0.001 A 
ATOM     11  C   UNL d   1      24.560 -16.892  -1.190  0.00  0.00     0.018 A 
ATOM     12  C   UNL d   1      25.743 -16.112  -1.246  0.00  0.00     0.075 A 
BRANCH  12  13
ATOM     13  C   UNL d   1      25.797 -15.055  -2.319  0.00  0.00     0.419 C 
ATOM     14  F   UNL d   1      26.462 -15.469  -3.433  0.00  0.00    -0.166 F 
ATOM     15  F   UNL d   1      24.538 -14.731  -2.739  0.00  0.00    -0.166 F 
ATOM     16  F   UNL d   1      26.359 -13.864  -1.986  0.00  0.00    -0.166 F 
ENDBRANCH  12  13
ENDBRANCH   5   7
ENDBRANCH   3   5
BRANCH   2  17
ATOM     17  C   UNL d   1      28.144 -14.231   3.033  0.00  0.00     0.066 A 
ATOM     18  C   UNL d   1      27.154 -13.867   3.964  0.00  0.00     0.020 A 
ATOM     19  C   UNL d   1      27.486 -13.633   5.305  0.00  0.00     0.001 A 
ATOM     20  C   UNL d   1      28.790 -13.839   5.751  0.00  0.00     0.003 A 
ATOM     21  C   UNL d   1      29.771 -14.259   4.853  0.00  0.00     0.037 A 
ATOM     22  C   UNL d   1      29.449 -14.450   3.503  0.00  0.00     0.081 A 
BRANCH  22  23
ATOM     23  O   UNL d   1      30.441 -14.825   2.639  0.00  0.00    -0.360 OA
ATOM     24  H   UNL d   1      30.409 -15.780   2.479  0.00  0.00     0.217 HD
ENDBRANCH  22  23
ENDBRANCH   2  17
TORSDOF 5
ENDMDL
MODEL 6
REMARK VINA RESULT:    -5.893      4.009      7.793
REMARK INTER + INTRA:          -8.865
REMARK INTER:                  -7.385
REMARK INTRA:                  -1.480
REMARK CONF_INDEPENDENT:        1.492
REMARK UNBOUND:                -1.480
REMARK  5 active torsions:
REMARK  status: ('A' for Active; 'I' for Inactive)
REMARK       I    between atoms: C_2  and  N_3 
REMARK    1  A    between atoms: C_2  and  C_15 
REMARK    2  A    between atoms: N_3  and  N_4 
REMARK    3  A    between atoms: N_4  and  C_5 
REMARK    4  A    between atoms: C_10  and  C_11 
REMARK    5  A    between atoms: C_20  and  O_21 
ROOT
ATOM      1  O   UNL d   1      24.090 -13.757  -4.232  0.00  0.00    -0.266 OA
ATOM      2  C   UNL d   1      25.181 -14.318  -4.091  0.00  0.00     0.272 C 
ATOM      3  N   UNL d   1      25.408 -15.247  -3.068  0.00  0.00    -0.265 N 
ATOM      4  H   UNL d   1      26.378 -15.405  -2.811  0.00  0.00     0.190 HD
ENDROOT
BRANCH   3   5
ATOM      5  N   UNL d   1      24.500 -15.183  -1.986  0.00  0.00    -0.297 N 
ATOM      6  H   UNL d   1      23.806 -14.434  -2.045  0.00  0.00     0.187 HD
BRANCH   5   7
ATOM      7  C   UNL d   1      24.257 -16.327  -1.214  0.00  0.00     0.063 A 
ATOM      8  C   UNL d   1      22.928 -16.739  -0.983  0.00  0.00     0.032 A 
ATOM      9  C   UNL d   1      22.622 -17.826  -0.149  0.00  0.00     0.002 A 
ATOM     10  C   UNL d   1      23.643 -18.573   0.421  0.00  0.00     0.001 A 
ATOM     11  C   UNL d   1      24.962 -18.199   0.190  0.00  0.00     0.018 A 
ATOM     12  C   UNL d   1      25.286 -17.082  -0.621  0.00  0.00     0.075 A 
BRANCH  12  13
ATOM     13  C   UNL d   1      26.751 -16.755  -0.755  0.00  0.00     0.419 C 
ATOM     14  F   UNL d   1      27.053 -15.501  -0.317  0.00  0.00    -0.166 F 
ATOM     15  F   UNL d   1      27.505 -17.604   0.005  0.00  0.00    -0.166 F 
ATOM     16  F   UNL d   1      27.293 -16.842  -1.998  0.00  0.00    -0.166 F 
ENDBRANCH  12  13
ENDBRANCH   5   7
ENDBRANCH   3   5
BRANCH   2  17
ATOM     17  C   UNL d   1      26.354 -14.020  -4.984  0.00  0.00     0.066 A 
ATOM     18  C   UNL d   1      27.215 -15.052  -5.398  0.00  0.00     0.020 A 
ATOM     19  C   UNL d   1      28.382 -14.762  -6.119  0.00  0.00     0.001 A 
ATOM     20  C   UNL d   1      28.661 -13.453  -6.507  0.00  0.00     0.003 A 
ATOM     21  C   UNL d   1      27.785 -12.426  -6.158  0.00  0.00     0.037 A 
ATOM     22  C   UNL d   1      26.641 -12.708  -5.398  0.00  0.00     0.081 A 
BRANCH  22  23
ATOM     23  O   UNL d   1      25.822 -11.675  -5.037  0.00  0.00    -0.360 OA
ATOM     24  H   UNL d   1      24.897 -11.965  -5.018  0.00  0.00     0.217 HD
ENDBRANCH  22  23
ENDBRANCH   2  17
TORSDOF 5
ENDMDL
MODEL 7
REMARK VINA RESULT:    -5.465      4.097      7.894
REMARK INTER + INTRA:          -8.241
REMARK INTER:                  -6.957
REMARK INTRA:                  -1.285
REMARK CONF_INDEPENDENT:        1.492
REMARK UNBOUND:                -1.285
REMARK  5 active torsions:
REMARK  status: ('A' for Active; 'I' for Inactive)
REMARK       I    between atoms: C_2  and  N_3 
REMARK    1  A    between atoms: C_2  and  C_15 
REMARK    2  A    between atoms: N_3  and  N_4 
REMARK    3  A    between atoms: N_4  and  C_5 
REMARK    4  A    between atoms: C_10  and  C_11 
REMARK    5  A    between atoms: C_20  and  O_21 
ROOT
ATOM      1  O   UNL d   1      25.100 -14.451  -4.164  0.00  0.00    -0.266 OA
ATOM      2  C   UNL d   1      26.137 -15.037  -3.839  0.00  0.00     0.272 C 
ATOM      3  N   UNL d   1      26.221 -15.793  -2.662  0.00  0.00    -0.265 N 
ATOM      4  H   UNL d   1      27.156 -15.957  -2.299  0.00  0.00     0.190 HD
ENDROOT
BRANCH   3   5
ATOM      5  N   UNL d   1      25.237 -15.502  -1.690  0.00  0.00    -0.297 N 
ATOM      6  H   UNL d   1      24.826 -14.568  -1.753  0.00  0.00     0.187 HD
BRANCH   5   7
ATOM      7  C   UNL d   1      24.546 -16.550  -1.066  0.00  0.00     0.063 A 
ATOM      8  C   UNL d   1      23.153 -16.670  -1.254  0.00  0.00     0.032 A 
ATOM      9  C   UNL d   1      22.396 -17.647  -0.588  0.00  0.00     0.002 A 
ATOM     10  C   UNL d   1      23.024 -18.575   0.230  0.00  0.00     0.001 A 
ATOM     11  C   UNL d   1      24.400 -18.489   0.413  0.00  0.00     0.018 A 
ATOM     12  C   UNL d   1      25.173 -17.486  -0.224  0.00  0.00     0.075 A 
BRANCH  12  13
ATOM     13  C   UNL d   1      26.646 -17.475   0.093  0.00  0.00     0.419 C 
ATOM     14  F   UNL d   1      27.030 -18.539   0.853  0.00  0.00    -0.166 F 
ATOM     15  F   UNL d   1      27.386 -17.555  -1.053  0.00  0.00    -0.166 F 
ATOM     16  F   UNL d   1      27.133 -16.381   0.734  0.00  0.00    -0.166 F 
ENDBRANCH  12  13
ENDBRANCH   5   7
ENDBRANCH   3   5
BRANCH   2  17
ATOM     17  C   UNL d   1      27.394 -14.953  -4.661  0.00  0.00     0.066 A 
ATOM     18  C   UNL d   1      27.411 -14.227  -5.865  0.00  0.00     0.020 A 
ATOM     19  C   UNL d   1      28.536 -14.255  -6.700  0.00  0.00     0.001 A 
ATOM     20  C   UNL d   1      29.685 -14.937  -6.307  0.00  0.00     0.003 A 
ATOM     21  C   UNL d   1      29.706 -15.611  -5.086  0.00  0.00     0.037 A 
ATOM     22  C   UNL d   1      28.566 -15.622  -4.271  0.00  0.00     0.081 A 
BRANCH  22  23
ATOM     23  O   UNL d   1      28.605 -16.324  -3.099  0.00  0.00    -0.360 OA
ATOM     24  H   UNL d   1      29.062 -15.815  -2.413  0.00  0.00     0.217 HD
ENDBRANCH  22  23
ENDBRANCH   2  17
TORSDOF 5
ENDMDL
MODEL 8
REMARK VINA RESULT:    -5.220      4.033      7.873
REMARK INTER + INTRA:          -8.164
REMARK INTER:                  -6.712
REMARK INTRA:                  -1.452
REMARK CONF_INDEPENDENT:        1.492
REMARK UNBOUND:                -1.452
REMARK  5 active torsions:
REMARK  status: ('A' for Active; 'I' for Inactive)
REMARK       I    between atoms: C_2  and  N_3 
REMARK    1  A    between atoms: C_2  and  C_15 
REMARK    2  A    between atoms: N_3  and  N_4 
REMARK    3  A    between atoms: N_4  and  C_5 
REMARK    4  A    between atoms: C_10  and  C_11 
REMARK    5  A    between atoms: C_20  and  O_21 
ROOT
ATOM      1  O   UNL d   1      24.018 -13.658  -4.270  0.00  0.00    -0.266 OA
ATOM      2  C   UNL d   1      25.181 -14.065  -4.185  0.00  0.00     0.272 C 
ATOM      3  N   UNL d   1      25.549 -15.068  -3.279  0.00  0.00    -0.265 N 
ATOM      4  H   UNL d   1      26.533 -15.112  -3.032  0.00  0.00     0.190 HD
ENDROOT
BRANCH   3   5
ATOM      5  N   UNL d   1      24.647 -15.270  -2.209  0.00  0.00    -0.297 N 
ATOM      6  H   UNL d   1      23.785 -14.723  -2.257  0.00  0.00     0.187 HD
BRANCH   5   7
ATOM      7  C   UNL d   1      24.702 -16.461  -1.470  0.00  0.00     0.063 A 
ATOM      8  C   UNL d   1      23.655 -17.399  -1.590  0.00  0.00     0.032 A 
ATOM      9  C   UNL d   1      23.614 -18.567  -0.812  0.00  0.00     0.002 A 
ATOM     10  C   UNL d   1      24.656 -18.861   0.055  0.00  0.00     0.001 A 
ATOM     11  C   UNL d   1      25.709 -17.961   0.174  0.00  0.00     0.018 A 
ATOM     12  C   UNL d   1      25.748 -16.760  -0.578  0.00  0.00     0.075 A 
BRANCH  12  13
ATOM     13  C   UNL d   1      26.921 -15.849  -0.323  0.00  0.00     0.419 C 
ATOM     14  F   UNL d   1      27.693 -15.662  -1.430  0.00  0.00    -0.166 F 
ATOM     15  F   UNL d   1      26.493 -14.604   0.043  0.00  0.00    -0.166 F 
ATOM     16  F   UNL d   1      27.784 -16.212   0.660  0.00  0.00    -0.166 F 
ENDBRANCH  12  13
ENDBRANCH   5   7
ENDBRANCH   3   5
BRANCH   2  17
ATOM     17  C   UNL d   1      26.291 -13.491  -5.021  0.00  0.00     0.066 A 
ATOM     18  C   UNL d   1      26.243 -12.152  -5.448  0.00  0.00     0.020 A 
ATOM     19  C   UNL d   1      27.206 -11.650  -6.335  0.00  0.00     0.001 A 
ATOM     20  C   UNL d   1      28.272 -12.450  -6.741  0.00  0.00     0.003 A 
ATOM     21  C   UNL d   1      28.368 -13.762  -6.277  0.00  0.00     0.037 A 
ATOM     22  C   UNL d   1      27.382 -14.279  -5.426  0.00  0.00     0.081 A 
BRANCH  22  23
ATOM     23  O   UNL d   1      27.483 -15.581  -5.020  0.00  0.00    -0.360 OA
ATOM     24  H   UNL d   1      26.612 -16.007  -5.026  0.00  0.00     0.217 HD
ENDBRANCH  22  23
ENDBRANCH   2  17
TORSDOF 5
ENDMDL
MODEL 9
REMARK VINA RESULT:    -5.178      4.206      7.956
REMARK INTER + INTRA:          -8.179
REMARK INTER:                  -6.670
REMARK INTRA:                  -1.509
REMARK CONF_INDEPENDENT:        1.492
REMARK UNBOUND:                -1.509
REMARK  5 active torsions:
REMARK  status: ('A' for Active; 'I' for Inactive)
REMARK       I    between atoms: C_2  and  N_3 
REMARK    1  A    between atoms: C_2  and  C_15 
REMARK    2  A    between atoms: N_3  and  N_4 
REMARK    3  A    between atoms: N_4  and  C_5 
REMARK    4  A    between atoms: C_10  and  C_11 
REMARK    5  A    between atoms: C_20  and  O_21 
ROOT
ATOM      1  O   UNL d   1      26.558 -15.603  -5.436  0.00  0.00    -0.266 OA
ATOM      2  C   UNL d   1      26.426 -14.733  -4.569  0.00  0.00     0.272 C 
ATOM      3  N   UNL d   1      25.965 -15.037  -3.281  0.00  0.00    -0.265 N 
ATOM      4  H   UNL d   1      25.574 -14.264  -2.750  0.00  0.00     0.190 HD
ENDROOT
BRANCH   3   5
ATOM      5  N   UNL d   1      25.272 -16.263  -3.165  0.00  0.00    -0.297 N 
ATOM      6  H   UNL d   1      25.157 -16.782  -4.039  0.00  0.00     0.187 HD
BRANCH   5   7
ATOM      7  C   UNL d   1      25.225 -16.920  -1.928  0.00  0.00     0.063 A 
ATOM      8  C   UNL d   1      24.019 -17.521  -1.507  0.00  0.00     0.032 A 
ATOM      9  C   UNL d   1      23.890 -18.118  -0.243  0.00  0.00     0.002 A 
ATOM     10  C   UNL d   1      24.985 -18.193   0.605  0.00  0.00     0.001 A 
ATOM     11  C   UNL d   1      26.190 -17.627   0.203  0.00  0.00     0.018 A 
ATOM     12  C   UNL d   1      26.326 -16.988  -1.056  0.00  0.00     0.075 A 
BRANCH  12  13
ATOM     13  C   UNL d   1      27.671 -16.375  -1.352  0.00  0.00     0.419 C 
ATOM     14  F   UNL d   1      28.651 -16.827  -0.521  0.00  0.00    -0.166 F 
ATOM     15  F   UNL d   1      28.079 -16.699  -2.615  0.00  0.00    -0.166 F 
ATOM     16  F   UNL d   1      27.757 -15.020  -1.306  0.00  0.00    -0.166 F 
ENDBRANCH  12  13
ENDBRANCH   5   7
ENDBRANCH   3   5
BRANCH   2  17
ATOM     17  C   UNL d   1      26.718 -13.283  -4.841  0.00  0.00     0.066 A 
ATOM     18  C   UNL d   1      27.832 -12.913  -5.614  0.00  0.00     0.020 A 
ATOM     19  C   UNL d   1      28.184 -11.564  -5.761  0.00  0.00     0.001 A 
ATOM     20  C   UNL d   1      27.383 -10.566  -5.210  0.00  0.00     0.003 A 
ATOM     21  C   UNL d   1      26.239 -10.914  -4.492  0.00  0.00     0.037 A 
ATOM     22  C   UNL d   1      25.911 -12.264  -4.307  0.00  0.00     0.081 A 
BRANCH  22  23
ATOM     23  O   UNL d   1      24.805 -12.575  -3.565  0.00  0.00    -0.360 OA
ATOM     24  H   UNL d   1      24.030 -12.096  -3.895  0.00  0.00     0.217 HD
ENDBRANCH  22  23
ENDBRANCH   2  17
TORSDOF 5
ENDMDL
