MODEL 1
REMARK VINA RESULT:    -9.730      0.000      0.000
REMARK INTER + INTRA:         -12.412
REMARK INTER:                 -11.222
REMARK INTRA:                  -1.190
REMARK CONF_INDEPENDENT:        1.492
REMARK UNBOUND:                -1.190
REMARK  5 active torsions:
REMARK  status: ('A' for Active; 'I' for Inactive)
REMARK    1  A    between atoms: O_2  and  C_3 
REMARK    2  A    between atoms: C_3  and  C_5 
REMARK    3  A    between atoms: C_13  and  N_14 
REMARK       I    between atoms: N_14  and  C_15 
REMARK       I    between atoms: C_15  and  N_17 
REMARK    4  A    between atoms: N_17  and  C_18 
REMARK    5  A    between atoms: C_22  and  C_21 
ROOT
ATOM      1  N   UNL d   1      27.768 -14.274  -0.882  0.00  0.00    -0.325 N 
ATOM      2  C   UNL d   1      27.793 -14.528   0.483  0.00  0.00     0.321 C 
ATOM      3  O   UNL d   1      27.395 -15.587   0.924  0.00  0.00    -0.247 OA
ATOM      4  N   UNL d   1      28.299 -13.545   1.328  0.00  0.00    -0.309 N 
ATOM      5  H   UNL d   1      27.878 -13.356  -1.284  0.00  0.00     0.165 HD
ATOM      6  H   UNL d   1      28.243 -12.587   1.009  0.00  0.00     0.170 HD
ENDROOT
BRANCH   4   7
ATOM      7  C   UNL d   1      28.442 -13.826   2.756  0.00  0.00     0.036 C 
ATOM      8  C   UNL d   1      29.560 -14.422   3.315  0.00  0.00     0.030 C 
ATOM      9  C   UNL d   1      29.627 -14.702   4.748  0.00  0.00     0.011 C 
ATOM     10  C   UNL d   1      28.687 -14.231   5.777  0.00  0.00    -0.036 C 
ATOM     11  C   UNL d   1      27.519 -13.774   5.141  0.00  0.00     0.011 C 
ATOM     12  C   UNL d   1      27.418 -13.571   3.686  0.00  0.00     0.030 C 
BRANCH  10  13
ATOM     13  C   UNL d   1      28.905 -14.449   7.497  0.00  0.00     0.117 C 
ATOM     14  C   UNL d   1      28.796 -13.516   9.015  0.00  0.00     0.011 C 
ATOM     15  C   UNL d   1      29.445 -12.330   8.992  0.00  0.00    -0.015 C 
ATOM     16  C   UNL d   1      29.906 -11.048   9.534  0.00  0.00     0.036 C 
ATOM     17  C   UNL d   1      30.075 -12.670   7.743  0.00  0.00     0.019 C 
ATOM     18  C   UNL d   1      29.932 -10.059   8.595  0.00  0.00     0.035 C 
ATOM     19 CL   UNL d   1      30.013  -8.376   8.944  0.00  0.00    -0.084 Cl
ATOM     20  C   UNL d   1      29.676 -10.368   7.203  0.00  0.00     0.026 C 
ATOM     21  C   UNL d   1      29.697 -11.641   6.775  0.00  0.00     0.026 C 
ATOM     22  N   UNL d   1      30.289 -13.947   7.555  0.00  0.00    -0.280 NA
ATOM     23  H   UNL d   1      30.626 -14.541   8.323  0.00  0.00     0.128 HD
ENDBRANCH  10  13
ENDBRANCH   4   7
BRANCH   1  24
ATOM     24  C   UNL d   1      27.234 -15.340  -1.750  0.00  0.00     0.189 C 
ATOM     25  S   UNL d   1      27.567 -17.030  -1.113  0.00  0.00    -0.129 SA
ATOM     26  C   UNL d   1      25.844 -17.289  -0.610  0.00  0.00     0.079 C 
ATOM     27  C   UNL d   1      25.199 -18.565  -0.054  0.00  0.00     0.020 C 
ATOM     28  C   UNL d   1      24.996 -16.241  -1.306  0.00  0.00    -0.051 C 
ATOM     29  C   UNL d   1      23.676 -18.635  -0.166  0.00  0.00     0.002 C 
ATOM     30  C   UNL d   1      23.025 -17.254  -0.115  0.00  0.00     0.004 C 
ATOM     31  C   UNL d   1      23.487 -16.406  -1.308  0.00  0.00     0.036 C 
ATOM     32  C   UNL d   1      25.727 -15.247  -1.865  0.00  0.00     0.053 C 
BRANCH  32  33
ATOM     33  C   UNL d   1      25.226 -14.175  -2.768  0.00  0.00     0.292 C 
ATOM     34  O   UNL d   1      24.408 -14.385  -3.639  0.00  0.00    -0.260 OA
BRANCH  33  35
ATOM     35  O   UNL d   1      25.825 -12.975  -2.527  0.00  0.00    -0.323 OA
ATOM     36  C   UNL d   1      25.890 -12.122  -3.683  0.00  0.00     0.213 C 
ENDBRANCH  33  35
ENDBRANCH  32  33
ENDBRANCH   1  24
TORSDOF 5
ENDMDL
MODEL 2
REMARK VINA RESULT:    -9.442      2.485      4.059
REMARK INTER + INTRA:         -12.221
REMARK INTER:                 -10.934
REMARK INTRA:                  -1.287
REMARK CONF_INDEPENDENT:        1.492
REMARK UNBOUND:                -1.287
REMARK  5 active torsions:
REMARK  status: ('A' for Active; 'I' for Inactive)
REMARK    1  A    between atoms: O_2  and  C_3 
REMARK    2  A    between atoms: C_3  and  C_5 
REMARK    3  A    between atoms: C_13  and  N_14 
REMARK       I    between atoms: N_14  and  C_15 
REMARK       I    between atoms: C_15  and  N_17 
REMARK    4  A    between atoms: N_17  and  C_18 
REMARK    5  A    between atoms: C_22  and  C_21 
ROOT
ATOM      1  N   UNL d   1      27.245 -14.907   1.005  0.00  0.00    -0.325 N 
ATOM      2  C   UNL d   1      27.528 -14.159   2.140  0.00  0.00     0.321 C 
ATOM      3  O   UNL d   1      26.991 -13.085   2.324  0.00  0.00    -0.247 OA
ATOM      4  N   UNL d   1      28.427 -14.679   3.066  0.00  0.00    -0.309 N 
ATOM      5  H   UNL d   1      27.805 -15.685   0.692  0.00  0.00     0.165 HD
ATOM      6  H   UNL d   1      29.123 -15.328   2.721  0.00  0.00     0.170 HD
ENDROOT
BRANCH   4   7
ATOM      7  C   UNL d   1      28.660 -13.969   4.323  0.00  0.00     0.036 C 
ATOM      8  C   UNL d   1      29.916 -13.757   4.866  0.00  0.00     0.030 C 
ATOM      9  C   UNL d   1      30.077 -13.065   6.143  0.00  0.00     0.011 C 
ATOM     10  C   UNL d   1      29.033 -12.344   6.886  0.00  0.00    -0.036 C 
ATOM     11  C   UNL d   1      27.778 -12.719   6.372  0.00  0.00     0.011 C 
ATOM     12  C   UNL d   1      27.611 -13.491   5.130  0.00  0.00     0.030 C 
BRANCH  10  13
ATOM     13  C   UNL d   1      29.313 -11.388   8.321  0.00  0.00     0.117 C 
ATOM     14  C   UNL d   1      30.199 -11.478   9.869  0.00  0.00     0.011 C 
ATOM     15  C   UNL d   1      30.003 -12.623  10.561  0.00  0.00    -0.015 C 
ATOM     16  C   UNL d   1      30.186 -13.559  11.674  0.00  0.00     0.036 C 
ATOM     17  C   UNL d   1      28.934 -13.006   9.676  0.00  0.00     0.019 C 
ATOM     18  C   UNL d   1      30.189 -14.862  11.270  0.00  0.00     0.035 C 
ATOM     19 CL   UNL d   1      30.780 -16.179  12.207  0.00  0.00    -0.084 Cl
ATOM     20  C   UNL d   1      29.873 -15.200   9.898  0.00  0.00     0.026 C 
ATOM     21  C   UNL d   1      29.301 -14.294   9.089  0.00  0.00     0.026 C 
ATOM     22  N   UNL d   1      28.265 -12.014   9.147  0.00  0.00    -0.280 NA
ATOM     23  H   UNL d   1      28.014 -11.191   9.710  0.00  0.00     0.128 HD
ENDBRANCH  10  13
ENDBRANCH   4   7
BRANCH   1  24
ATOM     24  C   UNL d   1      26.281 -14.332   0.048  0.00  0.00     0.189 C 
ATOM     25  S   UNL d   1      26.848 -12.750  -0.692  0.00  0.00    -0.129 SA
ATOM     26  C   UNL d   1      27.201 -13.512  -2.300  0.00  0.00     0.079 C 
ATOM     27  C   UNL d   1      27.633 -12.825  -3.601  0.00  0.00     0.020 C 
ATOM     28  C   UNL d   1      26.498 -14.856  -2.338  0.00  0.00    -0.051 C 
ATOM     29  C   UNL d   1      27.399 -13.630  -4.879  0.00  0.00     0.002 C 
ATOM     30  C   UNL d   1      27.474 -15.137  -4.639  0.00  0.00     0.004 C 
ATOM     31  C   UNL d   1      26.369 -15.575  -3.669  0.00  0.00     0.036 C 
ATOM     32  C   UNL d   1      26.053 -15.262  -1.125  0.00  0.00     0.053 C 
BRANCH  32  33
ATOM     33  C   UNL d   1      25.173 -16.430  -0.846  0.00  0.00     0.292 C 
ATOM     34  O   UNL d   1      24.153 -16.641  -1.466  0.00  0.00    -0.260 OA
BRANCH  33  35
ATOM     35  O   UNL d   1      25.626 -17.179   0.199  0.00  0.00    -0.323 OA
ATOM     36  C   UNL d   1      26.846 -17.885  -0.085  0.00  0.00     0.213 C 
ENDBRANCH  33  35
ENDBRANCH  32  33
ENDBRANCH   1  24
TORSDOF 5
ENDMDL
MODEL 3
REMARK VINA RESULT:    -9.355      6.902     11.023
REMARK INTER + INTRA:         -11.984
REMARK INTER:                 -10.847
REMARK INTRA:                  -1.137
REMARK CONF_INDEPENDENT:        1.492
REMARK UNBOUND:                -1.137
REMARK  5 active torsions:
REMARK  status: ('A' for Active; 'I' for Inactive)
REMARK    1  A    between atoms: O_2  and  C_3 
REMARK    2  A    between atoms: C_3  and  C_5 
REMARK    3  A    between atoms: C_13  and  N_14 
REMARK       I    between atoms: N_14  and  C_15 
REMARK       I    between atoms: C_15  and  N_17 
REMARK    4  A    between atoms: N_17  and  C_18 
REMARK    5  A    between atoms: C_22  and  C_21 
ROOT
ATOM      1  N   UNL d   1      33.702 -19.680   3.817  0.00  0.00    -0.325 N 
ATOM      2  C   UNL d   1      32.983 -19.158   2.750  0.00  0.00     0.321 C 
ATOM      3  O   UNL d   1      32.293 -19.878   2.057  0.00  0.00    -0.247 OA
ATOM      4  N   UNL d   1      33.062 -17.791   2.507  0.00  0.00    -0.309 N 
ATOM      5  H   UNL d   1      34.446 -19.188   4.287  0.00  0.00     0.165 HD
ATOM      6  H   UNL d   1      33.901 -17.314   2.812  0.00  0.00     0.170 HD
ENDROOT
BRANCH   4   7
ATOM      7  C   UNL d   1      32.230 -17.194   1.462  0.00  0.00     0.036 C 
ATOM      8  C   UNL d   1      32.004 -17.783   0.229  0.00  0.00     0.030 C 
ATOM      9  C   UNL d   1      31.186 -17.119  -0.784  0.00  0.00     0.011 C 
ATOM     10  C   UNL d   1      30.356 -15.920  -0.590  0.00  0.00    -0.036 C 
ATOM     11  C   UNL d   1      30.741 -15.298   0.611  0.00  0.00     0.011 C 
ATOM     12  C   UNL d   1      31.635 -15.927   1.597  0.00  0.00     0.030 C 
BRANCH  10  13
ATOM     13  C   UNL d   1      29.262 -15.265  -1.785  0.00  0.00     0.117 C 
ATOM     14  C   UNL d   1      27.520 -14.944  -2.010  0.00  0.00     0.011 C 
ATOM     15  C   UNL d   1      26.715 -15.989  -1.715  0.00  0.00    -0.015 C 
ATOM     16  C   UNL d   1      25.435 -16.687  -1.558  0.00  0.00     0.036 C 
ATOM     17  C   UNL d   1      27.850 -16.869  -1.616  0.00  0.00     0.019 C 
ATOM     18  C   UNL d   1      25.431 -17.543  -0.495  0.00  0.00     0.035 C 
ATOM     19 CL   UNL d   1      24.015 -18.200   0.230  0.00  0.00    -0.084 Cl
ATOM     20  C   UNL d   1      26.651 -17.796   0.242  0.00  0.00     0.026 C 
ATOM     21  C   UNL d   1      27.840 -17.435  -0.267  0.00  0.00     0.026 C 
ATOM     22  N   UNL d   1      28.867 -16.556  -2.376  0.00  0.00    -0.280 NA
ATOM     23  H   UNL d   1      28.721 -16.234  -3.342  0.00  0.00     0.128 HD
ENDBRANCH  10  13
ENDBRANCH   4   7
BRANCH   1  24
ATOM     24  C   UNL d   1      33.589 -21.132   4.053  0.00  0.00     0.189 C 
ATOM     25  S   UNL d   1      35.173 -22.030   3.820  0.00  0.00    -0.129 SA
ATOM     26  C   UNL d   1      35.409 -22.283   5.600  0.00  0.00     0.079 C 
ATOM     27  C   UNL d   1      36.501 -23.095   6.308  0.00  0.00     0.020 C 
ATOM     28  C   UNL d   1      34.079 -22.027   6.284  0.00  0.00    -0.051 C 
ATOM     29  C   UNL d   1      36.183 -23.515   7.742  0.00  0.00     0.002 C 
ATOM     30  C   UNL d   1      35.260 -22.524   8.448  0.00  0.00     0.004 C 
ATOM     31  C   UNL d   1      33.906 -22.457   7.730  0.00  0.00     0.036 C 
ATOM     32  C   UNL d   1      33.172 -21.423   5.480  0.00  0.00     0.053 C 
BRANCH  32  33
ATOM     33  C   UNL d   1      31.730 -21.200   5.776  0.00  0.00     0.292 C 
ATOM     34  O   UNL d   1      31.218 -21.542   6.821  0.00  0.00    -0.260 OA
BRANCH  33  35
ATOM     35  O   UNL d   1      31.071 -20.624   4.730  0.00  0.00    -0.323 OA
ATOM     36  C   UNL d   1      30.459 -21.575   3.842  0.00  0.00     0.213 C 
ENDBRANCH  33  35
ENDBRANCH  32  33
ENDBRANCH   1  24
TORSDOF 5
ENDMDL
MODEL 4
REMARK VINA RESULT:    -9.164      2.520      3.397
REMARK INTER + INTRA:         -12.074
REMARK INTER:                 -10.656
REMARK INTRA:                  -1.418
REMARK CONF_INDEPENDENT:        1.492
REMARK UNBOUND:                -1.418
REMARK  5 active torsions:
REMARK  status: ('A' for Active; 'I' for Inactive)
REMARK    1  A    between atoms: O_2  and  C_3 
REMARK    2  A    between atoms: C_3  and  C_5 
REMARK    3  A    between atoms: C_13  and  N_14 
REMARK       I    between atoms: N_14  and  C_15 
REMARK       I    between atoms: C_15  and  N_17 
REMARK    4  A    between atoms: N_17  and  C_18 
REMARK    5  A    between atoms: C_22  and  C_21 
ROOT
ATOM      1  N   UNL d   1      28.500 -14.191  -2.932  0.00  0.00    -0.325 N 
ATOM      2  C   UNL d   1      28.270 -13.580  -1.706  0.00  0.00     0.321 C 
ATOM      3  O   UNL d   1      27.718 -14.183  -0.808  0.00  0.00    -0.247 OA
ATOM      4  N   UNL d   1      28.702 -12.269  -1.531  0.00  0.00    -0.309 N 
ATOM      5  H   UNL d   1      28.751 -13.689  -3.770  0.00  0.00     0.165 HD
ATOM      6  H   UNL d   1      28.779 -11.692  -2.359  0.00  0.00     0.170 HD
ENDROOT
BRANCH   4   7
ATOM      7  C   UNL d   1      28.575 -11.638  -0.217  0.00  0.00     0.036 C 
ATOM      8  C   UNL d   1      29.652 -11.348   0.604  0.00  0.00     0.030 C 
ATOM      9  C   UNL d   1      29.453 -10.743   1.919  0.00  0.00     0.011 C 
ATOM     10  C   UNL d   1      28.198 -10.186   2.447  0.00  0.00    -0.036 C 
ATOM     11  C   UNL d   1      27.135 -10.641   1.646  0.00  0.00     0.011 C 
ATOM     12  C   UNL d   1      27.330 -11.328   0.358  0.00  0.00     0.030 C 
BRANCH  10  13
ATOM     13  C   UNL d   1      28.052  -9.320   3.957  0.00  0.00     0.117 C 
ATOM     14  C   UNL d   1      28.676  -9.377   5.629  0.00  0.00     0.011 C 
ATOM     15  C   UNL d   1      28.597 -10.594   6.215  0.00  0.00    -0.015 C 
ATOM     16  C   UNL d   1      28.775 -11.572   7.293  0.00  0.00     0.036 C 
ATOM     17  C   UNL d   1      27.780 -11.088   5.138  0.00  0.00     0.019 C 
ATOM     18  C   UNL d   1      29.096 -12.813   6.827  0.00  0.00     0.035 C 
ATOM     19 CL   UNL d   1      29.772 -14.075   7.783  0.00  0.00    -0.084 Cl
ATOM     20  C   UNL d   1      29.079 -13.086   5.405  0.00  0.00     0.026 C 
ATOM     21  C   UNL d   1      28.480 -12.234   4.557  0.00  0.00     0.026 C 
ATOM     22  N   UNL d   1      27.026 -10.194   4.552  0.00  0.00    -0.280 NA
ATOM     23  H   UNL d   1      26.532  -9.481   5.105  0.00  0.00     0.128 HD
ENDBRANCH  10  13
ENDBRANCH   4   7
BRANCH   1  24
ATOM     24  C   UNL d   1      28.038 -15.584  -3.083  0.00  0.00     0.189 C 
ATOM     25  S   UNL d   1      28.527 -16.665  -1.681  0.00  0.00    -0.129 SA
ATOM     26  C   UNL d   1      26.844 -16.725  -1.008  0.00  0.00     0.079 C 
ATOM     27  C   UNL d   1      26.321 -17.556   0.170  0.00  0.00     0.020 C 
ATOM     28  C   UNL d   1      25.895 -16.250  -2.093  0.00  0.00    -0.051 C 
ATOM     29  C   UNL d   1      24.807 -17.765   0.208  0.00  0.00     0.002 C 
ATOM     30  C   UNL d   1      24.044 -16.604  -0.427  0.00  0.00     0.004 C 
ATOM     31  C   UNL d   1      24.405 -16.482  -1.913  0.00  0.00     0.036 C 
ATOM     32  C   UNL d   1      26.526 -15.655  -3.133  0.00  0.00     0.053 C 
BRANCH  32  33
ATOM     33  C   UNL d   1      25.916 -15.248  -4.429  0.00  0.00     0.292 C 
ATOM     34  O   UNL d   1      26.381 -15.575  -5.500  0.00  0.00    -0.260 OA
BRANCH  33  35
ATOM     35  O   UNL d   1      24.829 -14.444  -4.257  0.00  0.00    -0.323 OA
ATOM     36  C   UNL d   1      25.155 -13.133  -3.764  0.00  0.00     0.213 C 
ENDBRANCH  33  35
ENDBRANCH  32  33
ENDBRANCH   1  24
TORSDOF 5
ENDMDL
MODEL 5
REMARK VINA RESULT:    -8.941      4.434     10.582
REMARK INTER + INTRA:         -11.531
REMARK INTER:                 -10.433
REMARK INTRA:                  -1.098
REMARK CONF_INDEPENDENT:        1.492
REMARK UNBOUND:                -1.098
REMARK  5 active torsions:
REMARK  status: ('A' for Active; 'I' for Inactive)
REMARK    1  A    between atoms: O_2  and  C_3 
REMARK    2  A    between atoms: C_3  and  C_5 
REMARK    3  A    between atoms: C_13  and  N_14 
REMARK       I    between atoms: N_14  and  C_15 
REMARK       I    between atoms: C_15  and  N_17 
REMARK    4  A    between atoms: N_17  and  C_18 
REMARK    5  A    between atoms: C_22  and  C_21 
ROOT
ATOM      1  N   UNL d   1      30.311 -13.736   6.062  0.00  0.00    -0.325 N 
ATOM      2  C   UNL d   1      29.557 -13.673   4.897  0.00  0.00     0.321 C 
ATOM      3  O   UNL d   1      28.674 -12.847   4.776  0.00  0.00    -0.247 OA
ATOM      4  N   UNL d   1      29.849 -14.566   3.872  0.00  0.00    -0.309 N 
ATOM      5  H   UNL d   1      30.898 -14.518   6.307  0.00  0.00     0.165 HD
ATOM      6  H   UNL d   1      30.274 -15.446   4.132  0.00  0.00     0.170 HD
ENDROOT
BRANCH   4   7
ATOM      7  C   UNL d   1      29.149 -14.451   2.593  0.00  0.00     0.036 C 
ATOM      8  C   UNL d   1      29.778 -14.521   1.362  0.00  0.00     0.030 C 
ATOM      9  C   UNL d   1      29.023 -14.368   0.120  0.00  0.00     0.011 C 
ATOM     10  C   UNL d   1      27.559 -14.339  -0.016  0.00  0.00    -0.036 C 
ATOM     11  C   UNL d   1      26.995 -14.121   1.254  0.00  0.00     0.011 C 
ATOM     12  C   UNL d   1      27.769 -14.190   2.505  0.00  0.00     0.030 C 
BRANCH  10  13
ATOM     13  C   UNL d   1      26.702 -14.326  -1.539  0.00  0.00     0.117 C 
ATOM     14  C   UNL d   1      25.155 -14.880  -2.239  0.00  0.00     0.011 C 
ATOM     15  C   UNL d   1      24.850 -16.171  -1.975  0.00  0.00    -0.015 C 
ATOM     16  C   UNL d   1      24.032 -17.386  -2.020  0.00  0.00     0.036 C 
ATOM     17  C   UNL d   1      26.170 -16.402  -1.448  0.00  0.00     0.019 C 
ATOM     18  C   UNL d   1      24.090 -18.101  -0.860  0.00  0.00     0.035 C 
ATOM     19 CL   UNL d   1      22.968 -19.324  -0.403  0.00  0.00    -0.084 Cl
ATOM     20  C   UNL d   1      25.012 -17.717   0.189  0.00  0.00     0.026 C 
ATOM     21  C   UNL d   1      26.009 -16.854  -0.066  0.00  0.00     0.026 C 
ATOM     22  N   UNL d   1      27.118 -15.671  -1.976  0.00  0.00    -0.280 NA
ATOM     23  H   UNL d   1      27.141 -15.494  -2.988  0.00  0.00     0.128 HD
ENDBRANCH  10  13
ENDBRANCH   4   7
BRANCH   1  24
ATOM     24  C   UNL d   1      29.981 -12.769   7.125  0.00  0.00     0.189 C 
ATOM     25  S   UNL d   1      28.238 -12.879   7.691  0.00  0.00    -0.129 SA
ATOM     26  C   UNL d   1      28.691 -13.666   9.261  0.00  0.00     0.079 C 
ATOM     27  C   UNL d   1      27.781 -14.015  10.446  0.00  0.00     0.020 C 
ATOM     28  C   UNL d   1      30.178 -13.453   9.473  0.00  0.00    -0.051 C 
ATOM     29  C   UNL d   1      28.492 -14.225  11.782  0.00  0.00     0.002 C 
ATOM     30  C   UNL d   1      29.913 -14.757  11.608  0.00  0.00     0.004 C 
ATOM     31  C   UNL d   1      30.769 -13.740  10.842  0.00  0.00     0.036 C 
ATOM     32  C   UNL d   1      30.819 -13.013   8.364  0.00  0.00     0.053 C 
BRANCH  32  33
ATOM     33  C   UNL d   1      32.226 -12.535   8.281  0.00  0.00     0.292 C 
ATOM     34  O   UNL d   1      33.142 -13.101   8.839  0.00  0.00    -0.260 OA
BRANCH  33  35
ATOM     35  O   UNL d   1      32.339 -11.385   7.557  0.00  0.00    -0.323 OA
ATOM     36  C   UNL d   1      33.512 -11.340   6.728  0.00  0.00     0.213 C 
ENDBRANCH  33  35
ENDBRANCH  32  33
ENDBRANCH   1  24
TORSDOF 5
ENDMDL
MODEL 6
REMARK VINA RESULT:    -8.444      4.179     10.201
REMARK INTER + INTRA:         -11.301
REMARK INTER:                  -9.936
REMARK INTRA:                  -1.365
REMARK CONF_INDEPENDENT:        1.492
REMARK UNBOUND:                -1.365
REMARK  5 active torsions:
REMARK  status: ('A' for Active; 'I' for Inactive)
REMARK    1  A    between atoms: O_2  and  C_3 
REMARK    2  A    between atoms: C_3  and  C_5 
REMARK    3  A    between atoms: C_13  and  N_14 
REMARK       I    between atoms: N_14  and  C_15 
REMARK       I    between atoms: C_15  and  N_17 
REMARK    4  A    between atoms: N_17  and  C_18 
REMARK    5  A    between atoms: C_22  and  C_21 
ROOT
ATOM      1  N   UNL d   1      30.416 -13.780   5.548  0.00  0.00    -0.325 N 
ATOM      2  C   UNL d   1      29.668 -14.105   4.423  0.00  0.00     0.321 C 
ATOM      3  O   UNL d   1      28.497 -14.410   4.525  0.00  0.00    -0.247 OA
ATOM      4  N   UNL d   1      30.290 -14.056   3.180  0.00  0.00    -0.309 N 
ATOM      5  H   UNL d   1      31.423 -13.731   5.556  0.00  0.00     0.165 HD
ATOM      6  H   UNL d   1      31.293 -14.195   3.159  0.00  0.00     0.170 HD
ENDROOT
BRANCH   4   7
ATOM      7  C   UNL d   1      29.502 -14.283   1.969  0.00  0.00     0.036 C 
ATOM      8  C   UNL d   1      28.220 -13.794   1.783  0.00  0.00     0.030 C 
ATOM      9  C   UNL d   1      27.475 -14.082   0.559  0.00  0.00     0.011 C 
ATOM     10  C   UNL d   1      28.007 -14.701  -0.665  0.00  0.00    -0.036 C 
ATOM     11  C   UNL d   1      29.243 -15.301  -0.363  0.00  0.00     0.011 C 
ATOM     12  C   UNL d   1      29.959 -15.082   0.905  0.00  0.00     0.030 C 
BRANCH  10  13
ATOM     13  C   UNL d   1      27.119 -14.869  -2.160  0.00  0.00     0.117 C 
ATOM     14  C   UNL d   1      25.491 -15.319  -2.738  0.00  0.00     0.011 C 
ATOM     15  C   UNL d   1      25.011 -16.472  -2.219  0.00  0.00    -0.015 C 
ATOM     16  C   UNL d   1      24.025 -17.538  -2.019  0.00  0.00     0.036 C 
ATOM     17  C   UNL d   1      26.297 -16.783  -1.653  0.00  0.00     0.019 C 
ATOM     18  C   UNL d   1      24.011 -18.007  -0.738  0.00  0.00     0.035 C 
ATOM     19 CL   UNL d   1      22.738 -18.936  -0.046  0.00  0.00    -0.084 Cl
ATOM     20  C   UNL d   1      25.008 -17.560   0.213  0.00  0.00     0.026 C 
ATOM     21  C   UNL d   1      26.111 -16.921  -0.209  0.00  0.00     0.026 C 
ATOM     22  N   UNL d   1      27.326 -16.320  -2.316  0.00  0.00    -0.280 NA
ATOM     23  H   UNL d   1      27.346 -16.354  -3.343  0.00  0.00     0.128 HD
ENDBRANCH  10  13
ENDBRANCH   4   7
BRANCH   1  24
ATOM     24  C   UNL d   1      29.723 -13.833   6.849  0.00  0.00     0.189 C 
ATOM     25  S   UNL d   1      30.833 -14.276   8.244  0.00  0.00    -0.129 SA
ATOM     26  C   UNL d   1      30.845 -12.586   8.903  0.00  0.00     0.079 C 
ATOM     27  C   UNL d   1      31.483 -12.078  10.202  0.00  0.00     0.020 C 
ATOM     28  C   UNL d   1      29.688 -11.835   8.272  0.00  0.00    -0.051 C 
ATOM     29  C   UNL d   1      30.942 -10.748  10.725  0.00  0.00     0.002 C 
ATOM     30  C   UNL d   1      30.448  -9.839   9.601  0.00  0.00     0.004 C 
ATOM     31  C   UNL d   1      29.276 -10.498   8.862  0.00  0.00     0.036 C 
ATOM     32  C   UNL d   1      29.143 -12.482   7.214  0.00  0.00     0.053 C 
BRANCH  32  33
ATOM     33  C   UNL d   1      27.893 -12.115   6.494  0.00  0.00     0.292 C 
ATOM     34  O   UNL d   1      27.031 -12.925   6.228  0.00  0.00    -0.260 OA
BRANCH  33  35
ATOM     35  O   UNL d   1      27.869 -10.798   6.141  0.00  0.00    -0.323 OA
ATOM     36  C   UNL d   1      28.240 -10.563   4.772  0.00  0.00     0.213 C 
ENDBRANCH  33  35
ENDBRANCH  32  33
ENDBRANCH   1  24
TORSDOF 5
ENDMDL
MODEL 7
REMARK VINA RESULT:    -8.295      7.049      9.847
REMARK INTER + INTRA:         -11.111
REMARK INTER:                  -9.786
REMARK INTRA:                  -1.324
REMARK CONF_INDEPENDENT:        1.492
REMARK UNBOUND:                -1.324
REMARK  5 active torsions:
REMARK  status: ('A' for Active; 'I' for Inactive)
REMARK    1  A    between atoms: O_2  and  C_3 
REMARK    2  A    between atoms: C_3  and  C_5 
REMARK    3  A    between atoms: C_13  and  N_14 
REMARK       I    between atoms: N_14  and  C_15 
REMARK       I    between atoms: C_15  and  N_17 
REMARK    4  A    between atoms: N_17  and  C_18 
REMARK    5  A    between atoms: C_22  and  C_21 
ROOT
ATOM      1  N   UNL d   1      26.310  -9.901  -5.968  0.00  0.00    -0.325 N 
ATOM      2  C   UNL d   1      26.650 -11.061  -5.284  0.00  0.00     0.321 C 
ATOM      3  O   UNL d   1      27.734 -11.584  -5.452  0.00  0.00    -0.247 OA
ATOM      4  N   UNL d   1      25.727 -11.597  -4.393  0.00  0.00    -0.309 N 
ATOM      5  H   UNL d   1      25.369  -9.547  -6.037  0.00  0.00     0.165 HD
ATOM      6  H   UNL d   1      24.749 -11.399  -4.565  0.00  0.00     0.170 HD
ENDROOT
BRANCH   4   7
ATOM      7  C   UNL d   1      26.098 -12.752  -3.576  0.00  0.00     0.036 C 
ATOM      8  C   UNL d   1      26.794 -12.659  -2.383  0.00  0.00     0.030 C 
ATOM      9  C   UNL d   1      27.161 -13.856  -1.629  0.00  0.00     0.011 C 
ATOM     10  C   UNL d   1      26.694 -15.227  -1.883  0.00  0.00    -0.036 C 
ATOM     11  C   UNL d   1      26.129 -15.277  -3.170  0.00  0.00     0.011 C 
ATOM     12  C   UNL d   1      25.835 -14.077  -3.971  0.00  0.00     0.030 C 
BRANCH  10  13
ATOM     13  C   UNL d   1      27.025 -16.597  -0.851  0.00  0.00     0.117 C 
ATOM     14  C   UNL d   1      26.352 -18.203  -0.456  0.00  0.00     0.011 C 
ATOM     15  C   UNL d   1      25.027 -18.204  -0.185  0.00  0.00    -0.015 C 
ATOM     16  C   UNL d   1      23.735 -18.804   0.164  0.00  0.00     0.036 C 
ATOM     17  C   UNL d   1      25.008 -16.766  -0.145  0.00  0.00     0.019 C 
ATOM     18  C   UNL d   1      22.689 -18.207  -0.476  0.00  0.00     0.035 C 
ATOM     19 CL   UNL d   1      21.117 -18.889  -0.634  0.00  0.00    -0.084 Cl
ATOM     20  C   UNL d   1      22.904 -17.013  -1.268  0.00  0.00     0.026 C 
ATOM     21  C   UNL d   1      24.047 -16.319  -1.154  0.00  0.00     0.026 C 
ATOM     22  N   UNL d   1      26.122 -16.203   0.245  0.00  0.00    -0.280 NA
ATOM     23  H   UNL d   1      26.662 -16.596   1.027  0.00  0.00     0.128 HD
ENDBRANCH  10  13
ENDBRANCH   4   7
BRANCH   1  24
ATOM     24  C   UNL d   1      27.316  -9.354  -6.898  0.00  0.00     0.189 C 
ATOM     25  S   UNL d   1      28.932  -9.006  -6.098  0.00  0.00    -0.129 SA
ATOM     26  C   UNL d   1      29.739 -10.431  -6.879  0.00  0.00     0.079 C 
ATOM     27  C   UNL d   1      31.219 -10.829  -6.827  0.00  0.00     0.020 C 
ATOM     28  C   UNL d   1      28.862 -10.885  -8.030  0.00  0.00    -0.051 C 
ATOM     29  C   UNL d   1      31.686 -11.772  -7.936  0.00  0.00     0.002 C 
ATOM     30  C   UNL d   1      30.569 -12.690  -8.427  0.00  0.00     0.004 C 
ATOM     31  C   UNL d   1      29.434 -11.861  -9.043  0.00  0.00     0.036 C 
ATOM     32  C   UNL d   1      27.624 -10.336  -8.009  0.00  0.00     0.053 C 
BRANCH  32  33
ATOM     33  C   UNL d   1      26.593 -10.426  -9.079  0.00  0.00     0.292 C 
ATOM     34  O   UNL d   1      26.016 -11.460  -9.344  0.00  0.00    -0.260 OA
BRANCH  33  35
ATOM     35  O   UNL d   1      26.424  -9.243  -9.734  0.00  0.00    -0.323 OA
ATOM     36  C   UNL d   1      27.646  -8.697 -10.260  0.00  0.00     0.213 C 
ENDBRANCH  33  35
ENDBRANCH  32  33
ENDBRANCH   1  24
TORSDOF 5
ENDMDL
MODEL 8
REMARK VINA RESULT:    -8.215      1.997      2.597
REMARK INTER + INTRA:         -10.735
REMARK INTER:                  -9.706
REMARK INTRA:                  -1.029
REMARK CONF_INDEPENDENT:        1.492
REMARK UNBOUND:                -1.029
REMARK  5 active torsions:
REMARK  status: ('A' for Active; 'I' for Inactive)
REMARK    1  A    between atoms: O_2  and  C_3 
REMARK    2  A    between atoms: C_3  and  C_5 
REMARK    3  A    between atoms: C_13  and  N_14 
REMARK       I    between atoms: N_14  and  C_15 
REMARK       I    between atoms: C_15  and  N_17 
REMARK    4  A    between atoms: N_17  and  C_18 
REMARK    5  A    between atoms: C_22  and  C_21 
ROOT
ATOM      1  N   UNL d   1      26.663 -13.349  -0.054  0.00  0.00    -0.325 N 
ATOM      2  C   UNL d   1      27.456 -13.048   1.046  0.00  0.00     0.321 C 
ATOM      3  O   UNL d   1      28.370 -13.780   1.369  0.00  0.00    -0.247 OA
ATOM      4  N   UNL d   1      27.187 -11.881   1.754  0.00  0.00    -0.309 N 
ATOM      5  H   UNL d   1      25.775 -12.910  -0.242  0.00  0.00     0.165 HD
ATOM      6  H   UNL d   1      26.239 -11.530   1.723  0.00  0.00     0.170 HD
ENDROOT
BRANCH   4   7
ATOM      7  C   UNL d   1      28.074 -11.480   2.846  0.00  0.00     0.036 C 
ATOM      8  C   UNL d   1      28.271 -10.165   3.233  0.00  0.00     0.030 C 
ATOM      9  C   UNL d   1      29.195  -9.829   4.315  0.00  0.00     0.011 C 
ATOM     10  C   UNL d   1      29.841 -10.773   5.238  0.00  0.00    -0.036 C 
ATOM     11  C   UNL d   1      29.725 -12.070   4.707  0.00  0.00     0.011 C 
ATOM     12  C   UNL d   1      28.861 -12.400   3.562  0.00  0.00     0.030 C 
BRANCH  10  13
ATOM     13  C   UNL d   1      30.802 -10.309   6.622  0.00  0.00     0.117 C 
ATOM     14  C   UNL d   1      31.304 -10.950   8.211  0.00  0.00     0.011 C 
ATOM     15  C   UNL d   1      30.292 -11.438   8.964  0.00  0.00    -0.015 C 
ATOM     16  C   UNL d   1      29.686 -12.067  10.141  0.00  0.00     0.036 C 
ATOM     17  C   UNL d   1      29.319 -10.889   8.057  0.00  0.00     0.019 C 
ATOM     18  C   UNL d   1      28.646 -12.889   9.819  0.00  0.00     0.035 C 
ATOM     19 CL   UNL d   1      27.982 -14.086  10.863  0.00  0.00    -0.084 Cl
ATOM     20  C   UNL d   1      28.155 -12.947   8.458  0.00  0.00     0.026 C 
ATOM     21  C   UNL d   1      28.507 -12.004   7.569  0.00  0.00     0.026 C 
ATOM     22  N   UNL d   1      29.686  -9.797   7.437  0.00  0.00    -0.280 NA
ATOM     23  H   UNL d   1      30.198  -9.058   7.935  0.00  0.00     0.128 HD
ENDBRANCH  10  13
ENDBRANCH   4   7
BRANCH   1  24
ATOM     24  C   UNL d   1      26.981 -14.589  -0.788  0.00  0.00     0.189 C 
ATOM     25  S   UNL d   1      27.473 -15.976   0.310  0.00  0.00    -0.129 SA
ATOM     26  C   UNL d   1      25.903 -16.853   0.075  0.00  0.00     0.079 C 
ATOM     27  C   UNL d   1      25.506 -18.243   0.586  0.00  0.00     0.020 C 
ATOM     28  C   UNL d   1      25.219 -16.259  -1.142  0.00  0.00    -0.051 C 
ATOM     29  C   UNL d   1      24.338 -18.905  -0.145  0.00  0.00     0.002 C 
ATOM     30  C   UNL d   1      23.349 -17.883  -0.704  0.00  0.00     0.004 C 
ATOM     31  C   UNL d   1      24.038 -16.996  -1.749  0.00  0.00     0.036 C 
ATOM     32  C   UNL d   1      25.776 -15.094  -1.553  0.00  0.00     0.053 C 
BRANCH  32  33
ATOM     33  C   UNL d   1      25.468 -14.356  -2.809  0.00  0.00     0.292 C 
ATOM     34  O   UNL d   1      25.155 -14.919  -3.837  0.00  0.00    -0.260 OA
BRANCH  33  35
ATOM     35  O   UNL d   1      25.628 -13.010  -2.669  0.00  0.00    -0.323 OA
ATOM     36  C   UNL d   1      26.741 -12.483  -3.411  0.00  0.00     0.213 C 
ENDBRANCH  33  35
ENDBRANCH  32  33
ENDBRANCH   1  24
TORSDOF 5
ENDMDL
MODEL 9
REMARK VINA RESULT:    -7.947      2.533      4.214
REMARK INTER + INTRA:         -10.927
REMARK INTER:                  -9.438
REMARK INTRA:                  -1.489
REMARK CONF_INDEPENDENT:        1.492
REMARK UNBOUND:                -1.489
REMARK  5 active torsions:
REMARK  status: ('A' for Active; 'I' for Inactive)
REMARK    1  A    between atoms: O_2  and  C_3 
REMARK    2  A    between atoms: C_3  and  C_5 
REMARK    3  A    between atoms: C_13  and  N_14 
REMARK       I    between atoms: N_14  and  C_15 
REMARK       I    between atoms: C_15  and  N_17 
REMARK    4  A    between atoms: N_17  and  C_18 
REMARK    5  A    between atoms: C_22  and  C_21 
ROOT
ATOM      1  N   UNL d   1      27.516 -16.521  -1.081  0.00  0.00    -0.325 N 
ATOM      2  C   UNL d   1      27.660 -15.391  -0.287  0.00  0.00     0.321 C 
ATOM      3  O   UNL d   1      27.261 -14.310  -0.670  0.00  0.00    -0.247 OA
ATOM      4  N   UNL d   1      28.257 -15.533   0.962  0.00  0.00    -0.309 N 
ATOM      5  H   UNL d   1      28.008 -17.386  -0.920  0.00  0.00     0.165 HD
ATOM      6  H   UNL d   1      28.906 -16.301   1.079  0.00  0.00     0.170 HD
ENDROOT
BRANCH   4   7
ATOM      7  C   UNL d   1      28.321 -14.386   1.866  0.00  0.00     0.036 C 
ATOM      8  C   UNL d   1      27.270 -13.507   2.070  0.00  0.00     0.030 C 
ATOM      9  C   UNL d   1      27.410 -12.361   2.966  0.00  0.00     0.011 C 
ATOM     10  C   UNL d   1      28.525 -12.104   3.891  0.00  0.00    -0.036 C 
ATOM     11  C   UNL d   1      29.604 -12.931   3.532  0.00  0.00     0.011 C 
ATOM     12  C   UNL d   1      29.491 -14.035   2.565  0.00  0.00     0.030 C 
BRANCH  10  13
ATOM     13  C   UNL d   1      28.564 -10.811   5.065  0.00  0.00     0.117 C 
ATOM     14  C   UNL d   1      29.194 -10.471   6.701  0.00  0.00     0.011 C 
ATOM     15  C   UNL d   1      28.903 -11.419   7.621  0.00  0.00    -0.015 C 
ATOM     16  C   UNL d   1      28.917 -12.041   8.949  0.00  0.00     0.036 C 
ATOM     17  C   UNL d   1      27.992 -12.061   6.710  0.00  0.00     0.019 C 
ATOM     18  C   UNL d   1      28.998 -13.401   8.890  0.00  0.00     0.035 C 
ATOM     19 CL   UNL d   1      29.447 -14.415  10.206  0.00  0.00    -0.084 Cl
ATOM     20  C   UNL d   1      28.908 -14.083   7.616  0.00  0.00     0.026 C 
ATOM     21  C   UNL d   1      28.461 -13.435   6.529  0.00  0.00     0.026 C 
ATOM     22  N   UNL d   1      27.405 -11.265   5.854  0.00  0.00    -0.280 NA
ATOM     23  H   UNL d   1      27.059 -10.343   6.147  0.00  0.00     0.128 HD
ENDBRANCH  10  13
ENDBRANCH   4   7
BRANCH   1  24
ATOM     24  C   UNL d   1      26.871 -16.336  -2.395  0.00  0.00     0.189 C 
ATOM     25  S   UNL d   1      25.258 -15.463  -2.296  0.00  0.00    -0.129 SA
ATOM     26  C   UNL d   1      25.932 -13.928  -2.989  0.00  0.00     0.079 C 
ATOM     27  C   UNL d   1      25.179 -12.648  -3.370  0.00  0.00     0.020 C 
ATOM     28  C   UNL d   1      27.261 -14.260  -3.643  0.00  0.00    -0.051 C 
ATOM     29  C   UNL d   1      25.905 -11.723  -4.346  0.00  0.00     0.002 C 
ATOM     30  C   UNL d   1      27.424 -11.816  -4.215  0.00  0.00     0.004 C 
ATOM     31  C   UNL d   1      27.900 -13.234  -4.561  0.00  0.00     0.036 C 
ATOM     32  C   UNL d   1      27.729 -15.487  -3.310  0.00  0.00     0.053 C 
BRANCH  32  33
ATOM     33  C   UNL d   1      28.896 -16.187  -3.913  0.00  0.00     0.292 C 
ATOM     34  O   UNL d   1      29.231 -16.022  -5.067  0.00  0.00    -0.260 OA
BRANCH  33  35
ATOM     35  O   UNL d   1      29.490 -17.048  -3.038  0.00  0.00    -0.323 OA
ATOM     36  C   UNL d   1      30.841 -16.687  -2.704  0.00  0.00     0.213 C 
ENDBRANCH  33  35
ENDBRANCH  32  33
ENDBRANCH   1  24
TORSDOF 5
ENDMDL
