MODEL 1
REMARK VINA RESULT:    -8.416      0.000      0.000
REMARK INTER + INTRA:         -11.283
REMARK INTER:                 -10.206
REMARK INTRA:                  -1.077
REMARK CONF_INDEPENDENT:        1.790
REMARK UNBOUND:                -1.077
REMARK  6 active torsions:
REMARK  status: ('A' for Active; 'I' for Inactive)
REMARK    1  A    between atoms: C_4  and  N_5 
REMARK    2  A    between atoms: C_10  and  C_11 
REMARK    3  A    between atoms: C_14  and  C_15 
REMARK    4  A    between atoms: C_16  and  C_19 
REMARK       I    between atoms: C_19  and  N_21 
REMARK    5  A    between atoms: N_21  and  C_22 
REMARK    6  A    between atoms: C_24  and  C_25 
ROOT
ATOM      1  C   UNL d   1      26.616 -12.949  -2.594  0.00  0.00     0.064 C 
ATOM      2  C   UNL d   1      26.487 -12.994  -3.949  0.00  0.00     0.101 C 
ATOM      3  C   UNL d   1      25.968 -14.293  -4.544  0.00  0.00     0.025 C 
ATOM      4  N   UNL d   1      25.536 -15.371  -5.036  0.00  0.00    -0.096 N 
ENDROOT
BRANCH   2   5
ATOM      5  C   UNL d   1      26.854 -11.827  -4.821  0.00  0.00     0.265 C 
ATOM      6  O   UNL d   1      28.006 -11.388  -4.758  0.00  0.00    -0.267 OA
ATOM      7  N   UNL d   1      25.866 -11.257  -5.621  0.00  0.00    -0.321 N 
ATOM      8  H   UNL d   1      24.884 -11.481  -5.481  0.00  0.00     0.169 HD
BRANCH   7   9
ATOM      9  C   UNL d   1      26.119 -10.174  -6.524  0.00  0.00     0.057 A 
ATOM     10  C   UNL d   1      25.498  -8.935  -6.324  0.00  0.00     0.047 A 
ATOM     11  C   UNL d   1      25.754  -7.828  -7.155  0.00  0.00     0.050 A 
ATOM     12  C   UNL d   1      26.643  -7.971  -8.228  0.00  0.00     0.018 A 
ATOM     13  C   UNL d   1      27.266  -9.201  -8.454  0.00  0.00     0.027 A 
ATOM     14  C   UNL d   1      27.020 -10.289  -7.600  0.00  0.00     0.060 A 
ATOM     15 CL   UNL d   1      27.780 -11.796  -7.972  0.00  0.00    -0.082 Cl
BRANCH  11  16
ATOM     16  C   UNL d   1      25.081  -6.504  -6.883  0.00  0.00     0.417 C 
ATOM     17  F   UNL d   1      23.936  -6.646  -6.162  0.00  0.00    -0.166 F 
ATOM     18  F   UNL d   1      25.871  -5.654  -6.174  0.00  0.00    -0.166 F 
ATOM     19  F   UNL d   1      24.725  -5.834  -8.014  0.00  0.00    -0.166 F 
ENDBRANCH  11  16
ENDBRANCH   7   9
ENDBRANCH   2   5
BRANCH   1  20
ATOM     20  C   UNL d   1      26.276 -14.061  -1.716  0.00  0.00     0.077 A 
ATOM     21  C   UNL d   1      26.933 -14.555  -0.591  0.00  0.00     0.040 A 
ATOM     22  C   UNL d   1      26.277 -15.648  -0.061  0.00  0.00     0.041 A 
ATOM     23  C   UNL d   1      25.165 -15.795  -0.826  0.00  0.00     0.086 A 
ATOM     24  O   UNL d   1      25.143 -14.882  -1.851  0.00  0.00    -0.310 OA
BRANCH  23  25
ATOM     25  C   UNL d   1      24.084 -16.732  -0.621  0.00  0.00     0.004 A 
ATOM     26  C   UNL d   1      22.772 -16.336  -0.905  0.00  0.00     0.017 A 
ATOM     27  C   UNL d   1      21.739 -17.274  -0.895  0.00  0.00     0.037 A 
ATOM     28  C   UNL d   1      22.023 -18.613  -0.597  0.00  0.00     0.103 A 
ATOM     29  C   UNL d   1      23.336 -19.030  -0.342  0.00  0.00     0.043 A 
ATOM     30  C   UNL d   1      24.380 -18.096  -0.364  0.00  0.00    -0.047 A 
ATOM     31  C   UNL d   1      25.796 -18.576  -0.145  0.00  0.00     0.049 C 
BRANCH  28  32
ATOM     32  N   UNL d   1      20.933 -19.596  -0.545  0.00  0.00    -0.116 N 
ATOM     33  O   UNL d   1      20.280 -19.792  -1.576  0.00  0.00    -0.532 OA
ATOM     34  O   UNL d   1      20.737 -20.178   0.536  0.00  0.00    -0.532 OA
ENDBRANCH  28  32
ENDBRANCH  23  25
ENDBRANCH   1  20
TORSDOF 6
ENDMDL
MODEL 2
REMARK VINA RESULT:    -8.167      2.244      2.707
REMARK INTER + INTRA:         -11.005
REMARK INTER:                  -9.956
REMARK INTRA:                  -1.049
REMARK CONF_INDEPENDENT:        1.790
REMARK UNBOUND:                -1.049
REMARK  6 active torsions:
REMARK  status: ('A' for Active; 'I' for Inactive)
REMARK    1  A    between atoms: C_4  and  N_5 
REMARK    2  A    between atoms: C_10  and  C_11 
REMARK    3  A    between atoms: C_14  and  C_15 
REMARK    4  A    between atoms: C_16  and  C_19 
REMARK       I    between atoms: C_19  and  N_21 
REMARK    5  A    between atoms: N_21  and  C_22 
REMARK    6  A    between atoms: C_24  and  C_25 
ROOT
ATOM      1  C   UNL d   1      26.994 -13.320  -2.783  0.00  0.00     0.064 C 
ATOM      2  C   UNL d   1      26.211 -12.832  -3.784  0.00  0.00     0.101 C 
ATOM      3  C   UNL d   1      24.782 -13.345  -3.846  0.00  0.00     0.025 C 
ATOM      4  N   UNL d   1      23.595 -13.771  -3.897  0.00  0.00    -0.096 N 
ENDROOT
BRANCH   2   5
ATOM      5  C   UNL d   1      26.732 -11.846  -4.791  0.00  0.00     0.265 C 
ATOM      6  O   UNL d   1      27.948 -11.800  -4.992  0.00  0.00    -0.267 OA
ATOM      7  N   UNL d   1      25.826 -10.989  -5.414  0.00  0.00    -0.321 N 
ATOM      8  H   UNL d   1      24.877 -10.884  -5.065  0.00  0.00     0.169 HD
BRANCH   7   9
ATOM      9  C   UNL d   1      26.209 -10.046  -6.423  0.00  0.00     0.057 A 
ATOM     10  C   UNL d   1      27.219 -10.370  -7.337  0.00  0.00     0.047 A 
ATOM     11  C   UNL d   1      27.594  -9.497  -8.376  0.00  0.00     0.050 A 
ATOM     12  C   UNL d   1      26.952  -8.257  -8.491  0.00  0.00     0.018 A 
ATOM     13  C   UNL d   1      25.949  -7.907  -7.584  0.00  0.00     0.027 A 
ATOM     14  C   UNL d   1      25.568  -8.801  -6.568  0.00  0.00     0.060 A 
ATOM     15 CL   UNL d   1      24.361  -8.280  -5.445  0.00  0.00    -0.082 Cl
BRANCH  11  16
ATOM     16  C   UNL d   1      28.670  -9.902  -9.355  0.00  0.00     0.417 C 
ATOM     17  F   UNL d   1      28.223 -10.808 -10.267  0.00  0.00    -0.166 F 
ATOM     18  F   UNL d   1      29.146  -8.849 -10.071  0.00  0.00    -0.166 F 
ATOM     19  F   UNL d   1      29.753 -10.477  -8.762  0.00  0.00    -0.166 F 
ENDBRANCH  11  16
ENDBRANCH   7   9
ENDBRANCH   2   5
BRANCH   1  20
ATOM     20  C   UNL d   1      26.527 -14.279  -1.791  0.00  0.00     0.077 A 
ATOM     21  C   UNL d   1      27.028 -14.586  -0.528  0.00  0.00     0.040 A 
ATOM     22  C   UNL d   1      26.293 -15.583   0.080  0.00  0.00     0.041 A 
ATOM     23  C   UNL d   1      25.285 -15.855  -0.788  0.00  0.00     0.086 A 
ATOM     24  O   UNL d   1      25.408 -15.117  -1.938  0.00  0.00    -0.310 OA
BRANCH  23  25
ATOM     25  C   UNL d   1      24.172 -16.753  -0.578  0.00  0.00     0.004 A 
ATOM     26  C   UNL d   1      22.880 -16.331  -0.912  0.00  0.00     0.017 A 
ATOM     27  C   UNL d   1      21.820 -17.239  -0.895  0.00  0.00     0.037 A 
ATOM     28  C   UNL d   1      22.057 -18.573  -0.540  0.00  0.00     0.103 A 
ATOM     29  C   UNL d   1      23.350 -19.017  -0.233  0.00  0.00     0.043 A 
ATOM     30  C   UNL d   1      24.421 -18.115  -0.261  0.00  0.00    -0.047 A 
ATOM     31  C   UNL d   1      25.817 -18.625   0.014  0.00  0.00     0.049 C 
BRANCH  28  32
ATOM     32  N   UNL d   1      20.938 -19.522  -0.481  0.00  0.00    -0.116 N 
ATOM     33  O   UNL d   1      20.688 -20.055   0.606  0.00  0.00    -0.532 OA
ATOM     34  O   UNL d   1      20.304 -19.728  -1.530  0.00  0.00    -0.532 OA
ENDBRANCH  28  32
ENDBRANCH  23  25
ENDBRANCH   1  20
TORSDOF 6
ENDMDL
MODEL 3
REMARK VINA RESULT:    -8.120      4.229      4.849
REMARK INTER + INTRA:         -11.233
REMARK INTER:                  -9.910
REMARK INTRA:                  -1.323
REMARK CONF_INDEPENDENT:        1.790
REMARK UNBOUND:                -1.323
REMARK  6 active torsions:
REMARK  status: ('A' for Active; 'I' for Inactive)
REMARK    1  A    between atoms: C_4  and  N_5 
REMARK    2  A    between atoms: C_10  and  C_11 
REMARK    3  A    between atoms: C_14  and  C_15 
REMARK    4  A    between atoms: C_16  and  C_19 
REMARK       I    between atoms: C_19  and  N_21 
REMARK    5  A    between atoms: N_21  and  C_22 
REMARK    6  A    between atoms: C_24  and  C_25 
ROOT
ATOM      1  C   UNL d   1      27.751 -15.115  -3.751  0.00  0.00     0.064 C 
ATOM      2  C   UNL d   1      27.319 -14.398  -4.825  0.00  0.00     0.101 C 
ATOM      3  C   UNL d   1      25.922 -13.807  -4.736  0.00  0.00     0.025 C 
ATOM      4  N   UNL d   1      24.762 -13.317  -4.661  0.00  0.00    -0.096 N 
ENDROOT
BRANCH   2   5
ATOM      5  C   UNL d   1      28.170 -14.209  -6.049  0.00  0.00     0.265 C 
ATOM      6  O   UNL d   1      28.517 -15.211  -6.682  0.00  0.00    -0.267 OA
ATOM      7  N   UNL d   1      28.577 -12.920  -6.386  0.00  0.00    -0.321 N 
ATOM      8  H   UNL d   1      28.478 -12.150  -5.728  0.00  0.00     0.169 HD
BRANCH   7   9
ATOM      9  C   UNL d   1      29.348 -12.623  -7.557  0.00  0.00     0.057 A 
ATOM     10  C   UNL d   1      30.668 -13.077  -7.659  0.00  0.00     0.047 A 
ATOM     11  C   UNL d   1      31.448 -12.853  -8.810  0.00  0.00     0.050 A 
ATOM     12  C   UNL d   1      30.895 -12.139  -9.880  0.00  0.00     0.018 A 
ATOM     13  C   UNL d   1      29.583 -11.666  -9.797  0.00  0.00     0.027 A 
ATOM     14  C   UNL d   1      28.809 -11.921  -8.651  0.00  0.00     0.060 A 
ATOM     15 CL   UNL d   1      27.214 -11.258  -8.592  0.00  0.00    -0.082 Cl
BRANCH  11  16
ATOM     16  C   UNL d   1      32.859 -13.385  -8.885  0.00  0.00     0.417 C 
ATOM     17  F   UNL d   1      33.493 -13.337  -7.682  0.00  0.00    -0.166 F 
ATOM     18  F   UNL d   1      32.905 -14.685  -9.284  0.00  0.00    -0.166 F 
ATOM     19  F   UNL d   1      33.653 -12.696  -9.751  0.00  0.00    -0.166 F 
ENDBRANCH  11  16
ENDBRANCH   7   9
ENDBRANCH   2   5
BRANCH   1  20
ATOM     20  C   UNL d   1      26.954 -15.323  -2.550  0.00  0.00     0.077 A 
ATOM     21  C   UNL d   1      27.018 -14.698  -1.306  0.00  0.00     0.040 A 
ATOM     22  C   UNL d   1      26.086 -15.217  -0.431  0.00  0.00     0.041 A 
ATOM     23  C   UNL d   1      25.391 -16.130  -1.158  0.00  0.00     0.086 A 
ATOM     24  O   UNL d   1      25.903 -16.247  -2.426  0.00  0.00    -0.310 OA
BRANCH  23  25
ATOM     25  C   UNL d   1      24.231 -16.879  -0.734  0.00  0.00     0.004 A 
ATOM     26  C   UNL d   1      22.958 -16.452  -1.130  0.00  0.00     0.017 A 
ATOM     27  C   UNL d   1      21.843 -17.257  -0.895  0.00  0.00     0.037 A 
ATOM     28  C   UNL d   1      22.004 -18.493  -0.257  0.00  0.00     0.103 A 
ATOM     29  C   UNL d   1      23.275 -18.949   0.117  0.00  0.00     0.043 A 
ATOM     30  C   UNL d   1      24.401 -18.152  -0.129  0.00  0.00    -0.047 A 
ATOM     31  C   UNL d   1      25.769 -18.686   0.228  0.00  0.00     0.049 C 
BRANCH  28  32
ATOM     32  N   UNL d   1      20.829 -19.325   0.030  0.00  0.00    -0.116 N 
ATOM     33  O   UNL d   1      20.451 -19.409   1.204  0.00  0.00    -0.532 OA
ATOM     34  O   UNL d   1      20.280 -19.894  -0.930  0.00  0.00    -0.532 OA
ENDBRANCH  28  32
ENDBRANCH  23  25
ENDBRANCH   1  20
TORSDOF 6
ENDMDL
MODEL 4
REMARK VINA RESULT:    -8.114      5.230      6.134
REMARK INTER + INTRA:         -11.033
REMARK INTER:                  -9.903
REMARK INTRA:                  -1.130
REMARK CONF_INDEPENDENT:        1.790
REMARK UNBOUND:                -1.130
REMARK  6 active torsions:
REMARK  status: ('A' for Active; 'I' for Inactive)
REMARK    1  A    between atoms: C_4  and  N_5 
REMARK    2  A    between atoms: C_10  and  C_11 
REMARK    3  A    between atoms: C_14  and  C_15 
REMARK    4  A    between atoms: C_16  and  C_19 
REMARK       I    between atoms: C_19  and  N_21 
REMARK    5  A    between atoms: N_21  and  C_22 
REMARK    6  A    between atoms: C_24  and  C_25 
ROOT
ATOM      1  C   UNL d   1      28.501 -15.173  -3.256  0.00  0.00     0.064 C 
ATOM      2  C   UNL d   1      28.209 -15.259  -4.583  0.00  0.00     0.101 C 
ATOM      3  C   UNL d   1      26.745 -15.439  -4.952  0.00  0.00     0.025 C 
ATOM      4  N   UNL d   1      25.530 -15.588  -5.257  0.00  0.00    -0.096 N 
ENDROOT
BRANCH   2   5
ATOM      5  C   UNL d   1      29.277 -15.195  -5.638  0.00  0.00     0.265 C 
ATOM      6  O   UNL d   1      29.516 -14.106  -6.166  0.00  0.00    -0.267 OA
ATOM      7  N   UNL d   1      29.914 -16.376  -6.012  0.00  0.00    -0.321 N 
ATOM      8  H   UNL d   1      29.543 -17.283  -5.738  0.00  0.00     0.169 HD
BRANCH   7   9
ATOM      9  C   UNL d   1      30.979 -16.421  -6.970  0.00  0.00     0.057 A 
ATOM     10  C   UNL d   1      31.575 -15.233  -7.411  0.00  0.00     0.047 A 
ATOM     11  C   UNL d   1      32.656 -15.230  -8.313  0.00  0.00     0.050 A 
ATOM     12  C   UNL d   1      33.142 -16.450  -8.800  0.00  0.00     0.018 A 
ATOM     13  C   UNL d   1      32.557 -17.648  -8.383  0.00  0.00     0.027 A 
ATOM     14  C   UNL d   1      31.495 -17.635  -7.462  0.00  0.00     0.060 A 
ATOM     15 CL   UNL d   1      30.780 -19.150  -7.034  0.00  0.00    -0.082 Cl
BRANCH  11  16
ATOM     16  C   UNL d   1      33.283 -13.925  -8.739  0.00  0.00     0.417 C 
ATOM     17  F   UNL d   1      32.364 -13.043  -9.218  0.00  0.00    -0.166 F 
ATOM     18  F   UNL d   1      33.916 -13.292  -7.715  0.00  0.00    -0.166 F 
ATOM     19  F   UNL d   1      34.211 -14.066  -9.727  0.00  0.00    -0.166 F 
ENDBRANCH  11  16
ENDBRANCH   7   9
ENDBRANCH   2   5
BRANCH   1  20
ATOM     20  C   UNL d   1      27.493 -15.235  -2.206  0.00  0.00     0.077 A 
ATOM     21  C   UNL d   1      27.270 -14.391  -1.120  0.00  0.00     0.040 A 
ATOM     22  C   UNL d   1      26.215 -14.829  -0.346  0.00  0.00     0.041 A 
ATOM     23  C   UNL d   1      25.734 -15.921  -0.994  0.00  0.00     0.086 A 
ATOM     24  O   UNL d   1      26.495 -16.217  -2.098  0.00  0.00    -0.310 OA
BRANCH  23  25
ATOM     25  C   UNL d   1      24.559 -16.689  -0.653  0.00  0.00     0.004 A 
ATOM     26  C   UNL d   1      23.299 -16.222  -1.046  0.00  0.00     0.017 A 
ATOM     27  C   UNL d   1      22.173 -17.032  -0.895  0.00  0.00     0.037 A 
ATOM     28  C   UNL d   1      22.310 -18.313  -0.346  0.00  0.00     0.103 A 
ATOM     29  C   UNL d   1      23.568 -18.806   0.023  0.00  0.00     0.043 A 
ATOM     30  C   UNL d   1      24.706 -18.004  -0.139  0.00  0.00    -0.047 A 
ATOM     31  C   UNL d   1      26.061 -18.575   0.209  0.00  0.00     0.049 C 
BRANCH  28  32
ATOM     32  N   UNL d   1      21.122 -19.153  -0.147  0.00  0.00    -0.116 N 
ATOM     33  O   UNL d   1      20.710 -19.310   1.008  0.00  0.00    -0.532 OA
ATOM     34  O   UNL d   1      20.598 -19.654  -1.157  0.00  0.00    -0.532 OA
ENDBRANCH  28  32
ENDBRANCH  23  25
ENDBRANCH   1  20
TORSDOF 6
ENDMDL
MODEL 5
REMARK VINA RESULT:    -7.461      7.387      9.705
REMARK INTER + INTRA:         -10.547
REMARK INTER:                  -9.250
REMARK INTRA:                  -1.297
REMARK CONF_INDEPENDENT:        1.790
REMARK UNBOUND:                -1.297
REMARK  6 active torsions:
REMARK  status: ('A' for Active; 'I' for Inactive)
REMARK    1  A    between atoms: C_4  and  N_5 
REMARK    2  A    between atoms: C_10  and  C_11 
REMARK    3  A    between atoms: C_14  and  C_15 
REMARK    4  A    between atoms: C_16  and  C_19 
REMARK       I    between atoms: C_19  and  N_21 
REMARK    5  A    between atoms: N_21  and  C_22 
REMARK    6  A    between atoms: C_24  and  C_25 
ROOT
ATOM      1  C   UNL d   1      28.962 -14.456   2.354  0.00  0.00     0.064 C 
ATOM      2  C   UNL d   1      28.346 -13.349   2.854  0.00  0.00     0.101 C 
ATOM      3  C   UNL d   1      27.004 -12.978   2.244  0.00  0.00     0.025 C 
ATOM      4  N   UNL d   1      25.890 -12.672   1.737  0.00  0.00    -0.096 N 
ENDROOT
BRANCH   2   5
ATOM      5  C   UNL d   1      28.964 -12.520   3.944  0.00  0.00     0.265 C 
ATOM      6  O   UNL d   1      29.977 -11.867   3.681  0.00  0.00    -0.267 OA
ATOM      7  N   UNL d   1      28.400 -12.567   5.218  0.00  0.00    -0.321 N 
ATOM      8  H   UNL d   1      27.721 -13.283   5.465  0.00  0.00     0.169 HD
BRANCH   7   9
ATOM      9  C   UNL d   1      28.880 -11.780   6.315  0.00  0.00     0.057 A 
ATOM     10  C   UNL d   1      28.928 -10.385   6.208  0.00  0.00     0.047 A 
ATOM     11  C   UNL d   1      29.344  -9.568   7.277  0.00  0.00     0.050 A 
ATOM     12  C   UNL d   1      29.740 -10.167   8.479  0.00  0.00     0.018 A 
ATOM     13  C   UNL d   1      29.712 -11.558   8.606  0.00  0.00     0.027 A 
ATOM     14  C   UNL d   1      29.268 -12.358   7.539  0.00  0.00     0.060 A 
ATOM     15 CL   UNL d   1      29.313 -14.074   7.744  0.00  0.00    -0.082 Cl
BRANCH  11  16
ATOM     16  C   UNL d   1      29.353  -8.066   7.124  0.00  0.00     0.417 C 
ATOM     17  F   UNL d   1      30.386  -7.633   6.350  0.00  0.00    -0.166 F 
ATOM     18  F   UNL d   1      28.220  -7.595   6.538  0.00  0.00    -0.166 F 
ATOM     19  F   UNL d   1      29.472  -7.401   8.306  0.00  0.00    -0.166 F 
ENDBRANCH  11  16
ENDBRANCH   7   9
ENDBRANCH   2   5
BRANCH   1  20
ATOM     20  C   UNL d   1      28.397 -15.282   1.296  0.00  0.00     0.077 A 
ATOM     21  C   UNL d   1      29.016 -15.924   0.226  0.00  0.00     0.040 A 
ATOM     22  C   UNL d   1      28.102 -16.590  -0.564  0.00  0.00     0.041 A 
ATOM     23  C   UNL d   1      26.907 -16.414   0.058  0.00  0.00     0.086 A 
ATOM     24  O   UNL d   1      27.036 -15.607   1.160  0.00  0.00    -0.310 OA
BRANCH  23  25
ATOM     25  C   UNL d   1      25.639 -17.004  -0.308  0.00  0.00     0.004 A 
ATOM     26  C   UNL d   1      25.167 -18.109   0.410  0.00  0.00     0.017 A 
ATOM     27  C   UNL d   1      23.869 -18.577   0.202  0.00  0.00     0.037 A 
ATOM     28  C   UNL d   1      23.044 -17.937  -0.731  0.00  0.00     0.103 A 
ATOM     29  C   UNL d   1      23.491 -16.810  -1.434  0.00  0.00     0.043 A 
ATOM     30  C   UNL d   1      24.789 -16.326  -1.220  0.00  0.00    -0.047 A 
ATOM     31  C   UNL d   1      25.233 -15.075  -1.943  0.00  0.00     0.049 C 
BRANCH  28  32
ATOM     32  N   UNL d   1      21.692 -18.451  -0.983  0.00  0.00    -0.116 N 
ATOM     33  O   UNL d   1      20.746 -17.659  -0.905  0.00  0.00    -0.532 OA
ATOM     34  O   UNL d   1      21.580 -19.656  -1.268  0.00  0.00    -0.532 OA
ENDBRANCH  28  32
ENDBRANCH  23  25
ENDBRANCH   1  20
TORSDOF 6
ENDMDL
MODEL 6
REMARK VINA RESULT:    -7.436      4.635      5.253
REMARK INTER + INTRA:         -10.568
REMARK INTER:                  -9.226
REMARK INTRA:                  -1.342
REMARK CONF_INDEPENDENT:        1.790
REMARK UNBOUND:                -1.342
REMARK  6 active torsions:
REMARK  status: ('A' for Active; 'I' for Inactive)
REMARK    1  A    between atoms: C_4  and  N_5 
REMARK    2  A    between atoms: C_10  and  C_11 
REMARK    3  A    between atoms: C_14  and  C_15 
REMARK    4  A    between atoms: C_16  and  C_19 
REMARK       I    between atoms: C_19  and  N_21 
REMARK    5  A    between atoms: N_21  and  C_22 
REMARK    6  A    between atoms: C_24  and  C_25 
ROOT
ATOM      1  C   UNL d   1      28.742 -15.098  -2.613  0.00  0.00     0.064 C 
ATOM      2  C   UNL d   1      28.630 -15.064  -3.969  0.00  0.00     0.101 C 
ATOM      3  C   UNL d   1      27.224 -15.136  -4.542  0.00  0.00     0.025 C 
ATOM      4  N   UNL d   1      26.057 -15.195  -5.017  0.00  0.00    -0.096 N 
ENDROOT
BRANCH   2   5
ATOM      5  C   UNL d   1      29.834 -14.976  -4.864  0.00  0.00     0.265 C 
ATOM      6  O   UNL d   1      30.954 -15.025  -4.346  0.00  0.00    -0.267 OA
ATOM      7  N   UNL d   1      29.637 -14.788  -6.230  0.00  0.00    -0.321 N 
ATOM      8  H   UNL d   1      28.727 -14.517  -6.597  0.00  0.00     0.169 HD
BRANCH   7   9
ATOM      9  C   UNL d   1      30.712 -14.739  -7.177  0.00  0.00     0.057 A 
ATOM     10  C   UNL d   1      31.027 -13.534  -7.816  0.00  0.00     0.047 A 
ATOM     11  C   UNL d   1      32.105 -13.426  -8.715  0.00  0.00     0.050 A 
ATOM     12  C   UNL d   1      32.877 -14.560  -8.995  0.00  0.00     0.018 A 
ATOM     13  C   UNL d   1      32.575 -15.776  -8.378  0.00  0.00     0.027 A 
ATOM     14  C   UNL d   1      31.511 -15.862  -7.462  0.00  0.00     0.060 A 
ATOM     15 CL   UNL d   1      31.157 -17.409  -6.780  0.00  0.00    -0.082 Cl
BRANCH  11  16
ATOM     16  C   UNL d   1      32.424 -12.098  -9.360  0.00  0.00     0.417 C 
ATOM     17  F   UNL d   1      32.512 -11.090  -8.449  0.00  0.00    -0.166 F 
ATOM     18  F   UNL d   1      33.611 -12.112 -10.023  0.00  0.00    -0.166 F 
ATOM     19  F   UNL d   1      31.489 -11.697 -10.266  0.00  0.00    -0.166 F 
ENDBRANCH  11  16
ENDBRANCH   7   9
ENDBRANCH   2   5
BRANCH   1  20
ATOM     20  C   UNL d   1      27.599 -15.188  -1.714  0.00  0.00     0.077 A 
ATOM     21  C   UNL d   1      27.176 -14.324  -0.705  0.00  0.00     0.040 A 
ATOM     22  C   UNL d   1      26.046 -14.801  -0.072  0.00  0.00     0.041 A 
ATOM     23  C   UNL d   1      25.725 -15.941  -0.737  0.00  0.00     0.086 A 
ATOM     24  O   UNL d   1      26.652 -16.226  -1.708  0.00  0.00    -0.310 OA
BRANCH  23  25
ATOM     25  C   UNL d   1      24.558 -16.768  -0.534  0.00  0.00     0.004 A 
ATOM     26  C   UNL d   1      23.301 -16.278  -0.905  0.00  0.00     0.017 A 
ATOM     27  C   UNL d   1      22.189 -17.122  -0.895  0.00  0.00     0.037 A 
ATOM     28  C   UNL d   1      22.339 -18.460  -0.509  0.00  0.00     0.103 A 
ATOM     29  C   UNL d   1      23.596 -18.972  -0.165  0.00  0.00     0.043 A 
ATOM     30  C   UNL d   1      24.720 -18.135  -0.186  0.00  0.00    -0.047 A 
ATOM     31  C   UNL d   1      26.077 -18.720   0.130  0.00  0.00     0.049 C 
BRANCH  28  32
ATOM     32  N   UNL d   1      21.165 -19.341  -0.457  0.00  0.00    -0.116 N 
ATOM     33  O   UNL d   1      20.661 -19.698  -1.528  0.00  0.00    -0.532 OA
ATOM     34  O   UNL d   1      20.751 -19.679   0.665  0.00  0.00    -0.532 OA
ENDBRANCH  28  32
ENDBRANCH  23  25
ENDBRANCH   1  20
TORSDOF 6
ENDMDL
MODEL 7
REMARK VINA RESULT:    -7.402      8.257     10.614
REMARK INTER + INTRA:         -10.477
REMARK INTER:                  -9.192
REMARK INTRA:                  -1.286
REMARK CONF_INDEPENDENT:        1.790
REMARK UNBOUND:                -1.286
REMARK  6 active torsions:
REMARK  status: ('A' for Active; 'I' for Inactive)
REMARK    1  A    between atoms: C_4  and  N_5 
REMARK    2  A    between atoms: C_10  and  C_11 
REMARK    3  A    between atoms: C_14  and  C_15 
REMARK    4  A    between atoms: C_16  and  C_19 
REMARK       I    between atoms: C_19  and  N_21 
REMARK    5  A    between atoms: N_21  and  C_22 
REMARK    6  A    between atoms: C_24  and  C_25 
ROOT
ATOM      1  C   UNL d   1      28.948 -14.450   2.559  0.00  0.00     0.064 C 
ATOM      2  C   UNL d   1      28.362 -13.330   3.066  0.00  0.00     0.101 C 
ATOM      3  C   UNL d   1      27.094 -12.850   2.380  0.00  0.00     0.025 C 
ATOM      4  N   UNL d   1      26.041 -12.453   1.810  0.00  0.00    -0.096 N 
ENDROOT
BRANCH   2   5
ATOM      5  C   UNL d   1      28.945 -12.589   4.237  0.00  0.00     0.265 C 
ATOM      6  O   UNL d   1      30.094 -12.150   4.139  0.00  0.00    -0.267 OA
ATOM      7  N   UNL d   1      28.186 -12.479   5.400  0.00  0.00    -0.321 N 
ATOM      8  H   UNL d   1      27.351 -13.043   5.537  0.00  0.00     0.169 HD
BRANCH   7   9
ATOM      9  C   UNL d   1      28.626 -11.754   6.555  0.00  0.00     0.057 A 
ATOM     10  C   UNL d   1      28.835 -12.426   7.766  0.00  0.00     0.047 A 
ATOM     11  C   UNL d   1      29.314 -11.765   8.913  0.00  0.00     0.050 A 
ATOM     12  C   UNL d   1      29.573 -10.390   8.851  0.00  0.00     0.018 A 
ATOM     13  C   UNL d   1      29.361  -9.696   7.657  0.00  0.00     0.027 A 
ATOM     14  C   UNL d   1      28.907 -10.375   6.513  0.00  0.00     0.060 A 
ATOM     15 CL   UNL d   1      28.612  -9.445   5.087  0.00  0.00    -0.082 Cl
BRANCH  11  16
ATOM     16  C   UNL d   1      29.550 -12.538  10.189  0.00  0.00     0.417 C 
ATOM     17  F   UNL d   1      28.713 -12.150  11.189  0.00  0.00    -0.166 F 
ATOM     18  F   UNL d   1      29.357 -13.875  10.032  0.00  0.00    -0.166 F 
ATOM     19  F   UNL d   1      30.811 -12.394  10.684  0.00  0.00    -0.166 F 
ENDBRANCH  11  16
ENDBRANCH   7   9
ENDBRANCH   2   5
BRANCH   1  20
ATOM     20  C   UNL d   1      28.416 -15.192   1.424  0.00  0.00     0.077 A 
ATOM     21  C   UNL d   1      29.065 -15.732   0.316  0.00  0.00     0.040 A 
ATOM     22  C   UNL d   1      28.175 -16.342  -0.545  0.00  0.00     0.041 A 
ATOM     23  C   UNL d   1      26.967 -16.238   0.067  0.00  0.00     0.086 A 
ATOM     24  O   UNL d   1      27.063 -15.525   1.236  0.00  0.00    -0.310 OA
BRANCH  23  25
ATOM     25  C   UNL d   1      25.716 -16.814  -0.371  0.00  0.00     0.004 A 
ATOM     26  C   UNL d   1      25.195 -17.918   0.314  0.00  0.00     0.017 A 
ATOM     27  C   UNL d   1      23.906 -18.373   0.032  0.00  0.00     0.037 A 
ATOM     28  C   UNL d   1      23.139 -17.720  -0.942  0.00  0.00     0.103 A 
ATOM     29  C   UNL d   1      23.636 -16.595  -1.613  0.00  0.00     0.043 A 
ATOM     30  C   UNL d   1      24.923 -16.124  -1.325  0.00  0.00    -0.047 A 
ATOM     31  C   UNL d   1      25.418 -14.874  -2.016  0.00  0.00     0.049 C 
BRANCH  28  32
ATOM     32  N   UNL d   1      21.799 -18.220  -1.271  0.00  0.00    -0.116 N 
ATOM     33  O   UNL d   1      20.829 -17.510  -0.984  0.00  0.00    -0.532 OA
ATOM     34  O   UNL d   1      21.721 -19.330  -1.827  0.00  0.00    -0.532 OA
ENDBRANCH  28  32
ENDBRANCH  23  25
ENDBRANCH   1  20
TORSDOF 6
ENDMDL
MODEL 8
REMARK VINA RESULT:    -7.384      5.998      6.828
REMARK INTER + INTRA:         -10.520
REMARK INTER:                  -9.174
REMARK INTRA:                  -1.346
REMARK CONF_INDEPENDENT:        1.790
REMARK UNBOUND:                -1.346
REMARK  6 active torsions:
REMARK  status: ('A' for Active; 'I' for Inactive)
REMARK    1  A    between atoms: C_4  and  N_5 
REMARK    2  A    between atoms: C_10  and  C_11 
REMARK    3  A    between atoms: C_14  and  C_15 
REMARK    4  A    between atoms: C_16  and  C_19 
REMARK       I    between atoms: C_19  and  N_21 
REMARK    5  A    between atoms: N_21  and  C_22 
REMARK    6  A    between atoms: C_24  and  C_25 
ROOT
ATOM      1  C   UNL d   1      28.677 -15.404  -2.592  0.00  0.00     0.064 C 
ATOM      2  C   UNL d   1      28.613 -15.296  -3.948  0.00  0.00     0.101 C 
ATOM      3  C   UNL d   1      27.227 -15.188  -4.561  0.00  0.00     0.025 C 
ATOM      4  N   UNL d   1      26.076 -15.099  -5.070  0.00  0.00    -0.096 N 
ENDROOT
BRANCH   2   5
ATOM      5  C   UNL d   1      29.848 -15.300  -4.804  0.00  0.00     0.265 C 
ATOM      6  O   UNL d   1      30.918 -14.964  -4.290  0.00  0.00    -0.267 OA
ATOM      7  N   UNL d   1      29.723 -15.629  -6.152  0.00  0.00    -0.321 N 
ATOM      8  H   UNL d   1      28.810 -15.672  -6.600  0.00  0.00     0.169 HD
BRANCH   7   9
ATOM      9  C   UNL d   1      30.841 -15.711  -7.045  0.00  0.00     0.057 A 
ATOM     10  C   UNL d   1      31.351 -16.961  -7.416  0.00  0.00     0.047 A 
ATOM     11  C   UNL d   1      32.415 -17.092  -8.329  0.00  0.00     0.050 A 
ATOM     12  C   UNL d   1      32.996 -15.938  -8.870  0.00  0.00     0.018 A 
ATOM     13  C   UNL d   1      32.512 -14.680  -8.506  0.00  0.00     0.027 A 
ATOM     14  C   UNL d   1      31.431 -14.566  -7.614  0.00  0.00     0.060 A 
ATOM     15 CL   UNL d   1      30.920 -12.978  -7.163  0.00  0.00    -0.082 Cl
BRANCH  11  16
ATOM     16  C   UNL d   1      32.913 -18.463  -8.719  0.00  0.00     0.417 C 
ATOM     17  F   UNL d   1      31.907 -19.277  -9.141  0.00  0.00    -0.166 F 
ATOM     18  F   UNL d   1      33.815 -18.419  -9.737  0.00  0.00    -0.166 F 
ATOM     19  F   UNL d   1      33.526 -19.128  -7.700  0.00  0.00    -0.166 F 
ENDBRANCH  11  16
ENDBRANCH   7   9
ENDBRANCH   2   5
BRANCH   1  20
ATOM     20  C   UNL d   1      27.503 -15.408  -1.729  0.00  0.00     0.077 A 
ATOM     21  C   UNL d   1      27.064 -14.468  -0.800  0.00  0.00     0.040 A 
ATOM     22  C   UNL d   1      25.904 -14.878  -0.175  0.00  0.00     0.041 A 
ATOM     23  C   UNL d   1      25.582 -16.056  -0.768  0.00  0.00     0.086 A 
ATOM     24  O   UNL d   1      26.535 -16.426  -1.684  0.00  0.00    -0.310 OA
BRANCH  23  25
ATOM     25  C   UNL d   1      24.392 -16.846  -0.549  0.00  0.00     0.004 A 
ATOM     26  C   UNL d   1      23.148 -16.324  -0.922  0.00  0.00     0.017 A 
ATOM     27  C   UNL d   1      22.012 -17.135  -0.895  0.00  0.00     0.037 A 
ATOM     28  C   UNL d   1      22.124 -18.471  -0.491  0.00  0.00     0.103 A 
ATOM     29  C   UNL d   1      23.368 -19.015  -0.145  0.00  0.00     0.043 A 
ATOM     30  C   UNL d   1      24.515 -18.212  -0.183  0.00  0.00    -0.047 A 
ATOM     31  C   UNL d   1      25.855 -18.832   0.136  0.00  0.00     0.049 C 
BRANCH  28  32
ATOM     32  N   UNL d   1      20.925 -19.316  -0.421  0.00  0.00    -0.116 N 
ATOM     33  O   UNL d   1      20.415 -19.686  -1.484  0.00  0.00    -0.532 OA
ATOM     34  O   UNL d   1      20.498 -19.613   0.708  0.00  0.00    -0.532 OA
ENDBRANCH  28  32
ENDBRANCH  23  25
ENDBRANCH   1  20
TORSDOF 6
ENDMDL
MODEL 9
REMARK VINA RESULT:    -7.242      6.645      9.400
REMARK INTER + INTRA:         -10.145
REMARK INTER:                  -9.032
REMARK INTRA:                  -1.113
REMARK CONF_INDEPENDENT:        1.790
REMARK UNBOUND:                -1.113
REMARK  6 active torsions:
REMARK  status: ('A' for Active; 'I' for Inactive)
REMARK    1  A    between atoms: C_4  and  N_5 
REMARK    2  A    between atoms: C_10  and  C_11 
REMARK    3  A    between atoms: C_14  and  C_15 
REMARK    4  A    between atoms: C_16  and  C_19 
REMARK       I    between atoms: C_19  and  N_21 
REMARK    5  A    between atoms: N_21  and  C_22 
REMARK    6  A    between atoms: C_24  and  C_25 
ROOT
ATOM      1  C   UNL d   1      27.681 -12.047  -5.081  0.00  0.00     0.064 C 
ATOM      2  C   UNL d   1      27.268 -13.344  -5.074  0.00  0.00     0.101 C 
ATOM      3  C   UNL d   1      26.001 -13.656  -4.295  0.00  0.00     0.025 C 
ATOM      4  N   UNL d   1      24.949 -13.913  -3.648  0.00  0.00    -0.096 N 
ENDROOT
BRANCH   2   5
ATOM      5  C   UNL d   1      28.033 -14.424  -5.786  0.00  0.00     0.265 C 
ATOM      6  O   UNL d   1      27.409 -15.200  -6.516  0.00  0.00    -0.267 OA
ATOM      7  N   UNL d   1      29.401 -14.539  -5.550  0.00  0.00    -0.321 N 
ATOM      8  H   UNL d   1      29.843 -14.048  -4.776  0.00  0.00     0.169 HD
BRANCH   7   9
ATOM      9  C   UNL d   1      30.232 -15.501  -6.212  0.00  0.00     0.057 A 
ATOM     10  C   UNL d   1      30.155 -16.853  -5.859  0.00  0.00     0.047 A 
ATOM     11  C   UNL d   1      30.914 -17.841  -6.516  0.00  0.00     0.050 A 
ATOM     12  C   UNL d   1      31.788 -17.459  -7.541  0.00  0.00     0.018 A 
ATOM     13  C   UNL d   1      31.891 -16.114  -7.903  0.00  0.00     0.027 A 
ATOM     14  C   UNL d   1      31.106 -15.144  -7.256  0.00  0.00     0.060 A 
ATOM     15 CL   UNL d   1      31.325 -13.492  -7.714  0.00  0.00    -0.082 Cl
BRANCH  11  16
ATOM     16  C   UNL d   1      30.777 -19.291  -6.119  0.00  0.00     0.417 C 
ATOM     17  F   UNL d   1      30.189 -20.039  -7.092  0.00  0.00    -0.166 F 
ATOM     18  F   UNL d   1      31.977 -19.878  -5.864  0.00  0.00    -0.166 F 
ATOM     19  F   UNL d   1      30.020 -19.478  -5.002  0.00  0.00    -0.166 F 
ENDBRANCH  11  16
ENDBRANCH   7   9
ENDBRANCH   2   5
BRANCH   1  20
ATOM     20  C   UNL d   1      26.970 -10.973  -4.399  0.00  0.00     0.077 A 
ATOM     21  C   UNL d   1      25.850 -10.242  -4.791  0.00  0.00     0.040 A 
ATOM     22  C   UNL d   1      25.511  -9.292  -3.850  0.00  0.00     0.041 A 
ATOM     23  C   UNL d   1      26.390  -9.477  -2.832  0.00  0.00     0.086 A 
ATOM     24  O   UNL d   1      27.303 -10.455  -3.136  0.00  0.00    -0.310 OA
BRANCH  23  25
ATOM     25  C   UNL d   1      26.396  -8.804  -1.553  0.00  0.00     0.004 A 
ATOM     26  C   UNL d   1      25.595  -7.669  -1.374  0.00  0.00     0.017 A 
ATOM     27  C   UNL d   1      25.439  -7.116  -0.103  0.00  0.00     0.037 A 
ATOM     28  C   UNL d   1      26.089  -7.699   0.992  0.00  0.00     0.103 A 
ATOM     29  C   UNL d   1      26.868  -8.853   0.833  0.00  0.00     0.043 A 
ATOM     30  C   UNL d   1      27.018  -9.423  -0.438  0.00  0.00    -0.047 A 
ATOM     31  C   UNL d   1      27.813 -10.701  -0.579  0.00  0.00     0.049 C 
BRANCH  28  32
ATOM     32  N   UNL d   1      25.961  -7.096   2.324  0.00  0.00    -0.116 N 
ATOM     33  O   UNL d   1      25.169  -6.157   2.461  0.00  0.00    -0.532 OA
ATOM     34  O   UNL d   1      26.655  -7.573   3.239  0.00  0.00    -0.532 OA
ENDBRANCH  28  32
ENDBRANCH  23  25
ENDBRANCH   1  20
TORSDOF 6
ENDMDL
