MODEL 1
REMARK VINA RESULT:   -10.817      0.000      0.000
REMARK INTER + INTRA:         -14.132
REMARK INTER:                 -12.308
REMARK INTRA:                  -1.824
REMARK CONF_INDEPENDENT:        1.492
REMARK UNBOUND:                -1.824
REMARK  5 active torsions:
REMARK  status: ('A' for Active; 'I' for Inactive)
REMARK    1  A    between atoms: C_5  and  N_6 
REMARK       I    between atoms: N_6  and  C_7 
REMARK       I    between atoms: C_7  and  N_9 
REMARK    2  A    between atoms: N_9  and  C_10 
REMARK    3  A    between atoms: C_12  and  N_13 
REMARK       I    between atoms: N_13  and  C_14 
REMARK    4  A    between atoms: C_14  and  C_16 
REMARK    5  A    between atoms: C_25  and  N_26 
ROOT
ATOM      1  C   UNL d   1      24.783 -16.180  -1.386  0.00  0.00     0.065 A 
ATOM      2  C   UNL d   1      23.586 -16.903  -1.069  0.00  0.00     0.061 A 
ATOM      3  C   UNL d   1      23.634 -18.078  -0.277  0.00  0.00     0.037 A 
ATOM      4  C   UNL d   1      24.890 -18.568   0.063  0.00  0.00     0.032 A 
ATOM      5  C   UNL d   1      26.052 -17.869  -0.232  0.00  0.00     0.034 A 
ATOM      6  C   UNL d   1      26.043 -16.659  -0.927  0.00  0.00     0.057 A 
ENDROOT
BRANCH   1   7
ATOM      7  N   UNL d   1      24.726 -14.969  -2.168  0.00  0.00    -0.306 N 
ATOM      8  C   UNL d   1      25.413 -14.921  -3.378  0.00  0.00     0.325 C 
ATOM      9  N   UNL d   1      25.587 -13.652  -3.930  0.00  0.00    -0.308 N 
ATOM     10  O   UNL d   1      25.858 -15.950  -3.894  0.00  0.00    -0.247 OA
ATOM     11  H   UNL d   1      25.069 -12.891  -3.523  0.00  0.00     0.170 HD
ATOM     12  H   UNL d   1      23.951 -14.341  -2.020  0.00  0.00     0.170 HD
BRANCH   9  13
ATOM     13  C   UNL d   1      26.528 -13.349  -4.993  0.00  0.00     0.042 A 
ATOM     14  C   UNL d   1      27.381 -14.345  -5.506  0.00  0.00     0.030 A 
ATOM     15  C   UNL d   1      28.369 -14.114  -6.460  0.00  0.00     0.009 A 
ATOM     16  C   UNL d   1      28.503 -12.859  -7.021  0.00  0.00    -0.061 A 
ATOM     17  C   UNL d   1      29.501 -12.662  -8.122  0.00  0.00     0.048 C 
ATOM     18  C   UNL d   1      27.671 -11.834  -6.542  0.00  0.00     0.015 A 
ATOM     19  C   UNL d   1      26.708 -12.052  -5.506  0.00  0.00    -0.035 A 
ATOM     20  C   UNL d   1      25.901 -10.869  -5.051  0.00  0.00     0.050 C 
ENDBRANCH   9  13
ENDBRANCH   1   7
BRANCH   6  21
ATOM     21  N   UNL d   1      27.271 -16.031  -1.042  0.00  0.00    -0.379 N 
ATOM     22  C   UNL d   1      27.529 -14.642  -0.719  0.00  0.00     0.123 C 
ATOM     23  C   UNL d   1      28.345 -14.131  -1.888  0.00  0.00     0.021 C 
ATOM     24  C   UNL d   1      29.109 -15.347  -2.385  0.00  0.00     0.021 C 
ATOM     25  C   UNL d   1      28.248 -16.557  -2.001  0.00  0.00     0.123 C 
ENDBRANCH   6  21
BRANCH   3  26
ATOM     26  N   UNL d   1      22.453 -18.728   0.216  0.00  0.00    -0.323 N 
ATOM     27  C   UNL d   1      21.174 -18.573  -0.340  0.00  0.00     0.256 C 
ATOM     28  O   UNL d   1      20.848 -17.831  -1.270  0.00  0.00    -0.267 OA
ATOM     29  H   UNL d   1      22.584 -19.461   0.903  0.00  0.00     0.169 HD
BRANCH  27  30
ATOM     30  C   UNL d   1      20.052 -19.369   0.211  0.00  0.00     0.032 A 
ATOM     31  C   UNL d   1      20.065 -19.709   1.581  0.00  0.00     0.020 A 
ATOM     32  C   UNL d   1      19.143 -20.627   2.088  0.00  0.00     0.043 A 
ATOM     33  C   UNL d   1      18.179 -21.154   1.240  0.00  0.00     0.116 A 
ATOM     34  F   UNL d   1      17.254 -21.988   1.730  0.00  0.00    -0.206 F 
ATOM     35  C   UNL d   1      18.159 -20.826  -0.115  0.00  0.00     0.043 A 
ATOM     36  C   UNL d   1      19.105 -19.941  -0.638  0.00  0.00     0.020 A 
ENDBRANCH  27  30
ENDBRANCH   3  26
TORSDOF 5
ENDMDL
MODEL 2
REMARK VINA RESULT:   -10.488      1.035      1.689
REMARK INTER + INTRA:         -13.492
REMARK INTER:                 -11.979
REMARK INTRA:                  -1.513
REMARK CONF_INDEPENDENT:        1.492
REMARK UNBOUND:                -1.513
REMARK  5 active torsions:
REMARK  status: ('A' for Active; 'I' for Inactive)
REMARK    1  A    between atoms: C_5  and  N_6 
REMARK       I    between atoms: N_6  and  C_7 
REMARK       I    between atoms: C_7  and  N_9 
REMARK    2  A    between atoms: N_9  and  C_10 
REMARK    3  A    between atoms: C_12  and  N_13 
REMARK       I    between atoms: N_13  and  C_14 
REMARK    4  A    between atoms: C_14  and  C_16 
REMARK    5  A    between atoms: C_25  and  N_26 
ROOT
ATOM      1  C   UNL d   1      25.395 -15.727  -1.250  0.00  0.00     0.065 A 
ATOM      2  C   UNL d   1      24.081 -16.231  -0.976  0.00  0.00     0.061 A 
ATOM      3  C   UNL d   1      23.898 -17.519  -0.415  0.00  0.00     0.037 A 
ATOM      4  C   UNL d   1      25.027 -18.318  -0.268  0.00  0.00     0.032 A 
ATOM      5  C   UNL d   1      26.303 -17.835  -0.521  0.00  0.00     0.034 A 
ATOM      6  C   UNL d   1      26.535 -16.539  -0.985  0.00  0.00     0.057 A 
ENDROOT
BRANCH   1   7
ATOM      7  N   UNL d   1      25.577 -14.404  -1.795  0.00  0.00    -0.306 N 
ATOM      8  C   UNL d   1      25.776 -14.266  -3.166  0.00  0.00     0.325 C 
ATOM      9  N   UNL d   1      26.256 -13.027  -3.590  0.00  0.00    -0.308 N 
ATOM     10  O   UNL d   1      25.565 -15.209  -3.933  0.00  0.00    -0.247 OA
ATOM     11  H   UNL d   1      26.260 -12.275  -2.921  0.00  0.00     0.170 HD
ATOM     12  H   UNL d   1      25.222 -13.619  -1.270  0.00  0.00     0.170 HD
BRANCH   9  13
ATOM     13  C   UNL d   1      26.824 -12.780  -4.903  0.00  0.00     0.042 A 
ATOM     14  C   UNL d   1      26.385 -11.694  -5.684  0.00  0.00     0.030 A 
ATOM     15  C   UNL d   1      26.814 -11.441  -6.984  0.00  0.00     0.009 A 
ATOM     16  C   UNL d   1      27.789 -12.238  -7.553  0.00  0.00    -0.061 A 
ATOM     17  C   UNL d   1      28.312 -11.881  -8.913  0.00  0.00     0.048 C 
ATOM     18  C   UNL d   1      28.259 -13.332  -6.810  0.00  0.00     0.015 A 
ATOM     19  C   UNL d   1      27.762 -13.639  -5.503  0.00  0.00    -0.035 A 
ATOM     20  C   UNL d   1      28.314 -14.857  -4.820  0.00  0.00     0.050 C 
ENDBRANCH   9  13
ENDBRANCH   1   7
BRANCH   6  21
ATOM     21  N   UNL d   1      27.866 -16.172  -1.081  0.00  0.00    -0.379 N 
ATOM     22  C   UNL d   1      28.769 -16.585  -2.137  0.00  0.00     0.123 C 
ATOM     23  C   UNL d   1      30.031 -16.999  -1.408  0.00  0.00     0.021 C 
ATOM     24  C   UNL d   1      30.056 -16.134  -0.160  0.00  0.00     0.021 C 
ATOM     25  C   UNL d   1      28.589 -15.804   0.141  0.00  0.00     0.123 C 
ENDBRANCH   6  21
BRANCH   3  26
ATOM     26  N   UNL d   1      22.622 -17.991   0.044  0.00  0.00    -0.323 N 
ATOM     27  C   UNL d   1      21.800 -18.874  -0.674  0.00  0.00     0.256 C 
ATOM     28  O   UNL d   1      21.997 -19.325  -1.805  0.00  0.00    -0.267 OA
ATOM     29  H   UNL d   1      22.380 -17.800   1.008  0.00  0.00     0.169 HD
BRANCH  27  30
ATOM     30  C   UNL d   1      20.544 -19.352  -0.050  0.00  0.00     0.032 A 
ATOM     31  C   UNL d   1      20.489 -19.487   1.353  0.00  0.00     0.020 A 
ATOM     32  C   UNL d   1      19.405 -20.129   1.957  0.00  0.00     0.043 A 
ATOM     33  C   UNL d   1      18.360 -20.578   1.163  0.00  0.00     0.116 A 
ATOM     34  F   UNL d   1      17.289 -21.141   1.738  0.00  0.00    -0.206 F 
ATOM     35  C   UNL d   1      18.405 -20.450  -0.224  0.00  0.00     0.043 A 
ATOM     36  C   UNL d   1      19.506 -19.847  -0.838  0.00  0.00     0.020 A 
ENDBRANCH  27  30
ENDBRANCH   3  26
TORSDOF 5
ENDMDL
MODEL 3
REMARK VINA RESULT:    -9.594      1.420      2.471
REMARK INTER + INTRA:         -12.422
REMARK INTER:                 -11.085
REMARK INTRA:                  -1.337
REMARK CONF_INDEPENDENT:        1.492
REMARK UNBOUND:                -1.337
REMARK  5 active torsions:
REMARK  status: ('A' for Active; 'I' for Inactive)
REMARK    1  A    between atoms: C_5  and  N_6 
REMARK       I    between atoms: N_6  and  C_7 
REMARK       I    between atoms: C_7  and  N_9 
REMARK    2  A    between atoms: N_9  and  C_10 
REMARK    3  A    between atoms: C_12  and  N_13 
REMARK       I    between atoms: N_13  and  C_14 
REMARK    4  A    between atoms: C_14  and  C_16 
REMARK    5  A    between atoms: C_25  and  N_26 
ROOT
ATOM      1  C   UNL d   1      25.632 -16.406  -2.052  0.00  0.00     0.065 A 
ATOM      2  C   UNL d   1      24.348 -16.935  -1.693  0.00  0.00     0.061 A 
ATOM      3  C   UNL d   1      24.174 -17.674  -0.496  0.00  0.00     0.037 A 
ATOM      4  C   UNL d   1      25.315 -17.976   0.240  0.00  0.00     0.032 A 
ATOM      5  C   UNL d   1      26.559 -17.460  -0.095  0.00  0.00     0.034 A 
ATOM      6  C   UNL d   1      26.757 -16.649  -1.213  0.00  0.00     0.057 A 
ENDROOT
BRANCH   1   7
ATOM      7  N   UNL d   1      25.798 -15.629  -3.256  0.00  0.00    -0.306 N 
ATOM      8  C   UNL d   1      26.194 -14.299  -3.144  0.00  0.00     0.325 C 
ATOM      9  N   UNL d   1      26.034 -13.518  -4.288  0.00  0.00    -0.308 N 
ATOM     10  O   UNL d   1      26.627 -13.856  -2.078  0.00  0.00    -0.247 OA
ATOM     11  H   UNL d   1      25.813 -13.991  -5.149  0.00  0.00     0.170 HD
ATOM     12  H   UNL d   1      25.966 -16.119  -4.121  0.00  0.00     0.170 HD
BRANCH   9  13
ATOM     13  C   UNL d   1      26.080 -12.067  -4.297  0.00  0.00     0.042 A 
ATOM     14  C   UNL d   1      25.593 -11.325  -3.204  0.00  0.00     0.030 A 
ATOM     15  C   UNL d   1      25.520  -9.935  -3.172  0.00  0.00     0.009 A 
ATOM     16  C   UNL d   1      26.017  -9.196  -4.228  0.00  0.00    -0.061 A 
ATOM     17  C   UNL d   1      26.026  -7.700  -4.125  0.00  0.00     0.048 C 
ATOM     18  C   UNL d   1      26.515  -9.894  -5.340  0.00  0.00     0.015 A 
ATOM     19  C   UNL d   1      26.519 -11.324  -5.407  0.00  0.00    -0.035 A 
ATOM     20  C   UNL d   1      27.043 -11.957  -6.664  0.00  0.00     0.050 C 
ENDBRANCH   9  13
ENDBRANCH   1   7
BRANCH   6  21
ATOM     21  N   UNL d   1      28.031 -16.123  -1.347  0.00  0.00    -0.379 N 
ATOM     22  C   UNL d   1      28.792 -16.088  -2.580  0.00  0.00     0.123 C 
ATOM     23  C   UNL d   1      30.174 -16.560  -2.180  0.00  0.00     0.021 C 
ATOM     24  C   UNL d   1      30.326 -16.123  -0.733  0.00  0.00     0.021 C 
ATOM     25  C   UNL d   1      28.902 -16.068  -0.169  0.00  0.00     0.123 C 
ENDBRANCH   6  21
BRANCH   3  26
ATOM     26  N   UNL d   1      22.882 -18.063  -0.006  0.00  0.00    -0.323 N 
ATOM     27  C   UNL d   1      21.970 -18.853  -0.724  0.00  0.00     0.256 C 
ATOM     28  O   UNL d   1      22.091 -19.275  -1.876  0.00  0.00    -0.267 OA
ATOM     29  H   UNL d   1      22.689 -17.890   0.972  0.00  0.00     0.169 HD
BRANCH  27  30
ATOM     30  C   UNL d   1      20.703 -19.256  -0.070  0.00  0.00     0.032 A 
ATOM     31  C   UNL d   1      20.654 -19.328   1.338  0.00  0.00     0.020 A 
ATOM     32  C   UNL d   1      19.554 -19.902   1.978  0.00  0.00     0.043 A 
ATOM     33  C   UNL d   1      18.485 -20.346   1.212  0.00  0.00     0.116 A 
ATOM     34  F   UNL d   1      17.400 -20.843   1.819  0.00  0.00    -0.206 F 
ATOM     35  C   UNL d   1      18.523 -20.282  -0.180  0.00  0.00     0.043 A 
ATOM     36  C   UNL d   1      19.640 -19.747  -0.828  0.00  0.00     0.020 A 
ENDBRANCH  27  30
ENDBRANCH   3  26
TORSDOF 5
ENDMDL
MODEL 4
REMARK VINA RESULT:    -9.424      2.541      4.778
REMARK INTER + INTRA:         -12.803
REMARK INTER:                 -10.916
REMARK INTRA:                  -1.887
REMARK CONF_INDEPENDENT:        1.492
REMARK UNBOUND:                -1.887
REMARK  5 active torsions:
REMARK  status: ('A' for Active; 'I' for Inactive)
REMARK    1  A    between atoms: C_5  and  N_6 
REMARK       I    between atoms: N_6  and  C_7 
REMARK       I    between atoms: C_7  and  N_9 
REMARK    2  A    between atoms: N_9  and  C_10 
REMARK    3  A    between atoms: C_12  and  N_13 
REMARK       I    between atoms: N_13  and  C_14 
REMARK    4  A    between atoms: C_14  and  C_16 
REMARK    5  A    between atoms: C_25  and  N_26 
ROOT
ATOM      1  C   UNL d   1      26.075 -17.060  -0.142  0.00  0.00     0.065 A 
ATOM      2  C   UNL d   1      24.927 -17.692   0.439  0.00  0.00     0.061 A 
ATOM      3  C   UNL d   1      23.798 -18.021  -0.352  0.00  0.00     0.037 A 
ATOM      4  C   UNL d   1      23.797 -17.588  -1.673  0.00  0.00     0.032 A 
ATOM      5  C   UNL d   1      24.907 -16.984  -2.246  0.00  0.00     0.034 A 
ATOM      6  C   UNL d   1      26.075 -16.728  -1.527  0.00  0.00     0.057 A 
ENDROOT
BRANCH   1   7
ATOM      7  N   UNL d   1      27.233 -16.754   0.662  0.00  0.00    -0.306 N 
ATOM      8  C   UNL d   1      27.517 -15.420   0.945  0.00  0.00     0.325 C 
ATOM      9  N   UNL d   1      28.794 -15.162   1.443  0.00  0.00    -0.308 N 
ATOM     10  O   UNL d   1      26.684 -14.537   0.729  0.00  0.00    -0.247 OA
ATOM     11  H   UNL d   1      29.353 -15.951   1.724  0.00  0.00     0.170 HD
ATOM     12  H   UNL d   1      27.595 -17.471   1.271  0.00  0.00     0.170 HD
BRANCH   9  13
ATOM     13  C   UNL d   1      29.395 -13.842   1.499  0.00  0.00     0.042 A 
ATOM     14  C   UNL d   1      30.397 -13.468   0.585  0.00  0.00     0.030 A 
ATOM     15  C   UNL d   1      31.084 -12.257   0.628  0.00  0.00     0.009 A 
ATOM     16  C   UNL d   1      30.737 -11.303   1.564  0.00  0.00    -0.061 A 
ATOM     17  C   UNL d   1      31.416  -9.967   1.523  0.00  0.00     0.048 C 
ATOM     18  C   UNL d   1      29.739 -11.631   2.497  0.00  0.00     0.015 A 
ATOM     19  C   UNL d   1      29.087 -12.905   2.502  0.00  0.00    -0.035 A 
ATOM     20  C   UNL d   1      28.062 -13.154   3.572  0.00  0.00     0.050 C 
ENDBRANCH   9  13
ENDBRANCH   1   7
BRANCH   6  21
ATOM     21  N   UNL d   1      27.130 -16.225  -2.268  0.00  0.00    -0.379 N 
ATOM     22  C   UNL d   1      28.499 -16.700  -2.196  0.00  0.00     0.123 C 
ATOM     23  C   UNL d   1      29.329 -15.435  -2.123  0.00  0.00     0.021 C 
ATOM     24  C   UNL d   1      28.520 -14.399  -2.884  0.00  0.00     0.021 C 
ATOM     25  C   UNL d   1      27.059 -14.845  -2.758  0.00  0.00     0.123 C 
ENDBRANCH   6  21
BRANCH   3  26
ATOM     26  N   UNL d   1      22.708 -18.814   0.144  0.00  0.00    -0.323 N 
ATOM     27  C   UNL d   1      21.362 -18.606  -0.194  0.00  0.00     0.256 C 
ATOM     28  O   UNL d   1      20.898 -17.703  -0.895  0.00  0.00    -0.267 OA
ATOM     29  H   UNL d   1      22.946 -19.666   0.636  0.00  0.00     0.169 HD
BRANCH  27  30
ATOM     30  C   UNL d   1      20.341 -19.549   0.318  0.00  0.00     0.032 A 
ATOM     31  C   UNL d   1      19.386 -20.075  -0.578  0.00  0.00     0.020 A 
ATOM     32  C   UNL d   1      18.290 -20.794  -0.099  0.00  0.00     0.043 A 
ATOM     33  C   UNL d   1      18.184 -21.034   1.264  0.00  0.00     0.116 A 
ATOM     34  F   UNL d   1      17.168 -21.774   1.727  0.00  0.00    -0.206 F 
ATOM     35  C   UNL d   1      19.121 -20.518   2.158  0.00  0.00     0.043 A 
ATOM     36  C   UNL d   1      20.197 -19.761   1.690  0.00  0.00     0.020 A 
ENDBRANCH  27  30
ENDBRANCH   3  26
TORSDOF 5
ENDMDL
MODEL 5
REMARK VINA RESULT:    -9.321      2.524      4.921
REMARK INTER + INTRA:         -12.223
REMARK INTER:                 -10.813
REMARK INTRA:                  -1.410
REMARK CONF_INDEPENDENT:        1.492
REMARK UNBOUND:                -1.410
REMARK  5 active torsions:
REMARK  status: ('A' for Active; 'I' for Inactive)
REMARK    1  A    between atoms: C_5  and  N_6 
REMARK       I    between atoms: N_6  and  C_7 
REMARK       I    between atoms: C_7  and  N_9 
REMARK    2  A    between atoms: N_9  and  C_10 
REMARK    3  A    between atoms: C_12  and  N_13 
REMARK       I    between atoms: N_13  and  C_14 
REMARK    4  A    between atoms: C_14  and  C_16 
REMARK    5  A    between atoms: C_25  and  N_26 
ROOT
ATOM      1  C   UNL d   1      26.201 -17.385  -0.704  0.00  0.00     0.065 A 
ATOM      2  C   UNL d   1      25.155 -18.109  -0.042  0.00  0.00     0.061 A 
ATOM      3  C   UNL d   1      23.794 -17.877  -0.364  0.00  0.00     0.037 A 
ATOM      4  C   UNL d   1      23.513 -16.836  -1.242  0.00  0.00     0.032 A 
ATOM      5  C   UNL d   1      24.520 -16.138  -1.894  0.00  0.00     0.034 A 
ATOM      6  C   UNL d   1      25.874 -16.399  -1.678  0.00  0.00     0.057 A 
ENDROOT
BRANCH   1   7
ATOM      7  N   UNL d   1      27.586 -17.646  -0.394  0.00  0.00    -0.306 N 
ATOM      8  C   UNL d   1      28.327 -16.652   0.239  0.00  0.00     0.325 C 
ATOM      9  N   UNL d   1      29.711 -16.824   0.229  0.00  0.00    -0.308 N 
ATOM     10  O   UNL d   1      27.771 -15.671   0.741  0.00  0.00    -0.247 OA
ATOM     11  H   UNL d   1      30.067 -17.717  -0.071  0.00  0.00     0.170 HD
ATOM     12  H   UNL d   1      27.885 -18.605  -0.315  0.00  0.00     0.170 HD
BRANCH   9  13
ATOM     13  C   UNL d   1      30.665 -15.776   0.540  0.00  0.00     0.042 A 
ATOM     14  C   UNL d   1      30.380 -14.814   1.528  0.00  0.00     0.030 A 
ATOM     15  C   UNL d   1      31.201 -13.728   1.823  0.00  0.00     0.009 A 
ATOM     16  C   UNL d   1      32.417 -13.592   1.182  0.00  0.00    -0.061 A 
ATOM     17  C   UNL d   1      33.330 -12.476   1.593  0.00  0.00     0.048 C 
ATOM     18  C   UNL d   1      32.745 -14.530   0.190  0.00  0.00     0.015 A 
ATOM     19  C   UNL d   1      31.867 -15.602  -0.168  0.00  0.00    -0.035 A 
ATOM     20  C   UNL d   1      32.311 -16.521  -1.271  0.00  0.00     0.050 C 
ENDBRANCH   9  13
ENDBRANCH   1   7
BRANCH   6  21
ATOM     21  N   UNL d   1      26.750 -15.697  -2.487  0.00  0.00    -0.379 N 
ATOM     22  C   UNL d   1      27.645 -14.650  -2.033  0.00  0.00     0.123 C 
ATOM     23  C   UNL d   1      27.479 -13.547  -3.057  0.00  0.00     0.021 C 
ATOM     24  C   UNL d   1      27.130 -14.268  -4.348  0.00  0.00     0.021 C 
ATOM     25  C   UNL d   1      26.450 -15.574  -3.917  0.00  0.00     0.123 C 
ENDBRANCH   6  21
BRANCH   3  26
ATOM     26  N   UNL d   1      22.728 -18.700   0.136  0.00  0.00    -0.323 N 
ATOM     27  C   UNL d   1      21.376 -18.534  -0.202  0.00  0.00     0.256 C 
ATOM     28  O   UNL d   1      20.885 -17.648  -0.907  0.00  0.00    -0.267 OA
ATOM     29  H   UNL d   1      22.991 -19.542   0.632  0.00  0.00     0.169 HD
BRANCH  27  30
ATOM     30  C   UNL d   1      20.384 -19.505   0.315  0.00  0.00     0.032 A 
ATOM     31  C   UNL d   1      19.454 -20.073  -0.581  0.00  0.00     0.020 A 
ATOM     32  C   UNL d   1      18.379 -20.823  -0.100  0.00  0.00     0.043 A 
ATOM     33  C   UNL d   1      18.272 -21.049   1.265  0.00  0.00     0.116 A 
ATOM     34  F   UNL d   1      17.278 -21.817   1.730  0.00  0.00    -0.206 F 
ATOM     35  C   UNL d   1      19.184 -20.491   2.159  0.00  0.00     0.043 A 
ATOM     36  C   UNL d   1      20.238 -19.705   1.688  0.00  0.00     0.020 A 
ENDBRANCH  27  30
ENDBRANCH   3  26
TORSDOF 5
ENDMDL
MODEL 6
REMARK VINA RESULT:    -9.212      2.422      4.695
REMARK INTER + INTRA:         -12.540
REMARK INTER:                 -10.703
REMARK INTRA:                  -1.837
REMARK CONF_INDEPENDENT:        1.492
REMARK UNBOUND:                -1.837
REMARK  5 active torsions:
REMARK  status: ('A' for Active; 'I' for Inactive)
REMARK    1  A    between atoms: C_5  and  N_6 
REMARK       I    between atoms: N_6  and  C_7 
REMARK       I    between atoms: C_7  and  N_9 
REMARK    2  A    between atoms: N_9  and  C_10 
REMARK    3  A    between atoms: C_12  and  N_13 
REMARK       I    between atoms: N_13  and  C_14 
REMARK    4  A    between atoms: C_14  and  C_16 
REMARK    5  A    between atoms: C_25  and  N_26 
ROOT
ATOM      1  C   UNL d   1      25.896 -17.069  -0.145  0.00  0.00     0.065 A 
ATOM      2  C   UNL d   1      24.746 -17.704   0.432  0.00  0.00     0.061 A 
ATOM      3  C   UNL d   1      23.633 -18.060  -0.370  0.00  0.00     0.037 A 
ATOM      4  C   UNL d   1      23.647 -17.653  -1.699  0.00  0.00     0.032 A 
ATOM      5  C   UNL d   1      24.759 -17.047  -2.267  0.00  0.00     0.034 A 
ATOM      6  C   UNL d   1      25.914 -16.764  -1.535  0.00  0.00     0.057 A 
ENDROOT
BRANCH   1   7
ATOM      7  N   UNL d   1      27.038 -16.735   0.671  0.00  0.00    -0.306 N 
ATOM      8  C   UNL d   1      27.316 -15.392   0.914  0.00  0.00     0.325 C 
ATOM      9  N   UNL d   1      28.582 -15.115   1.427  0.00  0.00    -0.308 N 
ATOM     10  O   UNL d   1      26.486 -14.517   0.651  0.00  0.00    -0.247 OA
ATOM     11  H   UNL d   1      29.137 -15.893   1.746  0.00  0.00     0.170 HD
ATOM     12  H   UNL d   1      27.388 -17.431   1.311  0.00  0.00     0.170 HD
BRANCH   9  13
ATOM     13  C   UNL d   1      29.181 -13.793   1.450  0.00  0.00     0.042 A 
ATOM     14  C   UNL d   1      28.455 -12.683   1.920  0.00  0.00     0.030 A 
ATOM     15  C   UNL d   1      28.923 -11.372   1.892  0.00  0.00     0.009 A 
ATOM     16  C   UNL d   1      30.207 -11.110   1.455  0.00  0.00    -0.061 A 
ATOM     17  C   UNL d   1      30.728  -9.706   1.535  0.00  0.00     0.048 C 
ATOM     18  C   UNL d   1      30.971 -12.189   0.979  0.00  0.00     0.015 A 
ATOM     19  C   UNL d   1      30.461 -13.525   0.935  0.00  0.00    -0.035 A 
ATOM     20  C   UNL d   1      31.358 -14.590   0.370  0.00  0.00     0.050 C 
ENDBRANCH   9  13
ENDBRANCH   1   7
BRANCH   6  21
ATOM     21  N   UNL d   1      26.974 -16.264  -2.270  0.00  0.00    -0.379 N 
ATOM     22  C   UNL d   1      28.375 -16.485  -1.966  0.00  0.00     0.123 C 
ATOM     23  C   UNL d   1      29.008 -15.115  -2.105  0.00  0.00     0.021 C 
ATOM     24  C   UNL d   1      28.166 -14.406  -3.152  0.00  0.00     0.021 C 
ATOM     25  C   UNL d   1      26.775 -15.047  -3.063  0.00  0.00     0.123 C 
ENDBRANCH   6  21
BRANCH   3  26
ATOM     26  N   UNL d   1      22.545 -18.856   0.124  0.00  0.00    -0.323 N 
ATOM     27  C   UNL d   1      21.204 -18.680  -0.249  0.00  0.00     0.256 C 
ATOM     28  O   UNL d   1      20.742 -17.806  -0.986  0.00  0.00    -0.267 OA
ATOM     29  H   UNL d   1      22.785 -19.690   0.647  0.00  0.00     0.169 HD
BRANCH  27  30
ATOM     30  C   UNL d   1      20.186 -19.625   0.268  0.00  0.00     0.032 A 
ATOM     31  C   UNL d   1      19.167 -20.071  -0.599  0.00  0.00     0.020 A 
ATOM     32  C   UNL d   1      18.078 -20.788  -0.098  0.00  0.00     0.043 A 
ATOM     33  C   UNL d   1      18.044 -21.105   1.253  0.00  0.00     0.116 A 
ATOM     34  F   UNL d   1      17.035 -21.844   1.732  0.00  0.00    -0.206 F 
ATOM     35  C   UNL d   1      19.045 -20.668   2.119  0.00  0.00     0.043 A 
ATOM     36  C   UNL d   1      20.115 -19.913   1.631  0.00  0.00     0.020 A 
ENDBRANCH  27  30
ENDBRANCH   3  26
TORSDOF 5
ENDMDL
MODEL 7
REMARK VINA RESULT:    -9.133      4.380      9.994
REMARK INTER + INTRA:         -11.915
REMARK INTER:                 -10.625
REMARK INTRA:                  -1.291
REMARK CONF_INDEPENDENT:        1.492
REMARK UNBOUND:                -1.291
REMARK  5 active torsions:
REMARK  status: ('A' for Active; 'I' for Inactive)
REMARK    1  A    between atoms: C_5  and  N_6 
REMARK       I    between atoms: N_6  and  C_7 
REMARK       I    between atoms: C_7  and  N_9 
REMARK    2  A    between atoms: N_9  and  C_10 
REMARK    3  A    between atoms: C_12  and  N_13 
REMARK       I    between atoms: N_13  and  C_14 
REMARK    4  A    between atoms: C_14  and  C_16 
REMARK    5  A    between atoms: C_25  and  N_26 
ROOT
ATOM      1  C   UNL d   1      26.983 -13.269  -3.830  0.00  0.00     0.065 A 
ATOM      2  C   UNL d   1      26.270 -12.037  -3.662  0.00  0.00     0.061 A 
ATOM      3  C   UNL d   1      26.150 -11.114  -4.731  0.00  0.00     0.037 A 
ATOM      4  C   UNL d   1      26.859 -11.390  -5.895  0.00  0.00     0.032 A 
ATOM      5  C   UNL d   1      27.544 -12.584  -6.069  0.00  0.00     0.034 A 
ATOM      6  C   UNL d   1      27.607 -13.563  -5.076  0.00  0.00     0.057 A 
ENDROOT
BRANCH   1   7
ATOM      7  N   UNL d   1      27.078 -14.218  -2.748  0.00  0.00    -0.306 N 
ATOM      8  C   UNL d   1      26.100 -15.204  -2.635  0.00  0.00     0.325 C 
ATOM      9  N   UNL d   1      26.057 -15.883  -1.418  0.00  0.00    -0.308 N 
ATOM     10  O   UNL d   1      25.312 -15.421  -3.559  0.00  0.00    -0.247 OA
ATOM     11  H   UNL d   1      26.823 -15.746  -0.780  0.00  0.00     0.170 HD
ATOM     12  H   UNL d   1      27.980 -14.374  -2.326  0.00  0.00     0.170 HD
BRANCH   9  13
ATOM     13  C   UNL d   1      24.941 -16.702  -0.982  0.00  0.00     0.042 A 
ATOM     14  C   UNL d   1      23.616 -16.329  -1.274  0.00  0.00     0.030 A 
ATOM     15  C   UNL d   1      22.491 -17.010  -0.817  0.00  0.00     0.009 A 
ATOM     16  C   UNL d   1      22.642 -18.176  -0.092  0.00  0.00    -0.061 A 
ATOM     17  C   UNL d   1      21.417 -18.950   0.297  0.00  0.00     0.048 C 
ATOM     18  C   UNL d   1      23.946 -18.590   0.222  0.00  0.00     0.015 A 
ATOM     19  C   UNL d   1      25.102 -17.847  -0.181  0.00  0.00    -0.035 A 
ATOM     20  C   UNL d   1      26.444 -18.369   0.246  0.00  0.00     0.050 C 
ENDBRANCH   9  13
ENDBRANCH   1   7
BRANCH   6  21
ATOM     21  N   UNL d   1      28.231 -14.742  -5.444  0.00  0.00    -0.379 N 
ATOM     22  C   UNL d   1      28.743 -15.736  -4.520  0.00  0.00     0.123 C 
ATOM     23  C   UNL d   1      30.116 -16.077  -5.062  0.00  0.00     0.021 C 
ATOM     24  C   UNL d   1      30.001 -15.866  -6.562  0.00  0.00     0.021 C 
ATOM     25  C   UNL d   1      28.902 -14.813  -6.746  0.00  0.00     0.123 C 
ENDBRANCH   6  21
BRANCH   3  26
ATOM     26  N   UNL d   1      25.297  -9.961  -4.668  0.00  0.00    -0.323 N 
ATOM     27  C   UNL d   1      25.565  -8.743  -5.312  0.00  0.00     0.256 C 
ATOM     28  O   UNL d   1      26.570  -8.447  -5.963  0.00  0.00    -0.267 OA
ATOM     29  H   UNL d   1      24.376 -10.091  -4.267  0.00  0.00     0.169 HD
BRANCH  27  30
ATOM     30  C   UNL d   1      24.560  -7.657  -5.238  0.00  0.00     0.032 A 
ATOM     31  C   UNL d   1      24.845  -6.516  -4.457  0.00  0.00     0.020 A 
ATOM     32  C   UNL d   1      23.848  -5.575  -4.193  0.00  0.00     0.043 A 
ATOM     33  C   UNL d   1      22.591  -5.748  -4.756  0.00  0.00     0.116 A 
ATOM     34  F   UNL d   1      21.646  -4.821  -4.559  0.00  0.00    -0.206 F 
ATOM     35  C   UNL d   1      22.298  -6.872  -5.528  0.00  0.00     0.043 A 
ATOM     36  C   UNL d   1      23.279  -7.839  -5.760  0.00  0.00     0.020 A 
ENDBRANCH  27  30
ENDBRANCH   3  26
TORSDOF 5
ENDMDL
MODEL 8
REMARK VINA RESULT:    -8.871      4.769     10.135
REMARK INTER + INTRA:         -11.788
REMARK INTER:                 -10.362
REMARK INTRA:                  -1.426
REMARK CONF_INDEPENDENT:        1.492
REMARK UNBOUND:                -1.426
REMARK  5 active torsions:
REMARK  status: ('A' for Active; 'I' for Inactive)
REMARK    1  A    between atoms: C_5  and  N_6 
REMARK       I    between atoms: N_6  and  C_7 
REMARK       I    between atoms: C_7  and  N_9 
REMARK    2  A    between atoms: N_9  and  C_10 
REMARK    3  A    between atoms: C_12  and  N_13 
REMARK       I    between atoms: N_13  and  C_14 
REMARK    4  A    between atoms: C_14  and  C_16 
REMARK    5  A    between atoms: C_25  and  N_26 
ROOT
ATOM      1  C   UNL d   1      27.021 -15.654  -1.354  0.00  0.00     0.065 A 
ATOM      2  C   UNL d   1      27.697 -14.908  -2.376  0.00  0.00     0.061 A 
ATOM      3  C   UNL d   1      27.062 -14.625  -3.611  0.00  0.00     0.037 A 
ATOM      4  C   UNL d   1      25.820 -15.208  -3.839  0.00  0.00     0.032 A 
ATOM      5  C   UNL d   1      25.155 -15.922  -2.853  0.00  0.00     0.034 A 
ATOM      6  C   UNL d   1      25.704 -16.144  -1.589  0.00  0.00     0.057 A 
ENDROOT
BRANCH   1   7
ATOM      7  N   UNL d   1      27.661 -15.915  -0.088  0.00  0.00    -0.306 N 
ATOM      8  C   UNL d   1      27.328 -15.120   1.005  0.00  0.00     0.325 C 
ATOM      9  N   UNL d   1      28.187 -15.200   2.101  0.00  0.00    -0.308 N 
ATOM     10  O   UNL d   1      26.346 -14.374   0.969  0.00  0.00    -0.247 OA
ATOM     11  H   UNL d   1      28.874 -15.936   2.102  0.00  0.00     0.170 HD
ATOM     12  H   UNL d   1      28.044 -16.833   0.073  0.00  0.00     0.170 HD
BRANCH   9  13
ATOM     13  C   UNL d   1      28.208 -14.242   3.191  0.00  0.00     0.042 A 
ATOM     14  C   UNL d   1      28.097 -14.671   4.528  0.00  0.00     0.030 A 
ATOM     15  C   UNL d   1      28.020 -13.813   5.622  0.00  0.00     0.009 A 
ATOM     16  C   UNL d   1      28.133 -12.449   5.434  0.00  0.00    -0.061 A 
ATOM     17  C   UNL d   1      28.155 -11.552   6.636  0.00  0.00     0.048 C 
ATOM     18  C   UNL d   1      28.248 -11.975   4.117  0.00  0.00     0.015 A 
ATOM     19  C   UNL d   1      28.249 -12.852   2.986  0.00  0.00    -0.035 A 
ATOM     20  C   UNL d   1      28.340 -12.225   1.624  0.00  0.00     0.050 C 
ENDBRANCH   9  13
ENDBRANCH   1   7
BRANCH   6  21
ATOM     21  N   UNL d   1      24.871 -16.774  -0.682  0.00  0.00    -0.379 N 
ATOM     22  C   UNL d   1      25.132 -18.061  -0.067  0.00  0.00     0.123 C 
ATOM     23  C   UNL d   1      23.818 -18.805  -0.185  0.00  0.00     0.021 C 
ATOM     24  C   UNL d   1      22.756 -17.719  -0.150  0.00  0.00     0.021 C 
ATOM     25  C   UNL d   1      23.439 -16.460  -0.698  0.00  0.00     0.123 C 
ENDBRANCH   6  21
BRANCH   3  26
ATOM     26  N   UNL d   1      27.625 -13.733  -4.585  0.00  0.00    -0.323 N 
ATOM     27  C   UNL d   1      27.904 -14.088  -5.914  0.00  0.00     0.256 C 
ATOM     28  O   UNL d   1      27.779 -15.200  -6.433  0.00  0.00    -0.267 OA
ATOM     29  H   UNL d   1      27.672 -12.752  -4.338  0.00  0.00     0.169 HD
BRANCH  27  30
ATOM     30  C   UNL d   1      28.405 -13.048  -6.843  0.00  0.00     0.032 A 
ATOM     31  C   UNL d   1      27.628 -11.889  -7.053  0.00  0.00     0.020 A 
ATOM     32  C   UNL d   1      27.959 -10.992  -8.071  0.00  0.00     0.043 A 
ATOM     33  C   UNL d   1      29.095 -11.228  -8.833  0.00  0.00     0.116 A 
ATOM     34  F   UNL d   1      29.455 -10.342  -9.771  0.00  0.00    -0.206 F 
ATOM     35  C   UNL d   1      29.869 -12.370  -8.635  0.00  0.00     0.043 A 
ATOM     36  C   UNL d   1      29.519 -13.293  -7.646  0.00  0.00     0.020 A 
ENDBRANCH  27  30
ENDBRANCH   3  26
TORSDOF 5
ENDMDL
MODEL 9
REMARK VINA RESULT:    -8.827      3.387      6.180
REMARK INTER + INTRA:         -11.688
REMARK INTER:                 -10.318
REMARK INTRA:                  -1.370
REMARK CONF_INDEPENDENT:        1.492
REMARK UNBOUND:                -1.370
REMARK  5 active torsions:
REMARK  status: ('A' for Active; 'I' for Inactive)
REMARK    1  A    between atoms: C_5  and  N_6 
REMARK       I    between atoms: N_6  and  C_7 
REMARK       I    between atoms: C_7  and  N_9 
REMARK    2  A    between atoms: N_9  and  C_10 
REMARK    3  A    between atoms: C_12  and  N_13 
REMARK       I    between atoms: N_13  and  C_14 
REMARK    4  A    between atoms: C_14  and  C_16 
REMARK    5  A    between atoms: C_25  and  N_26 
ROOT
ATOM      1  C   UNL d   1      25.872 -15.322  -0.708  0.00  0.00     0.065 A 
ATOM      2  C   UNL d   1      24.668 -15.860  -0.145  0.00  0.00     0.061 A 
ATOM      3  C   UNL d   1      23.939 -16.872  -0.818  0.00  0.00     0.037 A 
ATOM      4  C   UNL d   1      24.363 -17.223  -2.095  0.00  0.00     0.032 A 
ATOM      5  C   UNL d   1      25.533 -16.714  -2.643  0.00  0.00     0.034 A 
ATOM      6  C   UNL d   1      26.331 -15.786  -1.973  0.00  0.00     0.057 A 
ENDROOT
BRANCH   1   7
ATOM      7  N   UNL d   1      26.625 -14.312  -0.005  0.00  0.00    -0.306 N 
ATOM      8  C   UNL d   1      27.339 -14.681   1.132  0.00  0.00     0.325 C 
ATOM      9  N   UNL d   1      27.780 -13.633   1.940  0.00  0.00    -0.308 N 
ATOM     10  O   UNL d   1      27.527 -15.870   1.402  0.00  0.00    -0.247 OA
ATOM     11  H   UNL d   1      27.711 -12.699   1.572  0.00  0.00     0.170 HD
ATOM     12  H   UNL d   1      26.904 -13.485  -0.511  0.00  0.00     0.170 HD
BRANCH   9  13
ATOM     13  C   UNL d   1      28.250 -13.799   3.303  0.00  0.00     0.042 A 
ATOM     14  C   UNL d   1      27.385 -13.589   4.393  0.00  0.00     0.030 A 
ATOM     15  C   UNL d   1      27.780 -13.640   5.728  0.00  0.00     0.009 A 
ATOM     16  C   UNL d   1      29.077 -13.991   6.048  0.00  0.00    -0.061 A 
ATOM     17  C   UNL d   1      29.450 -14.145   7.492  0.00  0.00     0.048 C 
ATOM     18  C   UNL d   1      29.976 -14.213   4.992  0.00  0.00     0.015 A 
ATOM     19  C   UNL d   1      29.590 -14.085   3.620  0.00  0.00    -0.035 A 
ATOM     20  C   UNL d   1      30.650 -14.310   2.579  0.00  0.00     0.050 C 
ENDBRANCH   9  13
ENDBRANCH   1   7
BRANCH   6  21
ATOM     21  N   UNL d   1      27.520 -15.463  -2.603  0.00  0.00    -0.379 N 
ATOM     22  C   UNL d   1      27.632 -14.930  -3.947  0.00  0.00     0.123 C 
ATOM     23  C   UNL d   1      28.744 -15.742  -4.579  0.00  0.00     0.021 C 
ATOM     24  C   UNL d   1      29.654 -16.116  -3.421  0.00  0.00     0.021 C 
ATOM     25  C   UNL d   1      28.752 -16.137  -2.181  0.00  0.00     0.123 C 
ENDBRANCH   6  21
BRANCH   3  26
ATOM     26  N   UNL d   1      22.837 -17.567  -0.213  0.00  0.00    -0.323 N 
ATOM     27  C   UNL d   1      22.084 -18.563  -0.853  0.00  0.00     0.256 C 
ATOM     28  O   UNL d   1      22.193 -18.950  -2.019  0.00  0.00    -0.267 OA
ATOM     29  H   UNL d   1      22.704 -17.440   0.783  0.00  0.00     0.169 HD
BRANCH  27  30
ATOM     30  C   UNL d   1      21.026 -19.263  -0.087  0.00  0.00     0.032 A 
ATOM     31  C   UNL d   1      19.927 -19.809  -0.785  0.00  0.00     0.020 A 
ATOM     32  C   UNL d   1      18.816 -20.286  -0.087  0.00  0.00     0.043 A 
ATOM     33  C   UNL d   1      18.832 -20.270   1.300  0.00  0.00     0.116 A 
ATOM     34  F   UNL d   1      17.797 -20.781   1.978  0.00  0.00    -0.206 F 
ATOM     35  C   UNL d   1      19.912 -19.732   1.999  0.00  0.00     0.043 A 
ATOM     36  C   UNL d   1      21.009 -19.213   1.307  0.00  0.00     0.020 A 
ENDBRANCH  27  30
ENDBRANCH   3  26
TORSDOF 5
ENDMDL
