MODEL 1
REMARK VINA RESULT:   -10.020      0.000      0.000
REMARK INTER + INTRA:         -12.807
REMARK INTER:                 -11.810
REMARK INTRA:                  -0.997
REMARK CONF_INDEPENDENT:        1.790
REMARK UNBOUND:                -0.997
REMARK  6 active torsions:
REMARK  status: ('A' for Active; 'I' for Inactive)
REMARK    1  A    between atoms: C_3  and  C_22 
REMARK    2  A    between atoms: C_4  and  C_5 
REMARK    3  A    between atoms: N_7  and  C_8 
REMARK    4  A    between atoms: C_8  and  C_9 
REMARK       I    between atoms: C_22  and  N_24 
REMARK    5  A    between atoms: N_24  and  C_25 
REMARK    6  A    between atoms: C_30  and  N_31 
ROOT
ATOM      1  N   UNL d   1      23.186 -15.401  -1.610  0.00  0.00    -0.096 N 
ATOM      2  C   UNL d   1      23.439 -16.510  -1.066  0.00  0.00     0.025 C 
ATOM      3  C   UNL d   1      23.744 -17.847  -0.410  0.00  0.00     0.099 C 
ATOM      4  C   UNL d   1      25.034 -18.158  -0.168  0.00  0.00     0.041 C 
ENDROOT
BRANCH   3   5
ATOM      5  C   UNL d   1      22.594 -18.775  -0.121  0.00  0.00     0.265 C 
ATOM      6  O   UNL d   1      22.375 -19.704  -0.904  0.00  0.00    -0.267 OA
ATOM      7  N   UNL d   1      21.775 -18.500   0.976  0.00  0.00    -0.320 N 
ATOM      8  H   UNL d   1      21.782 -17.557   1.359  0.00  0.00     0.169 HD
BRANCH   7   9
ATOM      9  C   UNL d   1      20.585 -19.249   1.253  0.00  0.00     0.068 C 
ATOM     10  C   UNL d   1      20.418 -19.809   2.527  0.00  0.00     0.032 C 
ATOM     11  C   UNL d   1      19.366 -20.690   2.802  0.00  0.00     0.002 C 
ATOM     12  C   UNL d   1      18.392 -20.941   1.843  0.00  0.00     0.003 C 
ATOM     13  C   UNL d   1      18.452 -20.285   0.614  0.00  0.00     0.038 C 
ATOM     14  C   UNL d   1      19.564 -19.472   0.301  0.00  0.00     0.129 C 
BRANCH  14  15
ATOM     15  N   UNL d   1      19.673 -18.981  -1.081  0.00  0.00    -0.113 N 
ATOM     16  O   UNL d   1      20.206 -17.882  -1.271  0.00  0.00    -0.532 OA
ATOM     17  O   UNL d   1      19.218 -19.701  -1.990  0.00  0.00    -0.532 OA
ENDBRANCH  14  15
ENDBRANCH   7   9
ENDBRANCH   3   5
BRANCH   4  18
ATOM     18  C   UNL d   1      26.134 -17.293  -0.454  0.00  0.00    -0.006 A 
ATOM     19  C   UNL d   1      27.186 -17.101   0.397  0.00  0.00     0.104 A 
ATOM     20  N   UNL d   1      28.130 -16.321  -0.238  0.00  0.00    -0.351 N 
ATOM     21  C   UNL d   1      27.648 -15.954  -1.490  0.00  0.00     0.045 A 
ATOM     22  C   UNL d   1      28.200 -15.178  -2.524  0.00  0.00     0.030 A 
ATOM     23  C   UNL d   1      26.375 -16.517  -1.618  0.00  0.00     0.002 A 
ATOM     24  C   UNL d   1      27.452 -15.011  -3.702  0.00  0.00     0.002 A 
ATOM     25  C   UNL d   1      26.190 -15.567  -3.844  0.00  0.00     0.001 A 
ATOM     26  C   UNL d   1      25.632 -16.278  -2.793  0.00  0.00     0.014 A 
BRANCH  20  27
ATOM     27  C   UNL d   1      29.441 -15.923   0.302  0.00  0.00     0.167 C 
BRANCH  27  28
ATOM     28  C   UNL d   1      29.420 -14.575   0.993  0.00  0.00    -0.038 A 
ATOM     29  C   UNL d   1      30.532 -14.145   1.741  0.00  0.00     0.009 A 
ATOM     30  C   UNL d   1      30.443 -13.025   2.567  0.00  0.00     0.002 A 
ATOM     31  C   UNL d   1      29.233 -12.345   2.680  0.00  0.00     0.024 A 
ATOM     32  C   UNL d   1      28.148 -12.724   1.892  0.00  0.00     0.034 A 
ATOM     33 CL   UNL d   1      26.646 -11.901   2.058  0.00  0.00    -0.084 Cl
ATOM     34  C   UNL d   1      28.252 -13.802   1.010  0.00  0.00     0.032 A 
ENDBRANCH  27  28
ENDBRANCH  20  27
ENDBRANCH   4  18
TORSDOF 6
ENDMDL
MODEL 2
REMARK VINA RESULT:    -9.470      2.336      3.859
REMARK INTER + INTRA:         -12.961
REMARK INTER:                 -11.260
REMARK INTRA:                  -1.702
REMARK CONF_INDEPENDENT:        1.790
REMARK UNBOUND:                -1.702
REMARK  6 active torsions:
REMARK  status: ('A' for Active; 'I' for Inactive)
REMARK    1  A    between atoms: C_3  and  C_22 
REMARK    2  A    between atoms: C_4  and  C_5 
REMARK    3  A    between atoms: N_7  and  C_8 
REMARK    4  A    between atoms: C_8  and  C_9 
REMARK       I    between atoms: C_22  and  N_24 
REMARK    5  A    between atoms: N_24  and  C_25 
REMARK    6  A    between atoms: C_30  and  N_31 
ROOT
ATOM      1  N   UNL d   1      24.019 -15.774  -2.204  0.00  0.00    -0.096 N 
ATOM      2  C   UNL d   1      24.138 -16.703  -1.360  0.00  0.00     0.025 C 
ATOM      3  C   UNL d   1      24.280 -17.823  -0.342  0.00  0.00     0.099 C 
ATOM      4  C   UNL d   1      25.488 -18.017   0.227  0.00  0.00     0.041 C 
ENDROOT
BRANCH   3   5
ATOM      5  C   UNL d   1      23.080 -18.690  -0.068  0.00  0.00     0.265 C 
ATOM      6  O   UNL d   1      22.914 -19.702  -0.756  0.00  0.00    -0.267 OA
ATOM      7  N   UNL d   1      22.163 -18.274   0.899  0.00  0.00    -0.320 N 
ATOM      8  H   UNL d   1      22.159 -17.292   1.169  0.00  0.00     0.169 HD
BRANCH   7   9
ATOM      9  C   UNL d   1      20.930 -18.963   1.137  0.00  0.00     0.068 C 
ATOM     10  C   UNL d   1      20.654 -19.434   2.428  0.00  0.00     0.032 C 
ATOM     11  C   UNL d   1      19.554 -20.261   2.681  0.00  0.00     0.002 C 
ATOM     12  C   UNL d   1      18.640 -20.542   1.672  0.00  0.00     0.003 C 
ATOM     13  C   UNL d   1      18.810 -19.970   0.412  0.00  0.00     0.038 C 
ATOM     14  C   UNL d   1      19.971 -19.215   0.130  0.00  0.00     0.129 C 
BRANCH  14  15
ATOM     15  N   UNL d   1      20.193 -18.819  -1.269  0.00  0.00    -0.113 N 
ATOM     16  O   UNL d   1      20.182 -19.700  -2.135  0.00  0.00    -0.532 OA
ATOM     17  O   UNL d   1      20.384 -17.611  -1.506  0.00  0.00    -0.532 OA
ENDBRANCH  14  15
ENDBRANCH   7   9
ENDBRANCH   3   5
BRANCH   4  18
ATOM     18  C   UNL d   1      26.637 -17.211  -0.040  0.00  0.00    -0.006 A 
ATOM     19  C   UNL d   1      27.813 -17.710  -0.528  0.00  0.00     0.104 A 
ATOM     20  N   UNL d   1      28.659 -16.655  -0.798  0.00  0.00    -0.351 N 
ATOM     21  C   UNL d   1      28.043 -15.469  -0.417  0.00  0.00     0.045 A 
ATOM     22  C   UNL d   1      28.459 -14.126  -0.474  0.00  0.00     0.030 A 
ATOM     23  C   UNL d   1      26.792 -15.808   0.106  0.00  0.00     0.002 A 
ATOM     24  C   UNL d   1      27.572 -13.135  -0.022  0.00  0.00     0.002 A 
ATOM     25  C   UNL d   1      26.328 -13.457   0.495  0.00  0.00     0.001 A 
ATOM     26  C   UNL d   1      25.954 -14.788   0.603  0.00  0.00     0.014 A 
BRANCH  20  27
ATOM     27  C   UNL d   1      30.006 -16.746  -1.388  0.00  0.00     0.167 C 
BRANCH  27  28
ATOM     28  C   UNL d   1      29.989 -16.942  -2.891  0.00  0.00    -0.038 A 
ATOM     29  C   UNL d   1      30.796 -17.930  -3.485  0.00  0.00     0.009 A 
ATOM     30  C   UNL d   1      30.970 -17.969  -4.868  0.00  0.00     0.002 A 
ATOM     31  C   UNL d   1      30.367 -17.000  -5.667  0.00  0.00     0.024 A 
ATOM     32  C   UNL d   1      29.514 -16.060  -5.093  0.00  0.00     0.034 A 
ATOM     33 CL   UNL d   1      28.797 -14.846  -6.079  0.00  0.00    -0.084 Cl
ATOM     34  C   UNL d   1      29.280 -16.059  -3.716  0.00  0.00     0.032 A 
ENDBRANCH  27  28
ENDBRANCH  20  27
ENDBRANCH   4  18
TORSDOF 6
ENDMDL
MODEL 3
REMARK VINA RESULT:    -9.439      1.592      2.134
REMARK INTER + INTRA:         -12.706
REMARK INTER:                 -11.229
REMARK INTRA:                  -1.477
REMARK CONF_INDEPENDENT:        1.790
REMARK UNBOUND:                -1.477
REMARK  6 active torsions:
REMARK  status: ('A' for Active; 'I' for Inactive)
REMARK    1  A    between atoms: C_3  and  C_22 
REMARK    2  A    between atoms: C_4  and  C_5 
REMARK    3  A    between atoms: N_7  and  C_8 
REMARK    4  A    between atoms: C_8  and  C_9 
REMARK       I    between atoms: C_22  and  N_24 
REMARK    5  A    between atoms: N_24  and  C_25 
REMARK    6  A    between atoms: C_30  and  N_31 
ROOT
ATOM      1  N   UNL d   1      23.473 -15.331  -2.020  0.00  0.00    -0.096 N 
ATOM      2  C   UNL d   1      23.703 -16.283  -1.225  0.00  0.00     0.025 C 
ATOM      3  C   UNL d   1      23.980 -17.430  -0.267  0.00  0.00     0.099 C 
ATOM      4  C   UNL d   1      25.206 -17.514   0.287  0.00  0.00     0.041 C 
ENDROOT
BRANCH   3   5
ATOM      5  C   UNL d   1      22.888 -18.441  -0.036  0.00  0.00     0.265 C 
ATOM      6  O   UNL d   1      22.812 -19.411  -0.796  0.00  0.00    -0.267 OA
ATOM      7  N   UNL d   1      21.959 -18.200   0.978  0.00  0.00    -0.320 N 
ATOM      8  H   UNL d   1      21.857 -17.247   1.321  0.00  0.00     0.169 HD
BRANCH   7   9
ATOM      9  C   UNL d   1      20.815 -19.036   1.187  0.00  0.00     0.068 C 
ATOM     10  C   UNL d   1      20.601 -19.588   2.457  0.00  0.00     0.032 C 
ATOM     11  C   UNL d   1      19.605 -20.545   2.676  0.00  0.00     0.002 C 
ATOM     12  C   UNL d   1      18.724 -20.887   1.657  0.00  0.00     0.003 C 
ATOM     13  C   UNL d   1      18.820 -20.248   0.421  0.00  0.00     0.038 C 
ATOM     14  C   UNL d   1      19.885 -19.354   0.171  0.00  0.00     0.129 C 
BRANCH  14  15
ATOM     15  N   UNL d   1      20.054 -18.877  -1.211  0.00  0.00    -0.113 N 
ATOM     16  O   UNL d   1      19.964 -19.700  -2.128  0.00  0.00    -0.532 OA
ATOM     17  O   UNL d   1      20.280 -17.664  -1.382  0.00  0.00    -0.532 OA
ENDBRANCH  14  15
ENDBRANCH   7   9
ENDBRANCH   3   5
BRANCH   4  18
ATOM     18  C   UNL d   1      26.254 -16.571   0.061  0.00  0.00    -0.006 A 
ATOM     19  C   UNL d   1      26.085 -15.217   0.151  0.00  0.00     0.104 A 
ATOM     20  N   UNL d   1      27.315 -14.609   0.011  0.00  0.00    -0.351 N 
ATOM     21  C   UNL d   1      28.277 -15.582  -0.237  0.00  0.00     0.045 A 
ATOM     22  C   UNL d   1      29.665 -15.506  -0.451  0.00  0.00     0.030 A 
ATOM     23  C   UNL d   1      27.616 -16.814  -0.256  0.00  0.00     0.002 A 
ATOM     24  C   UNL d   1      30.373 -16.702  -0.653  0.00  0.00     0.002 A 
ATOM     25  C   UNL d   1      29.731 -17.930  -0.671  0.00  0.00     0.001 A 
ATOM     26  C   UNL d   1      28.354 -17.987  -0.520  0.00  0.00     0.014 A 
BRANCH  20  27
ATOM     27  C   UNL d   1      27.590 -13.165   0.099  0.00  0.00     0.167 C 
BRANCH  27  28
ATOM     28  C   UNL d   1      28.020 -12.721   1.483  0.00  0.00    -0.038 A 
ATOM     29  C   UNL d   1      29.072 -11.798   1.635  0.00  0.00     0.009 A 
ATOM     30  C   UNL d   1      29.632 -11.558   2.889  0.00  0.00     0.002 A 
ATOM     31  C   UNL d   1      29.169 -12.264   3.998  0.00  0.00     0.024 A 
ATOM     32  C   UNL d   1      28.084 -13.129   3.866  0.00  0.00     0.034 A 
ATOM     33 CL   UNL d   1      27.536 -14.022   5.231  0.00  0.00    -0.084 Cl
ATOM     34  C   UNL d   1      27.473 -13.320   2.625  0.00  0.00     0.032 A 
ENDBRANCH  27  28
ENDBRANCH  20  27
ENDBRANCH   4  18
TORSDOF 6
ENDMDL
MODEL 4
REMARK VINA RESULT:    -9.439      2.230      3.297
REMARK INTER + INTRA:         -12.477
REMARK INTER:                 -11.229
REMARK INTRA:                  -1.248
REMARK CONF_INDEPENDENT:        1.790
REMARK UNBOUND:                -1.248
REMARK  6 active torsions:
REMARK  status: ('A' for Active; 'I' for Inactive)
REMARK    1  A    between atoms: C_3  and  C_22 
REMARK    2  A    between atoms: C_4  and  C_5 
REMARK    3  A    between atoms: N_7  and  C_8 
REMARK    4  A    between atoms: C_8  and  C_9 
REMARK       I    between atoms: C_22  and  N_24 
REMARK    5  A    between atoms: N_24  and  C_25 
REMARK    6  A    between atoms: C_30  and  N_31 
ROOT
ATOM      1  N   UNL d   1      23.829 -15.536  -2.019  0.00  0.00    -0.096 N 
ATOM      2  C   UNL d   1      24.108 -16.441  -1.187  0.00  0.00     0.025 C 
ATOM      3  C   UNL d   1      24.445 -17.532  -0.183  0.00  0.00     0.099 C 
ATOM      4  C   UNL d   1      25.686 -17.552   0.344  0.00  0.00     0.041 C 
ENDROOT
BRANCH   3   5
ATOM      5  C   UNL d   1      23.392 -18.564   0.123  0.00  0.00     0.265 C 
ATOM      6  O   UNL d   1      23.635 -19.748  -0.130  0.00  0.00    -0.267 OA
ATOM      7  N   UNL d   1      22.155 -18.132   0.607  0.00  0.00    -0.320 N 
ATOM      8  H   UNL d   1      21.892 -17.160   0.460  0.00  0.00     0.169 HD
BRANCH   7   9
ATOM      9  C   UNL d   1      21.052 -19.025   0.803  0.00  0.00     0.068 C 
ATOM     10  C   UNL d   1      20.647 -19.326   2.111  0.00  0.00     0.032 C 
ATOM     11  C   UNL d   1      19.697 -20.319   2.368  0.00  0.00     0.002 C 
ATOM     12  C   UNL d   1      19.044 -20.954   1.318  0.00  0.00     0.003 C 
ATOM     13  C   UNL d   1      19.321 -20.574   0.006  0.00  0.00     0.038 C 
ATOM     14  C   UNL d   1      20.349 -19.641  -0.257  0.00  0.00     0.129 C 
BRANCH  14  15
ATOM     15  N   UNL d   1      20.735 -19.441  -1.662  0.00  0.00    -0.113 N 
ATOM     16  O   UNL d   1      19.904 -19.701  -2.539  0.00  0.00    -0.532 OA
ATOM     17  O   UNL d   1      21.885 -19.021  -1.894  0.00  0.00    -0.532 OA
ENDBRANCH  14  15
ENDBRANCH   7   9
ENDBRANCH   3   5
BRANCH   4  18
ATOM     18  C   UNL d   1      26.698 -16.588   0.047  0.00  0.00    -0.006 A 
ATOM     19  C   UNL d   1      26.487 -15.237   0.078  0.00  0.00     0.104 A 
ATOM     20  N   UNL d   1      27.694 -14.600  -0.122  0.00  0.00    -0.351 N 
ATOM     21  C   UNL d   1      28.680 -15.553  -0.349  0.00  0.00     0.045 A 
ATOM     22  C   UNL d   1      30.059 -15.444  -0.603  0.00  0.00     0.030 A 
ATOM     23  C   UNL d   1      28.058 -16.804  -0.294  0.00  0.00     0.002 A 
ATOM     24  C   UNL d   1      30.800 -16.627  -0.768  0.00  0.00     0.002 A 
ATOM     25  C   UNL d   1      30.197 -17.874  -0.712  0.00  0.00     0.001 A 
ATOM     26  C   UNL d   1      28.827 -17.965  -0.522  0.00  0.00     0.014 A 
BRANCH  20  27
ATOM     27  C   UNL d   1      27.925 -13.145  -0.107  0.00  0.00     0.167 C 
BRANCH  27  28
ATOM     28  C   UNL d   1      27.501 -12.458  -1.390  0.00  0.00    -0.038 A 
ATOM     29  C   UNL d   1      27.670 -11.069  -1.539  0.00  0.00     0.009 A 
ATOM     30  C   UNL d   1      27.080 -10.391  -2.604  0.00  0.00     0.002 A 
ATOM     31  C   UNL d   1      26.285 -11.088  -3.511  0.00  0.00     0.024 A 
ATOM     32  C   UNL d   1      26.168 -12.473  -3.408  0.00  0.00     0.034 A 
ATOM     33 CL   UNL d   1      25.160 -13.327  -4.511  0.00  0.00    -0.084 Cl
ATOM     34  C   UNL d   1      26.815 -13.168  -2.384  0.00  0.00     0.032 A 
ENDBRANCH  27  28
ENDBRANCH  20  27
ENDBRANCH   4  18
TORSDOF 6
ENDMDL
MODEL 5
REMARK VINA RESULT:    -8.865      1.877      2.311
REMARK INTER + INTRA:         -12.549
REMARK INTER:                 -10.655
REMARK INTRA:                  -1.895
REMARK CONF_INDEPENDENT:        1.790
REMARK UNBOUND:                -1.895
REMARK  6 active torsions:
REMARK  status: ('A' for Active; 'I' for Inactive)
REMARK    1  A    between atoms: C_3  and  C_22 
REMARK    2  A    between atoms: C_4  and  C_5 
REMARK    3  A    between atoms: N_7  and  C_8 
REMARK    4  A    between atoms: C_8  and  C_9 
REMARK       I    between atoms: C_22  and  N_24 
REMARK    5  A    between atoms: N_24  and  C_25 
REMARK    6  A    between atoms: C_30  and  N_31 
ROOT
ATOM      1  N   UNL d   1      22.188 -15.200  -1.276  0.00  0.00    -0.096 N 
ATOM      2  C   UNL d   1      22.448 -16.402  -0.996  0.00  0.00     0.025 C 
ATOM      3  C   UNL d   1      22.760 -17.851  -0.658  0.00  0.00     0.099 C 
ATOM      4  C   UNL d   1      24.046 -18.188  -0.429  0.00  0.00     0.041 C 
ENDROOT
BRANCH   3   5
ATOM      5  C   UNL d   1      21.625 -18.840  -0.655  0.00  0.00     0.265 C 
ATOM      6  O   UNL d   1      21.274 -19.339  -1.728  0.00  0.00    -0.267 OA
ATOM      7  N   UNL d   1      20.965 -19.094   0.549  0.00  0.00    -0.320 N 
ATOM      8  H   UNL d   1      21.054 -18.413   1.301  0.00  0.00     0.169 HD
BRANCH   7   9
ATOM      9  C   UNL d   1      19.795 -19.917   0.625  0.00  0.00     0.068 C 
ATOM     10  C   UNL d   1      19.072 -20.178  -0.547  0.00  0.00     0.032 C 
ATOM     11  C   UNL d   1      17.832 -20.826  -0.508  0.00  0.00     0.002 C 
ATOM     12  C   UNL d   1      17.342 -21.332   0.690  0.00  0.00     0.003 C 
ATOM     13  C   UNL d   1      18.107 -21.215   1.850  0.00  0.00     0.038 C 
ATOM     14  C   UNL d   1      19.311 -20.476   1.830  0.00  0.00     0.129 C 
BRANCH  14  15
ATOM     15  N   UNL d   1      19.961 -20.211   3.123  0.00  0.00    -0.113 N 
ATOM     16  O   UNL d   1      20.656 -19.195   3.230  0.00  0.00    -0.532 OA
ATOM     17  O   UNL d   1      19.777 -21.030   4.043  0.00  0.00    -0.532 OA
ENDBRANCH  14  15
ENDBRANCH   7   9
ENDBRANCH   3   5
BRANCH   4  18
ATOM     18  C   UNL d   1      25.132 -17.261  -0.447  0.00  0.00    -0.006 A 
ATOM     19  C   UNL d   1      26.007 -17.101   0.592  0.00  0.00     0.104 A 
ATOM     20  N   UNL d   1      27.006 -16.236   0.197  0.00  0.00    -0.351 N 
ATOM     21  C   UNL d   1      26.734 -15.784  -1.090  0.00  0.00     0.045 A 
ATOM     22  C   UNL d   1      27.418 -14.904  -1.947  0.00  0.00     0.030 A 
ATOM     23  C   UNL d   1      25.534 -16.383  -1.487  0.00  0.00     0.002 A 
ATOM     24  C   UNL d   1      26.881 -14.668  -3.224  0.00  0.00     0.002 A 
ATOM     25  C   UNL d   1      25.695 -15.257  -3.632  0.00  0.00     0.001 A 
ATOM     26  C   UNL d   1      24.998 -16.075  -2.755  0.00  0.00     0.014 A 
BRANCH  20  27
ATOM     27  C   UNL d   1      28.179 -15.835   0.993  0.00  0.00     0.167 C 
BRANCH  27  28
ATOM     28  C   UNL d   1      27.988 -14.520   1.720  0.00  0.00    -0.038 A 
ATOM     29  C   UNL d   1      28.104 -13.302   1.024  0.00  0.00     0.009 A 
ATOM     30  C   UNL d   1      28.163 -12.092   1.713  0.00  0.00     0.002 A 
ATOM     31  C   UNL d   1      28.142 -12.089   3.106  0.00  0.00     0.024 A 
ATOM     32  C   UNL d   1      27.960 -13.284   3.799  0.00  0.00     0.034 A 
ATOM     33 CL   UNL d   1      27.967 -13.280   5.520  0.00  0.00    -0.084 Cl
ATOM     34  C   UNL d   1      27.829 -14.492   3.112  0.00  0.00     0.032 A 
ENDBRANCH  27  28
ENDBRANCH  20  27
ENDBRANCH   4  18
TORSDOF 6
ENDMDL
MODEL 6
REMARK VINA RESULT:    -8.176      6.749      9.891
REMARK INTER + INTRA:         -12.190
REMARK INTER:                  -9.966
REMARK INTRA:                  -2.225
REMARK CONF_INDEPENDENT:        1.790
REMARK UNBOUND:                -2.225
REMARK  6 active torsions:
REMARK  status: ('A' for Active; 'I' for Inactive)
REMARK    1  A    between atoms: C_3  and  C_22 
REMARK    2  A    between atoms: C_4  and  C_5 
REMARK    3  A    between atoms: N_7  and  C_8 
REMARK    4  A    between atoms: C_8  and  C_9 
REMARK       I    between atoms: C_22  and  N_24 
REMARK    5  A    between atoms: N_24  and  C_25 
REMARK    6  A    between atoms: C_30  and  N_31 
ROOT
ATOM      1  N   UNL d   1      30.035 -22.123   0.420  0.00  0.00    -0.096 N 
ATOM      2  C   UNL d   1      31.011 -21.467   0.874  0.00  0.00     0.025 C 
ATOM      3  C   UNL d   1      32.188 -20.677   1.422  0.00  0.00     0.099 C 
ATOM      4  C   UNL d   1      32.522 -19.524   0.807  0.00  0.00     0.041 C 
ENDROOT
BRANCH   3   5
ATOM      5  C   UNL d   1      32.951 -21.254   2.585  0.00  0.00     0.265 C 
ATOM      6  O   UNL d   1      33.674 -22.235   2.387  0.00  0.00    -0.267 OA
ATOM      7  N   UNL d   1      32.751 -20.705   3.853  0.00  0.00    -0.320 N 
ATOM      8  H   UNL d   1      31.907 -20.158   4.013  0.00  0.00     0.169 HD
BRANCH   7   9
ATOM      9  C   UNL d   1      33.331 -21.269   5.035  0.00  0.00     0.068 C 
ATOM     10  C   UNL d   1      34.711 -21.517   5.061  0.00  0.00     0.032 C 
ATOM     11  C   UNL d   1      35.303 -22.222   6.114  0.00  0.00     0.002 C 
ATOM     12  C   UNL d   1      34.550 -22.595   7.220  0.00  0.00     0.003 C 
ATOM     13  C   UNL d   1      33.204 -22.236   7.289  0.00  0.00     0.038 C 
ATOM     14  C   UNL d   1      32.584 -21.609   6.185  0.00  0.00     0.129 C 
BRANCH  14  15
ATOM     15  N   UNL d   1      31.123 -21.448   6.235  0.00  0.00    -0.113 N 
ATOM     16  O   UNL d   1      30.526 -21.194   5.184  0.00  0.00    -0.532 OA
ATOM     17  O   UNL d   1      30.563 -21.574   7.341  0.00  0.00    -0.532 OA
ENDBRANCH  14  15
ENDBRANCH   7   9
ENDBRANCH   3   5
BRANCH   4  18
ATOM     18  C   UNL d   1      31.816 -18.977  -0.307  0.00  0.00    -0.006 A 
ATOM     19  C   UNL d   1      31.161 -17.777  -0.272  0.00  0.00     0.104 A 
ATOM     20  N   UNL d   1      30.708 -17.485  -1.542  0.00  0.00    -0.351 N 
ATOM     21  C   UNL d   1      31.019 -18.543  -2.389  0.00  0.00     0.045 A 
ATOM     22  C   UNL d   1      30.789 -18.754  -3.760  0.00  0.00     0.030 A 
ATOM     23  C   UNL d   1      31.672 -19.507  -1.616  0.00  0.00     0.002 A 
ATOM     24  C   UNL d   1      31.261 -19.945  -4.339  0.00  0.00     0.002 A 
ATOM     25  C   UNL d   1      31.912 -20.908  -3.584  0.00  0.00     0.001 A 
ATOM     26  C   UNL d   1      32.078 -20.715  -2.221  0.00  0.00     0.014 A 
BRANCH  20  27
ATOM     27  C   UNL d   1      30.001 -16.261  -1.957  0.00  0.00     0.167 C 
BRANCH  27  28
ATOM     28  C   UNL d   1      28.529 -16.270  -1.600  0.00  0.00    -0.038 A 
ATOM     29  C   UNL d   1      28.028 -17.210  -0.680  0.00  0.00     0.009 A 
ATOM     30  C   UNL d   1      26.655 -17.386  -0.518  0.00  0.00     0.002 A 
ATOM     31  C   UNL d   1      25.768 -16.648  -1.298  0.00  0.00     0.024 A 
ATOM     32  C   UNL d   1      26.254 -15.668  -2.162  0.00  0.00     0.034 A 
ATOM     33 CL   UNL d   1      25.157 -14.781  -3.148  0.00  0.00    -0.084 Cl
ATOM     34  C   UNL d   1      27.626 -15.439  -2.278  0.00  0.00     0.032 A 
ENDBRANCH  27  28
ENDBRANCH  20  27
ENDBRANCH   4  18
TORSDOF 6
ENDMDL
MODEL 7
REMARK VINA RESULT:    -8.080      5.455      9.608
REMARK INTER + INTRA:         -11.964
REMARK INTER:                  -9.870
REMARK INTRA:                  -2.094
REMARK CONF_INDEPENDENT:        1.790
REMARK UNBOUND:                -2.094
REMARK  6 active torsions:
REMARK  status: ('A' for Active; 'I' for Inactive)
REMARK    1  A    between atoms: C_3  and  C_22 
REMARK    2  A    between atoms: C_4  and  C_5 
REMARK    3  A    between atoms: N_7  and  C_8 
REMARK    4  A    between atoms: C_8  and  C_9 
REMARK       I    between atoms: C_22  and  N_24 
REMARK    5  A    between atoms: N_24  and  C_25 
REMARK    6  A    between atoms: C_30  and  N_31 
ROOT
ATOM      1  N   UNL d   1      29.287 -16.150  -2.661  0.00  0.00    -0.096 N 
ATOM      2  C   UNL d   1      29.233 -16.039  -3.916  0.00  0.00     0.025 C 
ATOM      3  C   UNL d   1      29.167 -15.906  -5.429  0.00  0.00     0.099 C 
ATOM      4  C   UNL d   1      28.150 -15.200  -5.962  0.00  0.00     0.041 C 
ENDROOT
BRANCH   3   5
ATOM      5  C   UNL d   1      30.209 -16.619  -6.250  0.00  0.00     0.265 C 
ATOM      6  O   UNL d   1      30.927 -15.950  -7.000  0.00  0.00    -0.267 OA
ATOM      7  N   UNL d   1      30.268 -18.012  -6.189  0.00  0.00    -0.320 N 
ATOM      8  H   UNL d   1      29.451 -18.515  -5.850  0.00  0.00     0.169 HD
BRANCH   7   9
ATOM      9  C   UNL d   1      31.136 -18.782  -7.030  0.00  0.00     0.068 C 
ATOM     10  C   UNL d   1      31.599 -18.216  -8.226  0.00  0.00     0.032 C 
ATOM     11  C   UNL d   1      32.303 -18.976  -9.167  0.00  0.00     0.002 C 
ATOM     12  C   UNL d   1      32.661 -20.288  -8.882  0.00  0.00     0.003 C 
ATOM     13  C   UNL d   1      32.340 -20.834  -7.640  0.00  0.00     0.038 C 
ATOM     14  C   UNL d   1      31.546 -20.101  -6.730  0.00  0.00     0.129 C 
BRANCH  14  15
ATOM     15  N   UNL d   1      31.066 -20.807  -5.532  0.00  0.00    -0.113 N 
ATOM     16  O   UNL d   1      29.996 -20.446  -5.031  0.00  0.00    -0.532 OA
ATOM     17  O   UNL d   1      31.768 -21.734  -5.085  0.00  0.00    -0.532 OA
ENDBRANCH  14  15
ENDBRANCH   7   9
ENDBRANCH   3   5
BRANCH   4  18
ATOM     18  C   UNL d   1      27.146 -14.535  -5.193  0.00  0.00    -0.006 A 
ATOM     19  C   UNL d   1      26.200 -15.192  -4.457  0.00  0.00     0.104 A 
ATOM     20  N   UNL d   1      25.482 -14.262  -3.734  0.00  0.00    -0.351 N 
ATOM     21  C   UNL d   1      25.930 -12.988  -4.060  0.00  0.00     0.045 A 
ATOM     22  C   UNL d   1      25.546 -11.709  -3.619  0.00  0.00     0.030 A 
ATOM     23  C   UNL d   1      26.942 -13.143  -5.012  0.00  0.00     0.002 A 
ATOM     24  C   UNL d   1      26.228 -10.594  -4.136  0.00  0.00     0.002 A 
ATOM     25  C   UNL d   1      27.235 -10.734  -5.078  0.00  0.00     0.001 A 
ATOM     26  C   UNL d   1      27.563 -11.995  -5.550  0.00  0.00     0.014 A 
BRANCH  20  27
ATOM     27  C   UNL d   1      24.405 -14.549  -2.770  0.00  0.00     0.167 C 
BRANCH  27  28
ATOM     28  C   UNL d   1      24.784 -15.596  -1.743  0.00  0.00    -0.038 A 
ATOM     29  C   UNL d   1      26.126 -15.746  -1.346  0.00  0.00     0.009 A 
ATOM     30  C   UNL d   1      26.525 -16.845  -0.587  0.00  0.00     0.002 A 
ATOM     31  C   UNL d   1      25.593 -17.824  -0.247  0.00  0.00     0.024 A 
ATOM     32  C   UNL d   1      24.251 -17.649  -0.579  0.00  0.00     0.034 A 
ATOM     33 CL   UNL d   1      23.109 -18.875  -0.185  0.00  0.00    -0.084 Cl
ATOM     34  C   UNL d   1      23.833 -16.515  -1.278  0.00  0.00     0.032 A 
ENDBRANCH  27  28
ENDBRANCH  20  27
ENDBRANCH   4  18
TORSDOF 6
ENDMDL
MODEL 8
REMARK VINA RESULT:    -7.792      5.923      9.759
REMARK INTER + INTRA:         -11.776
REMARK INTER:                  -9.581
REMARK INTRA:                  -2.194
REMARK CONF_INDEPENDENT:        1.790
REMARK UNBOUND:                -2.194
REMARK  6 active torsions:
REMARK  status: ('A' for Active; 'I' for Inactive)
REMARK    1  A    between atoms: C_3  and  C_22 
REMARK    2  A    between atoms: C_4  and  C_5 
REMARK    3  A    between atoms: N_7  and  C_8 
REMARK    4  A    between atoms: C_8  and  C_9 
REMARK       I    between atoms: C_22  and  N_24 
REMARK    5  A    between atoms: N_24  and  C_25 
REMARK    6  A    between atoms: C_30  and  N_31 
ROOT
ATOM      1  N   UNL d   1      25.326  -9.949  -5.220  0.00  0.00    -0.096 N 
ATOM      2  C   UNL d   1      25.849  -9.898  -4.074  0.00  0.00     0.025 C 
ATOM      3  C   UNL d   1      26.480  -9.836  -2.692  0.00  0.00     0.099 C 
ATOM      4  C   UNL d   1      26.895 -10.990  -2.130  0.00  0.00     0.041 C 
ENDROOT
BRANCH   3   5
ATOM      5  C   UNL d   1      26.553  -8.499  -2.004  0.00  0.00     0.265 C 
ATOM      6  O   UNL d   1      27.340  -7.654  -2.440  0.00  0.00    -0.267 OA
ATOM      7  N   UNL d   1      25.786  -8.297  -0.855  0.00  0.00    -0.320 N 
ATOM      8  H   UNL d   1      25.447  -9.114  -0.352  0.00  0.00     0.169 HD
BRANCH   7   9
ATOM      9  C   UNL d   1      25.889  -7.108  -0.062  0.00  0.00     0.068 C 
ATOM     10  C   UNL d   1      26.014  -5.871  -0.708  0.00  0.00     0.032 C 
ATOM     11  C   UNL d   1      26.291  -4.701   0.007  0.00  0.00     0.002 C 
ATOM     12  C   UNL d   1      26.334  -4.722   1.396  0.00  0.00     0.003 C 
ATOM     13  C   UNL d   1      26.071  -5.911   2.075  0.00  0.00     0.038 C 
ATOM     14  C   UNL d   1      25.887  -7.110   1.351  0.00  0.00     0.129 C 
BRANCH  14  15
ATOM     15  N   UNL d   1      25.824  -8.361   2.124  0.00  0.00    -0.113 N 
ATOM     16  O   UNL d   1      25.093  -9.267   1.710  0.00  0.00    -0.532 OA
ATOM     17  O   UNL d   1      26.511  -8.438   3.160  0.00  0.00    -0.532 OA
ENDBRANCH  14  15
ENDBRANCH   7   9
ENDBRANCH   3   5
BRANCH   4  18
ATOM     18  C   UNL d   1      26.814 -12.266  -2.766  0.00  0.00    -0.006 A 
ATOM     19  C   UNL d   1      25.946 -13.249  -2.381  0.00  0.00     0.104 A 
ATOM     20  N   UNL d   1      26.030 -14.289  -3.284  0.00  0.00    -0.351 N 
ATOM     21  C   UNL d   1      27.012 -13.997  -4.223  0.00  0.00     0.045 A 
ATOM     22  C   UNL d   1      27.492 -14.704  -5.340  0.00  0.00     0.030 A 
ATOM     23  C   UNL d   1      27.546 -12.751  -3.881  0.00  0.00     0.002 A 
ATOM     24  C   UNL d   1      28.498 -14.111  -6.121  0.00  0.00     0.002 A 
ATOM     25  C   UNL d   1      29.034 -12.875  -5.796  0.00  0.00     0.001 A 
ATOM     26  C   UNL d   1      28.596 -12.216  -4.657  0.00  0.00     0.014 A 
BRANCH  20  27
ATOM     27  C   UNL d   1      25.225 -15.522  -3.272  0.00  0.00     0.167 C 
BRANCH  27  28
ATOM     28  C   UNL d   1      25.196 -16.205  -1.920  0.00  0.00    -0.038 A 
ATOM     29  C   UNL d   1      26.395 -16.451  -1.224  0.00  0.00     0.009 A 
ATOM     30  C   UNL d   1      26.410 -17.278  -0.102  0.00  0.00     0.002 A 
ATOM     31  C   UNL d   1      25.233 -17.895   0.316  0.00  0.00     0.024 A 
ATOM     32  C   UNL d   1      24.031 -17.604  -0.327  0.00  0.00     0.034 A 
ATOM     33 CL   UNL d   1      22.585 -18.393   0.173  0.00  0.00    -0.084 Cl
ATOM     34  C   UNL d   1      23.998 -16.722  -1.408  0.00  0.00     0.032 A 
ENDBRANCH  27  28
ENDBRANCH  20  27
ENDBRANCH   4  18
TORSDOF 6
ENDMDL
MODEL 9
REMARK VINA RESULT:    -7.745      4.985      9.404
REMARK INTER + INTRA:         -11.836
REMARK INTER:                  -9.535
REMARK INTRA:                  -2.302
REMARK CONF_INDEPENDENT:        1.790
REMARK UNBOUND:                -2.302
REMARK  6 active torsions:
REMARK  status: ('A' for Active; 'I' for Inactive)
REMARK    1  A    between atoms: C_3  and  C_22 
REMARK    2  A    between atoms: C_4  and  C_5 
REMARK    3  A    between atoms: N_7  and  C_8 
REMARK    4  A    between atoms: C_8  and  C_9 
REMARK       I    between atoms: C_22  and  N_24 
REMARK    5  A    between atoms: N_24  and  C_25 
REMARK    6  A    between atoms: C_30  and  N_31 
ROOT
ATOM      1  N   UNL d   1      25.651 -12.605   1.353  0.00  0.00    -0.096 N 
ATOM      2  C   UNL d   1      26.743 -12.925   1.896  0.00  0.00     0.025 C 
ATOM      3  C   UNL d   1      28.060 -13.312   2.550  0.00  0.00     0.099 C 
ATOM      4  C   UNL d   1      28.663 -14.448   2.146  0.00  0.00     0.041 C 
ENDROOT
BRANCH   3   5
ATOM      5  C   UNL d   1      28.588 -12.434   3.655  0.00  0.00     0.265 C 
ATOM      6  O   UNL d   1      29.034 -12.972   4.673  0.00  0.00    -0.267 OA
ATOM      7  N   UNL d   1      28.479 -11.050   3.516  0.00  0.00    -0.320 N 
ATOM      8  H   UNL d   1      27.802 -10.683   2.850  0.00  0.00     0.169 HD
BRANCH   7   9
ATOM      9  C   UNL d   1      28.833 -10.142   4.567  0.00  0.00     0.068 C 
ATOM     10  C   UNL d   1      29.875 -10.488   5.439  0.00  0.00     0.032 C 
ATOM     11  C   UNL d   1      30.149  -9.729   6.582  0.00  0.00     0.002 C 
ATOM     12  C   UNL d   1      29.465  -8.542   6.817  0.00  0.00     0.003 C 
ATOM     13  C   UNL d   1      28.522  -8.097   5.891  0.00  0.00     0.038 C 
ATOM     14  C   UNL d   1      28.176  -8.911   4.789  0.00  0.00     0.129 C 
BRANCH  14  15
ATOM     15  N   UNL d   1      27.031  -8.485   3.970  0.00  0.00    -0.113 N 
ATOM     16  O   UNL d   1      26.831  -7.274   3.830  0.00  0.00    -0.532 OA
ATOM     17  O   UNL d   1      26.320  -9.372   3.461  0.00  0.00    -0.532 OA
ENDBRANCH  14  15
ENDBRANCH   7   9
ENDBRANCH   3   5
BRANCH   4  18
ATOM     18  C   UNL d   1      28.161 -15.296   1.112  0.00  0.00    -0.006 A 
ATOM     19  C   UNL d   1      27.405 -16.410   1.348  0.00  0.00     0.104 A 
ATOM     20  N   UNL d   1      26.975 -16.915   0.139  0.00  0.00    -0.351 N 
ATOM     21  C   UNL d   1      27.516 -16.153  -0.890  0.00  0.00     0.045 A 
ATOM     22  C   UNL d   1      27.400 -16.235  -2.289  0.00  0.00     0.030 A 
ATOM     23  C   UNL d   1      28.303 -15.163  -0.294  0.00  0.00     0.002 A 
ATOM     24  C   UNL d   1      28.068 -15.277  -3.070  0.00  0.00     0.002 A 
ATOM     25  C   UNL d   1      28.848 -14.288  -2.492  0.00  0.00     0.001 A 
ATOM     26  C   UNL d   1      29.005 -14.255  -1.115  0.00  0.00     0.014 A 
BRANCH  20  27
ATOM     27  C   UNL d   1      26.090 -18.077  -0.057  0.00  0.00     0.167 C 
BRANCH  27  28
ATOM     28  C   UNL d   1      24.698 -17.697  -0.520  0.00  0.00    -0.038 A 
ATOM     29  C   UNL d   1      24.395 -16.358  -0.830  0.00  0.00     0.009 A 
ATOM     30  C   UNL d   1      23.075 -15.955  -1.029  0.00  0.00     0.002 A 
ATOM     31  C   UNL d   1      22.043 -16.880  -0.888  0.00  0.00     0.024 A 
ATOM     32  C   UNL d   1      22.340 -18.220  -0.648  0.00  0.00     0.034 A 
ATOM     33 CL   UNL d   1      21.060 -19.352  -0.442  0.00  0.00    -0.084 Cl
ATOM     34  C   UNL d   1      23.664 -18.643  -0.517  0.00  0.00     0.032 A 
ENDBRANCH  27  28
ENDBRANCH  20  27
ENDBRANCH   4  18
TORSDOF 6
ENDMDL
