MODEL 1
REMARK VINA RESULT:   -10.423      0.000      0.000
REMARK INTER + INTRA:         -13.789
REMARK INTER:                 -12.213
REMARK INTRA:                  -1.577
REMARK CONF_INDEPENDENT:        1.790
REMARK UNBOUND:                -1.577
REMARK  6 active torsions:
REMARK  status: ('A' for Active; 'I' for Inactive)
REMARK       I    between atoms: C_2  and  N_4 
REMARK    1  A    between atoms: N_4  and  C_5 
REMARK    2  A    between atoms: C_9  and  S_10 
REMARK    3  A    between atoms: S_10  and  C_11 
REMARK    4  A    between atoms: C_11  and  C_12 
REMARK       I    between atoms: C_12  and  N_14 
REMARK    5  A    between atoms: N_14  and  C_15 
REMARK    6  A    between atoms: N_25  and  C_26 
ROOT
ATOM      1  C   UNL d   1      30.083 -16.899  -5.508  0.00  0.00     0.173 A 
ATOM      2  C   UNL d   1      30.579 -17.392  -4.353  0.00  0.00     0.280 A 
ATOM      3  O   UNL d   1      31.506 -18.229  -4.211  0.00  0.00    -0.265 OA
ATOM      4  N   UNL d   1      30.080 -16.923  -3.111  0.00  0.00    -0.301 N 
ATOM      5  C   UNL d   1      29.066 -16.008  -3.040  0.00  0.00     0.157 A 
ATOM      6  N   UNL d   1      28.499 -15.532  -4.163  0.00  0.00    -0.256 N 
ATOM      7  C   UNL d   1      28.982 -15.917  -5.457  0.00  0.00     0.286 A 
ATOM      8  O   UNL d   1      28.423 -15.494  -6.460  0.00  0.00    -0.265 OA
ATOM      9  H   UNL d   1      30.509 -17.302  -2.253  0.00  0.00     0.171 HD
ENDROOT
BRANCH   5  10
ATOM     10  S   UNL d   1      28.507 -15.526  -1.383  0.00  0.00    -0.084 SA
BRANCH  10  11
ATOM     11  C   UNL d   1      28.393 -17.089  -0.165  0.00  0.00     0.185 C 
BRANCH  11  12
ATOM     12  C   UNL d   1      26.808 -17.932  -0.075  0.00  0.00     0.231 C 
ATOM     13  O   UNL d   1      27.082 -18.894   0.649  0.00  0.00    -0.272 OA
ATOM     14  N   UNL d   1      25.205 -17.593  -0.748  0.00  0.00    -0.326 N 
ATOM     15  H   UNL d   1      25.708 -16.600  -1.173  0.00  0.00     0.169 HD
BRANCH  14  16
ATOM     16  C   UNL d   1      23.339 -18.286  -0.890  0.00  0.00     0.045 A 
ATOM     17  C   UNL d   1      23.770 -18.228   0.289  0.00  0.00     0.030 A 
ATOM     18  C   UNL d   1      22.751 -18.494  -0.223  0.00  0.00     0.003 A 
ATOM     19  C   UNL d   1      21.771 -18.958   0.754  0.00  0.00     0.012 A 
ATOM     20  C   UNL d   1      20.693 -19.320   0.222  0.00  0.00    -0.024 A 
ATOM     21  C   UNL d   1      19.467 -19.879   1.210  0.00  0.00     0.012 C 
ATOM     22  C   UNL d   1      21.297 -19.038  -0.979  0.00  0.00     0.001 A 
ATOM     23  C   UNL d   1      18.318 -20.553   0.873  0.00  0.00     0.001 C 
ATOM     24  C   UNL d   1      18.206 -20.451  -0.459  0.00  0.00     0.001 C 
ATOM     25  C   UNL d   1      19.535 -19.651  -1.286  0.00  0.00     0.014 C 
ENDBRANCH  14  16
ENDBRANCH  11  12
ENDBRANCH  10  11
ENDBRANCH   5  10
BRANCH   6  26
ATOM     26  C   UNL d   1      27.502 -14.574  -4.208  0.00  0.00     0.044 C 
ATOM     27  C   UNL d   1      27.643 -13.295  -4.765  0.00  0.00     0.030 C 
ATOM     28  C   UNL d   1      26.613 -12.343  -4.695  0.00  0.00     0.002 C 
ATOM     29  C   UNL d   1      25.335 -12.725  -4.369  0.00  0.00     0.000 C 
ATOM     30  C   UNL d   1      25.116 -14.029  -4.033  0.00  0.00     0.002 C 
ATOM     31  C   UNL d   1      26.229 -14.860  -3.712  0.00  0.00     0.030 C 
ENDBRANCH   6  26
BRANCH   1  32
ATOM     32  N   UNL d   1      30.544 -17.289  -6.786  0.00  0.00    -0.318 N 
ATOM     33  C   UNL d   1      30.850 -18.619  -7.089  0.00  0.00     0.218 C 
ATOM     34  C   UNL d   1      31.277 -18.961  -8.510  0.00  0.00     0.117 C 
ATOM     35  O   UNL d   1      30.755 -19.533  -6.266  0.00  0.00    -0.274 OA
ATOM     36  H   UNL d   1      30.519 -16.561  -7.498  0.00  0.00     0.169 HD
ENDBRANCH   1  32
TORSDOF 6
ENDMDL
MODEL 2
REMARK VINA RESULT:   -10.264      2.609      4.571
REMARK INTER + INTRA:         -13.453
REMARK INTER:                 -12.054
REMARK INTRA:                  -1.399
REMARK CONF_INDEPENDENT:        1.790
REMARK UNBOUND:                -1.399
REMARK  6 active torsions:
REMARK  status: ('A' for Active; 'I' for Inactive)
REMARK       I    between atoms: C_2  and  N_4 
REMARK    1  A    between atoms: N_4  and  C_5 
REMARK    2  A    between atoms: C_9  and  S_10 
REMARK    3  A    between atoms: S_10  and  C_11 
REMARK    4  A    between atoms: C_11  and  C_12 
REMARK       I    between atoms: C_12  and  N_14 
REMARK    5  A    between atoms: N_14  and  C_15 
REMARK    6  A    between atoms: N_25  and  C_26 
ROOT
ATOM      1  C   UNL d   1      30.899 -14.397  -7.421  0.00  0.00     0.173 A 
ATOM      2  C   UNL d   1      30.066 -13.698  -6.620  0.00  0.00     0.280 A 
ATOM      3  O   UNL d   1      29.703 -12.501  -6.747  0.00  0.00    -0.265 OA
ATOM      4  N   UNL d   1      29.450 -14.334  -5.512  0.00  0.00    -0.301 N 
ATOM      5  C   UNL d   1      29.709 -15.639  -5.194  0.00  0.00     0.157 A 
ATOM      6  N   UNL d   1      30.577 -16.358  -5.926  0.00  0.00    -0.256 N 
ATOM      7  C   UNL d   1      31.200 -15.804  -7.092  0.00  0.00     0.286 A 
ATOM      8  O   UNL d   1      32.011 -16.473  -7.718  0.00  0.00    -0.265 OA
ATOM      9  H   UNL d   1      28.796 -13.772  -4.945  0.00  0.00     0.171 HD
ENDROOT
BRANCH   5  10
ATOM     10  S   UNL d   1      28.875 -16.309  -3.728  0.00  0.00    -0.084 SA
BRANCH  10  11
ATOM     11  C   UNL d   1      27.453 -15.089  -3.072  0.00  0.00     0.185 C 
BRANCH  11  12
ATOM     12  C   UNL d   1      25.786 -15.756  -2.994  0.00  0.00     0.231 C 
ATOM     13  O   UNL d   1      25.232 -15.141  -3.910  0.00  0.00    -0.272 OA
ATOM     14  N   UNL d   1      25.007 -16.977  -1.974  0.00  0.00    -0.326 N 
ATOM     15  H   UNL d   1      26.088 -17.116  -1.494  0.00  0.00     0.169 HD
BRANCH  14  16
ATOM     16  C   UNL d   1      23.272 -17.886  -1.591  0.00  0.00     0.045 A 
ATOM     17  C   UNL d   1      23.968 -17.670  -0.568  0.00  0.00     0.030 A 
ATOM     18  C   UNL d   1      22.899 -18.096  -0.784  0.00  0.00     0.003 A 
ATOM     19  C   UNL d   1      22.259 -18.573   0.437  0.00  0.00     0.012 A 
ATOM     20  C   UNL d   1      21.142 -19.102   0.222  0.00  0.00    -0.024 A 
ATOM     21  C   UNL d   1      20.281 -19.700   1.524  0.00  0.00     0.012 C 
ATOM     22  C   UNL d   1      21.389 -18.868  -1.108  0.00  0.00     0.001 A 
ATOM     23  C   UNL d   1      19.184 -20.528   1.533  0.00  0.00     0.001 C 
ATOM     24  C   UNL d   1      18.736 -20.563   0.271  0.00  0.00     0.001 C 
ATOM     25  C   UNL d   1      19.703 -19.700  -0.916  0.00  0.00     0.014 C 
ENDBRANCH  14  16
ENDBRANCH  11  12
ENDBRANCH  10  11
ENDBRANCH   5  10
BRANCH   6  26
ATOM     26  C   UNL d   1      30.876 -17.693  -5.721  0.00  0.00     0.044 C 
ATOM     27  C   UNL d   1      31.611 -18.193  -4.635  0.00  0.00     0.030 C 
ATOM     28  C   UNL d   1      31.951 -19.552  -4.538  0.00  0.00     0.002 C 
ATOM     29  C   UNL d   1      31.318 -20.484  -5.323  0.00  0.00     0.000 C 
ATOM     30  C   UNL d   1      30.419 -20.045  -6.251  0.00  0.00     0.002 C 
ATOM     31  C   UNL d   1      30.406 -18.664  -6.605  0.00  0.00     0.030 C 
ENDBRANCH   6  26
BRANCH   1  32
ATOM     32  N   UNL d   1      31.529 -13.850  -8.561  0.00  0.00    -0.318 N 
ATOM     33  C   UNL d   1      32.866 -13.438  -8.543  0.00  0.00     0.218 C 
ATOM     34  C   UNL d   1      33.484 -12.921  -9.834  0.00  0.00     0.117 C 
ATOM     35  O   UNL d   1      33.575 -13.509  -7.536  0.00  0.00    -0.274 OA
ATOM     36  H   UNL d   1      30.984 -13.891  -9.420  0.00  0.00     0.169 HD
ENDBRANCH   1  32
TORSDOF 6
ENDMDL
MODEL 3
REMARK VINA RESULT:    -9.939      2.462      2.751
REMARK INTER + INTRA:         -13.789
REMARK INTER:                 -11.729
REMARK INTRA:                  -2.060
REMARK CONF_INDEPENDENT:        1.790
REMARK UNBOUND:                -2.060
REMARK  6 active torsions:
REMARK  status: ('A' for Active; 'I' for Inactive)
REMARK       I    between atoms: C_2  and  N_4 
REMARK    1  A    between atoms: N_4  and  C_5 
REMARK    2  A    between atoms: C_9  and  S_10 
REMARK    3  A    between atoms: S_10  and  C_11 
REMARK    4  A    between atoms: C_11  and  C_12 
REMARK       I    between atoms: C_12  and  N_14 
REMARK    5  A    between atoms: N_14  and  C_15 
REMARK    6  A    between atoms: N_25  and  C_26 
ROOT
ATOM      1  C   UNL d   1      30.506 -14.294  -6.919  0.00  0.00     0.173 A 
ATOM      2  C   UNL d   1      31.264 -15.253  -6.346  0.00  0.00     0.280 A 
ATOM      3  O   UNL d   1      32.389 -15.670  -6.722  0.00  0.00    -0.265 OA
ATOM      4  N   UNL d   1      30.831 -15.878  -5.149  0.00  0.00    -0.301 N 
ATOM      5  C   UNL d   1      29.631 -15.570  -4.569  0.00  0.00     0.157 A 
ATOM      6  N   UNL d   1      28.814 -14.664  -5.135  0.00  0.00    -0.256 N 
ATOM      7  C   UNL d   1      29.203 -13.952  -6.316  0.00  0.00     0.286 A 
ATOM      8  O   UNL d   1      28.424 -13.158  -6.826  0.00  0.00    -0.265 OA
ATOM      9  H   UNL d   1      31.455 -16.582  -4.728  0.00  0.00     0.171 HD
ENDROOT
BRANCH   5  10
ATOM     10  S   UNL d   1      29.192 -16.474  -3.059  0.00  0.00    -0.084 SA
BRANCH  10  11
ATOM     11  C   UNL d   1      28.257 -15.308  -1.752  0.00  0.00     0.185 C 
BRANCH  11  12
ATOM     12  C   UNL d   1      26.545 -15.714  -1.385  0.00  0.00     0.231 C 
ATOM     13  O   UNL d   1      26.208 -14.751  -0.689  0.00  0.00    -0.272 OA
ATOM     14  N   UNL d   1      25.484 -17.057  -1.841  0.00  0.00    -0.326 N 
ATOM     15  H   UNL d   1      26.411 -17.435  -2.485  0.00  0.00     0.169 HD
BRANCH  14  16
ATOM     16  C   UNL d   1      23.655 -17.818  -1.597  0.00  0.00     0.045 A 
ATOM     17  C   UNL d   1      24.315 -17.734  -0.531  0.00  0.00     0.030 A 
ATOM     18  C   UNL d   1      23.225 -18.042  -0.823  0.00  0.00     0.003 A 
ATOM     19  C   UNL d   1      22.483 -18.532   0.334  0.00  0.00     0.012 A 
ATOM     20  C   UNL d   1      21.333 -18.937   0.035  0.00  0.00    -0.024 A 
ATOM     21  C   UNL d   1      20.357 -19.531   1.254  0.00  0.00     0.012 C 
ATOM     22  C   UNL d   1      21.668 -18.645  -1.264  0.00  0.00     0.001 A 
ATOM     23  C   UNL d   1      19.189 -20.249   1.160  0.00  0.00     0.001 C 
ATOM     24  C   UNL d   1      18.804 -20.163  -0.121  0.00  0.00     0.001 C 
ATOM     25  C   UNL d   1      19.905 -19.324  -1.203  0.00  0.00     0.014 C 
ENDBRANCH  14  16
ENDBRANCH  11  12
ENDBRANCH  10  11
ENDBRANCH   5  10
BRANCH   6  26
ATOM     26  C   UNL d   1      27.603 -14.247  -4.610  0.00  0.00     0.044 C 
ATOM     27  C   UNL d   1      27.408 -13.059  -3.890  0.00  0.00     0.030 C 
ATOM     28  C   UNL d   1      26.167 -12.743  -3.312  0.00  0.00     0.002 C 
ATOM     29  C   UNL d   1      25.032 -13.416  -3.693  0.00  0.00     0.000 C 
ATOM     30  C   UNL d   1      25.158 -14.449  -4.576  0.00  0.00     0.002 C 
ATOM     31  C   UNL d   1      26.449 -15.004  -4.816  0.00  0.00     0.030 C 
ENDBRANCH   6  26
BRANCH   1  32
ATOM     32  N   UNL d   1      30.878 -13.601  -8.093  0.00  0.00    -0.318 N 
ATOM     33  C   UNL d   1      32.121 -12.972  -8.220  0.00  0.00     0.218 C 
ATOM     34  C   UNL d   1      32.465 -12.305  -9.544  0.00  0.00     0.117 C 
ATOM     35  O   UNL d   1      32.963 -12.966  -7.320  0.00  0.00    -0.274 OA
ATOM     36  H   UNL d   1      30.234 -13.696  -8.876  0.00  0.00     0.169 HD
ENDBRANCH   1  32
TORSDOF 6
ENDMDL
MODEL 4
REMARK VINA RESULT:    -9.874      4.013      6.976
REMARK INTER + INTRA:         -13.203
REMARK INTER:                 -11.664
REMARK INTRA:                  -1.539
REMARK CONF_INDEPENDENT:        1.790
REMARK UNBOUND:                -1.539
REMARK  6 active torsions:
REMARK  status: ('A' for Active; 'I' for Inactive)
REMARK       I    between atoms: C_2  and  N_4 
REMARK    1  A    between atoms: N_4  and  C_5 
REMARK    2  A    between atoms: C_9  and  S_10 
REMARK    3  A    between atoms: S_10  and  C_11 
REMARK    4  A    between atoms: C_11  and  C_12 
REMARK       I    between atoms: C_12  and  N_14 
REMARK    5  A    between atoms: N_14  and  C_15 
REMARK    6  A    between atoms: N_25  and  C_26 
ROOT
ATOM      1  C   UNL d   1      27.789 -12.410   2.710  0.00  0.00     0.173 A 
ATOM      2  C   UNL d   1      27.329 -11.412   1.923  0.00  0.00     0.280 A 
ATOM      3  O   UNL d   1      27.063 -10.230   2.260  0.00  0.00    -0.265 OA
ATOM      4  N   UNL d   1      27.147 -11.632   0.535  0.00  0.00    -0.301 N 
ATOM      5  C   UNL d   1      27.380 -12.851  -0.039  0.00  0.00     0.157 A 
ATOM      6  N   UNL d   1      27.781 -13.892   0.713  0.00  0.00    -0.256 N 
ATOM      7  C   UNL d   1      28.039 -13.736   2.114  0.00  0.00     0.286 A 
ATOM      8  O   UNL d   1      28.370 -14.710   2.778  0.00  0.00    -0.265 OA
ATOM      9  H   UNL d   1      26.825 -10.834  -0.034  0.00  0.00     0.171 HD
ENDROOT
BRANCH   5  10
ATOM     10  S   UNL d   1      27.070 -12.994  -1.821  0.00  0.00    -0.084 SA
BRANCH  10  11
ATOM     11  C   UNL d   1      26.870 -14.888  -2.380  0.00  0.00     0.185 C 
BRANCH  11  12
ATOM     12  C   UNL d   1      25.204 -15.563  -2.375  0.00  0.00     0.231 C 
ATOM     13  O   UNL d   1      24.633 -14.814  -3.173  0.00  0.00    -0.272 OA
ATOM     14  N   UNL d   1      24.443 -16.929  -1.544  0.00  0.00    -0.326 N 
ATOM     15  H   UNL d   1      25.532 -17.139  -1.111  0.00  0.00     0.169 HD
BRANCH  14  16
ATOM     16  C   UNL d   1      22.714 -17.889  -1.274  0.00  0.00     0.045 A 
ATOM     17  C   UNL d   1      23.408 -17.794  -0.231  0.00  0.00     0.030 A 
ATOM     18  C   UNL d   1      22.343 -18.198  -0.499  0.00  0.00     0.003 A 
ATOM     19  C   UNL d   1      21.707 -18.824   0.656  0.00  0.00     0.012 A 
ATOM     20  C   UNL d   1      20.593 -19.331   0.377  0.00  0.00    -0.024 A 
ATOM     21  C   UNL d   1      19.737 -20.088   1.597  0.00  0.00     0.012 C 
ATOM     22  C   UNL d   1      20.838 -18.936  -0.914  0.00  0.00     0.001 A 
ATOM     23  C   UNL d   1      18.645 -20.918   1.506  0.00  0.00     0.001 C 
ATOM     24  C   UNL d   1      18.197 -20.804   0.247  0.00  0.00     0.001 C 
ATOM     25  C   UNL d   1      19.158 -19.797  -0.825  0.00  0.00     0.014 C 
ENDBRANCH  14  16
ENDBRANCH  11  12
ENDBRANCH  10  11
ENDBRANCH   5  10
BRANCH   6  26
ATOM     26  C   UNL d   1      28.088 -15.151   0.230  0.00  0.00     0.044 C 
ATOM     27  C   UNL d   1      29.280 -15.490  -0.427  0.00  0.00     0.030 C 
ATOM     28  C   UNL d   1      29.485 -16.770  -0.968  0.00  0.00     0.002 C 
ATOM     29  C   UNL d   1      28.675 -17.816  -0.603  0.00  0.00     0.000 C 
ATOM     30  C   UNL d   1      27.622 -17.560   0.226  0.00  0.00     0.002 C 
ATOM     31  C   UNL d   1      27.201 -16.212   0.417  0.00  0.00     0.030 C 
ENDBRANCH   6  26
BRANCH   1  32
ATOM     32  N   UNL d   1      28.028 -12.266   4.096  0.00  0.00    -0.318 N 
ATOM     33  C   UNL d   1      27.444 -13.117   5.040  0.00  0.00     0.218 C 
ATOM     34  C   UNL d   1      27.808 -12.933   6.506  0.00  0.00     0.117 C 
ATOM     35  O   UNL d   1      26.675 -14.031   4.733  0.00  0.00    -0.274 OA
ATOM     36  H   UNL d   1      28.744 -11.587   4.345  0.00  0.00     0.169 HD
ENDBRANCH   1  32
TORSDOF 6
ENDMDL
MODEL 5
REMARK VINA RESULT:    -9.788      2.704      3.288
REMARK INTER + INTRA:         -12.953
REMARK INTER:                 -11.578
REMARK INTRA:                  -1.374
REMARK CONF_INDEPENDENT:        1.790
REMARK UNBOUND:                -1.374
REMARK  6 active torsions:
REMARK  status: ('A' for Active; 'I' for Inactive)
REMARK       I    between atoms: C_2  and  N_4 
REMARK    1  A    between atoms: N_4  and  C_5 
REMARK    2  A    between atoms: C_9  and  S_10 
REMARK    3  A    between atoms: S_10  and  C_11 
REMARK    4  A    between atoms: C_11  and  C_12 
REMARK       I    between atoms: C_12  and  N_14 
REMARK    5  A    between atoms: N_14  and  C_15 
REMARK    6  A    between atoms: N_25  and  C_26 
ROOT
ATOM      1  C   UNL d   1      30.916 -14.366  -7.165  0.00  0.00     0.173 A 
ATOM      2  C   UNL d   1      30.565 -15.584  -6.700  0.00  0.00     0.280 A 
ATOM      3  O   UNL d   1      31.276 -16.620  -6.646  0.00  0.00    -0.265 OA
ATOM      4  N   UNL d   1      29.275 -15.786  -6.147  0.00  0.00    -0.301 N 
ATOM      5  C   UNL d   1      28.342 -14.787  -6.109  0.00  0.00     0.157 A 
ATOM      6  N   UNL d   1      28.624 -13.573  -6.614  0.00  0.00    -0.256 N 
ATOM      7  C   UNL d   1      29.923 -13.274  -7.142  0.00  0.00     0.286 A 
ATOM      8  O   UNL d   1      30.139 -12.171  -7.626  0.00  0.00    -0.265 OA
ATOM      9  H   UNL d   1      29.059 -16.724  -5.775  0.00  0.00     0.171 HD
ENDROOT
BRANCH   5  10
ATOM     10  S   UNL d   1      26.722 -15.200  -5.404  0.00  0.00    -0.084 SA
BRANCH  10  11
ATOM     11  C   UNL d   1      26.715 -15.019  -3.428  0.00  0.00     0.185 C 
BRANCH  11  12
ATOM     12  C   UNL d   1      25.217 -15.525  -2.573  0.00  0.00     0.231 C 
ATOM     13  O   UNL d   1      24.423 -14.650  -2.930  0.00  0.00    -0.272 OA
ATOM     14  N   UNL d   1      24.818 -16.886  -1.512  0.00  0.00    -0.326 N 
ATOM     15  H   UNL d   1      25.935 -17.242  -1.721  0.00  0.00     0.169 HD
BRANCH  14  16
ATOM     16  C   UNL d   1      23.365 -17.695  -0.409  0.00  0.00     0.045 A 
ATOM     17  C   UNL d   1      23.285 -17.969  -1.633  0.00  0.00     0.030 A 
ATOM     18  C   UNL d   1      22.709 -18.279  -0.662  0.00  0.00     0.003 A 
ATOM     19  C   UNL d   1      21.560 -19.123  -0.971  0.00  0.00     0.012 A 
ATOM     20  C   UNL d   1      20.882 -19.408   0.046  0.00  0.00    -0.024 A 
ATOM     21  C   UNL d   1      19.530 -20.371  -0.144  0.00  0.00     0.012 C 
ATOM     22  C   UNL d   1      21.761 -18.615   0.742  0.00  0.00     0.001 A 
ATOM     23  C   UNL d   1      18.505 -20.614   0.739  0.00  0.00     0.001 C 
ATOM     24  C   UNL d   1      18.919 -20.145   1.925  0.00  0.00     0.001 C 
ATOM     25  C   UNL d   1      20.473 -19.324   1.930  0.00  0.00     0.014 C 
ENDBRANCH  14  16
ENDBRANCH  11  12
ENDBRANCH  10  11
ENDBRANCH   5  10
BRANCH   6  26
ATOM     26  C   UNL d   1      27.774 -12.482  -6.586  0.00  0.00     0.044 C 
ATOM     27  C   UNL d   1      27.379 -11.744  -7.712  0.00  0.00     0.030 C 
ATOM     28  C   UNL d   1      26.582 -10.593  -7.596  0.00  0.00     0.002 C 
ATOM     29  C   UNL d   1      25.905 -10.331  -6.430  0.00  0.00     0.000 C 
ATOM     30  C   UNL d   1      26.097 -11.168  -5.370  0.00  0.00     0.002 C 
ATOM     31  C   UNL d   1      27.206 -12.063  -5.383  0.00  0.00     0.030 C 
ENDBRANCH   6  26
BRANCH   1  32
ATOM     32  N   UNL d   1      32.190 -14.071  -7.703  0.00  0.00    -0.318 N 
ATOM     33  C   UNL d   1      32.858 -14.959  -8.553  0.00  0.00     0.218 C 
ATOM     34  C   UNL d   1      34.196 -14.533  -9.139  0.00  0.00     0.117 C 
ATOM     35  O   UNL d   1      32.394 -16.055  -8.876  0.00  0.00    -0.274 OA
ATOM     36  H   UNL d   1      32.527 -13.127  -7.529  0.00  0.00     0.169 HD
ENDBRANCH   1  32
TORSDOF 6
ENDMDL
MODEL 6
REMARK VINA RESULT:    -9.604      5.866      8.961
REMARK INTER + INTRA:         -13.517
REMARK INTER:                 -11.394
REMARK INTRA:                  -2.123
REMARK CONF_INDEPENDENT:        1.790
REMARK UNBOUND:                -2.123
REMARK  6 active torsions:
REMARK  status: ('A' for Active; 'I' for Inactive)
REMARK       I    between atoms: C_2  and  N_4 
REMARK    1  A    between atoms: N_4  and  C_5 
REMARK    2  A    between atoms: C_9  and  S_10 
REMARK    3  A    between atoms: S_10  and  C_11 
REMARK    4  A    between atoms: C_11  and  C_12 
REMARK       I    between atoms: C_12  and  N_14 
REMARK    5  A    between atoms: N_14  and  C_15 
REMARK    6  A    between atoms: N_25  and  C_26 
ROOT
ATOM      1  C   UNL d   1      25.216 -17.892  -0.334  0.00  0.00     0.173 A 
ATOM      2  C   UNL d   1      26.187 -17.860   0.605  0.00  0.00     0.280 A 
ATOM      3  O   UNL d   1      26.283 -18.575   1.635  0.00  0.00    -0.265 OA
ATOM      4  N   UNL d   1      27.285 -16.977   0.458  0.00  0.00    -0.301 N 
ATOM      5  C   UNL d   1      27.376 -16.108  -0.596  0.00  0.00     0.157 A 
ATOM      6  N   UNL d   1      26.405 -16.061  -1.524  0.00  0.00    -0.256 N 
ATOM      7  C   UNL d   1      25.289 -16.959  -1.474  0.00  0.00     0.286 A 
ATOM      8  O   UNL d   1      24.404 -16.868  -2.315  0.00  0.00    -0.265 OA
ATOM      9  H   UNL d   1      28.020 -17.007   1.181  0.00  0.00     0.171 HD
ENDROOT
BRANCH   5  10
ATOM     10  S   UNL d   1      28.821 -15.012  -0.636  0.00  0.00    -0.084 SA
BRANCH  10  11
ATOM     11  C   UNL d   1      28.725 -13.620   0.776  0.00  0.00     0.185 C 
BRANCH  11  12
ATOM     12  C   UNL d   1      28.534 -14.194   2.468  0.00  0.00     0.231 C 
ATOM     13  O   UNL d   1      27.780 -15.161   2.316  0.00  0.00    -0.272 OA
ATOM     14  N   UNL d   1      29.195 -13.658   4.021  0.00  0.00    -0.326 N 
ATOM     15  H   UNL d   1      29.796 -12.861   3.371  0.00  0.00     0.169 HD
BRANCH  14  16
ATOM     16  C   UNL d   1      29.170 -14.001   5.987  0.00  0.00     0.045 A 
ATOM     17  C   UNL d   1      28.694 -12.884   5.661  0.00  0.00     0.030 A 
ATOM     18  C   UNL d   1      28.804 -13.495   6.653  0.00  0.00     0.003 A 
ATOM     19  C   UNL d   1      28.353 -12.721   7.806  0.00  0.00     0.012 A 
ATOM     20  C   UNL d   1      28.529 -13.325   8.892  0.00  0.00    -0.024 A 
ATOM     21  C   UNL d   1      28.063 -12.569  10.307  0.00  0.00     0.012 C 
ATOM     22  C   UNL d   1      29.103 -14.320   8.140  0.00  0.00     0.001 A 
ATOM     23  C   UNL d   1      28.367 -12.894  11.607  0.00  0.00     0.001 C 
ATOM     24  C   UNL d   1      28.901 -14.123  11.566  0.00  0.00     0.001 C 
ATOM     25  C   UNL d   1      29.131 -14.811   9.965  0.00  0.00     0.014 C 
ENDBRANCH  14  16
ENDBRANCH  11  12
ENDBRANCH  10  11
ENDBRANCH   5  10
BRANCH   6  26
ATOM     26  C   UNL d   1      26.418 -15.257  -2.650  0.00  0.00     0.044 C 
ATOM     27  C   UNL d   1      27.278 -15.424  -3.746  0.00  0.00     0.030 C 
ATOM     28  C   UNL d   1      27.294 -14.515  -4.816  0.00  0.00     0.002 C 
ATOM     29  C   UNL d   1      26.265 -13.620  -4.982  0.00  0.00     0.000 C 
ATOM     30  C   UNL d   1      25.280 -13.584  -4.038  0.00  0.00     0.002 C 
ATOM     31  C   UNL d   1      25.504 -14.210  -2.777  0.00  0.00     0.030 C 
ENDBRANCH   6  26
BRANCH   1  32
ATOM     32  N   UNL d   1      24.104 -18.763  -0.279  0.00  0.00    -0.318 N 
ATOM     33  C   UNL d   1      22.791 -18.284  -0.208  0.00  0.00     0.218 C 
ATOM     34  C   UNL d   1      21.650 -19.292  -0.220  0.00  0.00     0.117 C 
ATOM     35  O   UNL d   1      22.517 -17.083  -0.173  0.00  0.00    -0.274 OA
ATOM     36  H   UNL d   1      24.317 -19.748  -0.418  0.00  0.00     0.169 HD
ENDBRANCH   1  32
TORSDOF 6
ENDMDL
MODEL 7
REMARK VINA RESULT:    -9.466      3.765      6.258
REMARK INTER + INTRA:         -13.004
REMARK INTER:                 -11.256
REMARK INTRA:                  -1.748
REMARK CONF_INDEPENDENT:        1.790
REMARK UNBOUND:                -1.748
REMARK  6 active torsions:
REMARK  status: ('A' for Active; 'I' for Inactive)
REMARK       I    between atoms: C_2  and  N_4 
REMARK    1  A    between atoms: N_4  and  C_5 
REMARK    2  A    between atoms: C_9  and  S_10 
REMARK    3  A    between atoms: S_10  and  C_11 
REMARK    4  A    between atoms: C_11  and  C_12 
REMARK       I    between atoms: C_12  and  N_14 
REMARK    5  A    between atoms: N_14  and  C_15 
REMARK    6  A    between atoms: N_25  and  C_26 
ROOT
ATOM      1  C   UNL d   1      25.651  -9.923  -4.253  0.00  0.00     0.173 A 
ATOM      2  C   UNL d   1      25.665 -10.610  -5.416  0.00  0.00     0.280 A 
ATOM      3  O   UNL d   1      25.148 -10.275  -6.512  0.00  0.00    -0.265 OA
ATOM      4  N   UNL d   1      26.367 -11.838  -5.504  0.00  0.00    -0.301 N 
ATOM      5  C   UNL d   1      27.003 -12.385  -4.423  0.00  0.00     0.157 A 
ATOM      6  N   UNL d   1      26.967 -11.768  -3.229  0.00  0.00    -0.256 N 
ATOM      7  C   UNL d   1      26.323 -10.497  -3.071  0.00  0.00     0.286 A 
ATOM      8  O   UNL d   1      26.278  -9.977  -1.964  0.00  0.00    -0.265 OA
ATOM      9  H   UNL d   1      26.379 -12.315  -6.419  0.00  0.00     0.171 HD
ENDROOT
BRANCH   5  10
ATOM     10  S   UNL d   1      27.831 -13.979  -4.675  0.00  0.00    -0.084 SA
BRANCH  10  11
ATOM     11  C   UNL d   1      27.459 -15.241  -3.188  0.00  0.00     0.185 C 
BRANCH  11  12
ATOM     12  C   UNL d   1      25.768 -15.828  -3.027  0.00  0.00     0.231 C 
ATOM     13  O   UNL d   1      25.173 -15.080  -3.808  0.00  0.00    -0.272 OA
ATOM     14  N   UNL d   1      25.010 -17.123  -2.085  0.00  0.00    -0.326 N 
ATOM     15  H   UNL d   1      26.119 -17.372  -1.731  0.00  0.00     0.169 HD
BRANCH  14  16
ATOM     16  C   UNL d   1      23.264 -17.983  -1.645  0.00  0.00     0.045 A 
ATOM     17  C   UNL d   1      23.976 -17.737  -0.639  0.00  0.00     0.030 A 
ATOM     18  C   UNL d   1      22.898 -18.152  -0.825  0.00  0.00     0.003 A 
ATOM     19  C   UNL d   1      22.264 -18.566   0.422  0.00  0.00     0.012 A 
ATOM     20  C   UNL d   1      21.135 -19.083   0.242  0.00  0.00    -0.024 A 
ATOM     21  C   UNL d   1      20.280 -19.610   1.578  0.00  0.00     0.012 C 
ATOM     22  C   UNL d   1      21.370 -18.909  -1.099  0.00  0.00     0.001 A 
ATOM     23  C   UNL d   1      19.168 -20.417   1.635  0.00  0.00     0.001 C 
ATOM     24  C   UNL d   1      18.704 -20.497   0.380  0.00  0.00     0.001 C 
ATOM     25  C   UNL d   1      19.672 -19.702  -0.853  0.00  0.00     0.014 C 
ENDBRANCH  14  16
ENDBRANCH  11  12
ENDBRANCH  10  11
ENDBRANCH   5  10
BRANCH   6  26
ATOM     26  C   UNL d   1      27.611 -12.207  -2.086  0.00  0.00     0.044 C 
ATOM     27  C   UNL d   1      28.980 -12.051  -1.826  0.00  0.00     0.030 C 
ATOM     28  C   UNL d   1      29.581 -12.601  -0.682  0.00  0.00     0.002 C 
ATOM     29  C   UNL d   1      28.809 -13.031   0.370  0.00  0.00     0.000 C 
ATOM     30  C   UNL d   1      27.452 -12.987   0.235  0.00  0.00     0.002 C 
ATOM     31  C   UNL d   1      26.887 -12.823  -1.063  0.00  0.00     0.030 C 
ENDBRANCH   6  26
BRANCH   1  32
ATOM     32  N   UNL d   1      25.003  -8.678  -4.089  0.00  0.00    -0.318 N 
ATOM     33  C   UNL d   1      25.530  -7.493  -4.614  0.00  0.00     0.218 C 
ATOM     34  C   UNL d   1      24.733  -6.207  -4.447  0.00  0.00     0.117 C 
ATOM     35  O   UNL d   1      26.594  -7.451  -5.236  0.00  0.00    -0.274 OA
ATOM     36  H   UNL d   1      24.075  -8.723  -3.674  0.00  0.00     0.169 HD
ENDBRANCH   1  32
TORSDOF 6
ENDMDL
MODEL 8
REMARK VINA RESULT:    -9.147      1.408      2.013
REMARK INTER + INTRA:         -13.076
REMARK INTER:                 -10.937
REMARK INTRA:                  -2.139
REMARK CONF_INDEPENDENT:        1.790
REMARK UNBOUND:                -2.139
REMARK  6 active torsions:
REMARK  status: ('A' for Active; 'I' for Inactive)
REMARK       I    between atoms: C_2  and  N_4 
REMARK    1  A    between atoms: N_4  and  C_5 
REMARK    2  A    between atoms: C_9  and  S_10 
REMARK    3  A    between atoms: S_10  and  C_11 
REMARK    4  A    between atoms: C_11  and  C_12 
REMARK       I    between atoms: C_12  and  N_14 
REMARK    5  A    between atoms: N_14  and  C_15 
REMARK    6  A    between atoms: N_25  and  C_26 
ROOT
ATOM      1  C   UNL d   1      30.282 -15.822  -5.712  0.00  0.00     0.173 A 
ATOM      2  C   UNL d   1      31.231 -15.649  -4.766  0.00  0.00     0.280 A 
ATOM      3  O   UNL d   1      32.446 -15.970  -4.830  0.00  0.00    -0.265 OA
ATOM      4  N   UNL d   1      30.910 -14.993  -3.552  0.00  0.00    -0.301 N 
ATOM      5  C   UNL d   1      29.640 -14.561  -3.280  0.00  0.00     0.157 A 
ATOM      6  N   UNL d   1      28.648 -14.764  -4.165  0.00  0.00    -0.256 N 
ATOM      7  C   UNL d   1      28.904 -15.373  -5.437  0.00  0.00     0.286 A 
ATOM      8  O   UNL d   1      27.974 -15.575  -6.206  0.00  0.00    -0.265 OA
ATOM      9  H   UNL d   1      31.672 -14.853  -2.871  0.00  0.00     0.171 HD
ENDROOT
BRANCH   5  10
ATOM     10  S   UNL d   1      29.368 -13.768  -1.671  0.00  0.00    -0.084 SA
BRANCH  10  11
ATOM     11  C   UNL d   1      29.454 -15.080  -0.184  0.00  0.00     0.185 C 
BRANCH  11  12
ATOM     12  C   UNL d   1      27.886 -15.704   0.437  0.00  0.00     0.231 C 
ATOM     13  O   UNL d   1      27.980 -15.449   1.641  0.00  0.00    -0.272 OA
ATOM     14  N   UNL d   1      26.485 -16.465  -0.333  0.00  0.00    -0.326 N 
ATOM     15  H   UNL d   1      27.077 -16.287  -1.351  0.00  0.00     0.169 HD
BRANCH  14  16
ATOM     16  C   UNL d   1      24.699 -17.282   0.022  0.00  0.00     0.045 A 
ATOM     17  C   UNL d   1      25.004 -17.241  -1.197  0.00  0.00     0.030 A 
ATOM     18  C   UNL d   1      24.122 -17.681  -0.564  0.00  0.00     0.003 A 
ATOM     19  C   UNL d   1      23.082 -18.241  -1.420  0.00  0.00     0.012 A 
ATOM     20  C   UNL d   1      22.091 -18.653  -0.770  0.00  0.00    -0.024 A 
ATOM     21  C   UNL d   1      20.812 -19.324  -1.610  0.00  0.00     0.012 C 
ATOM     22  C   UNL d   1      22.746 -18.192   0.345  0.00  0.00     0.001 A 
ATOM     23  C   UNL d   1      19.540 -19.610  -1.173  0.00  0.00     0.001 C 
ATOM     24  C   UNL d   1      19.575 -19.506   0.163  0.00  0.00     0.001 C 
ATOM     25  C   UNL d   1      21.095 -18.958   0.855  0.00  0.00     0.014 C 
ENDBRANCH  14  16
ENDBRANCH  11  12
ENDBRANCH  10  11
ENDBRANCH   5  10
BRANCH   6  26
ATOM     26  C   UNL d   1      27.344 -14.330  -4.011  0.00  0.00     0.044 C 
ATOM     27  C   UNL d   1      26.312 -15.081  -3.428  0.00  0.00     0.030 C 
ATOM     28  C   UNL d   1      24.990 -14.609  -3.386  0.00  0.00     0.002 C 
ATOM     29  C   UNL d   1      24.718 -13.283  -3.620  0.00  0.00     0.000 C 
ATOM     30  C   UNL d   1      25.750 -12.465  -3.977  0.00  0.00     0.002 C 
ATOM     31  C   UNL d   1      26.978 -13.045  -4.411  0.00  0.00     0.030 C 
ENDBRANCH   6  26
BRANCH   1  32
ATOM     32  N   UNL d   1      30.526 -16.438  -6.961  0.00  0.00    -0.318 N 
ATOM     33  C   UNL d   1      31.106 -17.707  -7.060  0.00  0.00     0.218 C 
ATOM     34  C   UNL d   1      31.271 -18.323  -8.442  0.00  0.00     0.117 C 
ATOM     35  O   UNL d   1      31.456 -18.363  -6.076  0.00  0.00    -0.274 OA
ATOM     36  H   UNL d   1      30.140 -15.951  -7.767  0.00  0.00     0.169 HD
ENDBRANCH   1  32
TORSDOF 6
ENDMDL
MODEL 9
REMARK VINA RESULT:    -8.715      4.163      7.603
REMARK INTER + INTRA:         -13.071
REMARK INTER:                 -10.505
REMARK INTRA:                  -2.566
REMARK CONF_INDEPENDENT:        1.790
REMARK UNBOUND:                -2.566
REMARK  6 active torsions:
REMARK  status: ('A' for Active; 'I' for Inactive)
REMARK       I    between atoms: C_2  and  N_4 
REMARK    1  A    between atoms: N_4  and  C_5 
REMARK    2  A    between atoms: C_9  and  S_10 
REMARK    3  A    between atoms: S_10  and  C_11 
REMARK    4  A    between atoms: C_11  and  C_12 
REMARK       I    between atoms: C_12  and  N_14 
REMARK    5  A    between atoms: N_14  and  C_15 
REMARK    6  A    between atoms: N_25  and  C_26 
ROOT
ATOM      1  C   UNL d   1      29.172 -16.661  -0.874  0.00  0.00     0.173 A 
ATOM      2  C   UNL d   1      29.477 -16.099  -2.065  0.00  0.00     0.280 A 
ATOM      3  O   UNL d   1      30.618 -15.821  -2.512  0.00  0.00    -0.265 OA
ATOM      4  N   UNL d   1      28.447 -15.805  -2.993  0.00  0.00    -0.301 N 
ATOM      5  C   UNL d   1      27.129 -16.031  -2.704  0.00  0.00     0.157 A 
ATOM      6  N   UNL d   1      26.771 -16.533  -1.509  0.00  0.00    -0.256 N 
ATOM      7  C   UNL d   1      27.757 -16.906  -0.537  0.00  0.00     0.286 A 
ATOM      8  O   UNL d   1      27.398 -17.327   0.554  0.00  0.00    -0.265 OA
ATOM      9  H   UNL d   1      28.726 -15.407  -3.903  0.00  0.00     0.171 HD
ENDROOT
BRANCH   5  10
ATOM     10  S   UNL d   1      25.918 -15.574  -3.975  0.00  0.00    -0.084 SA
BRANCH  10  11
ATOM     11  C   UNL d   1      25.501 -13.634  -3.925  0.00  0.00     0.185 C 
BRANCH  11  12
ATOM     12  C   UNL d   1      25.905 -12.757  -2.409  0.00  0.00     0.231 C 
ATOM     13  O   UNL d   1      25.821 -11.581  -2.775  0.00  0.00    -0.272 OA
ATOM     14  N   UNL d   1      26.302 -13.282  -0.764  0.00  0.00    -0.326 N 
ATOM     15  H   UNL d   1      26.109 -14.381  -1.180  0.00  0.00     0.169 HD
BRANCH  14  16
ATOM     16  C   UNL d   1      26.823 -12.635   1.050  0.00  0.00     0.045 A 
ATOM     17  C   UNL d   1      26.807 -13.887   0.944  0.00  0.00     0.030 A 
ATOM     18  C   UNL d   1      27.109 -13.116   1.772  0.00  0.00     0.003 A 
ATOM     19  C   UNL d   1      27.474 -13.787   3.015  0.00  0.00     0.012 A 
ATOM     20  C   UNL d   1      27.732 -12.981   3.942  0.00  0.00    -0.024 A 
ATOM     21  C   UNL d   1      28.166 -13.596   5.433  0.00  0.00     0.012 C 
ATOM     22  C   UNL d   1      27.408 -11.991   3.047  0.00  0.00     0.001 A 
ATOM     23  C   UNL d   1      28.250 -12.956   6.646  0.00  0.00     0.001 C 
ATOM     24  C   UNL d   1      28.181 -11.644   6.379  0.00  0.00     0.001 C 
ATOM     25  C   UNL d   1      27.904 -11.214   4.697  0.00  0.00     0.014 C 
ENDBRANCH  14  16
ENDBRANCH  11  12
ENDBRANCH  10  11
ENDBRANCH   5  10
BRANCH   6  26
ATOM     26  C   UNL d   1      25.476 -16.842  -1.130  0.00  0.00     0.044 C 
ATOM     27  C   UNL d   1      24.379 -15.975  -1.243  0.00  0.00     0.030 C 
ATOM     28  C   UNL d   1      23.109 -16.327  -0.756  0.00  0.00     0.002 C 
ATOM     29  C   UNL d   1      22.822 -17.633  -0.446  0.00  0.00     0.000 C 
ATOM     30  C   UNL d   1      23.823 -18.556  -0.541  0.00  0.00     0.002 C 
ATOM     31  C   UNL d   1      25.173 -18.109  -0.630  0.00  0.00     0.030 C 
ENDBRANCH   6  26
BRANCH   1  32
ATOM     32  N   UNL d   1      30.139 -17.013   0.094  0.00  0.00    -0.318 N 
ATOM     33  C   UNL d   1      31.097 -16.102   0.550  0.00  0.00     0.218 C 
ATOM     34  C   UNL d   1      32.059 -16.545   1.643  0.00  0.00     0.117 C 
ATOM     35  O   UNL d   1      31.174 -14.944   0.131  0.00  0.00    -0.274 OA
ATOM     36  H   UNL d   1      30.012 -17.928   0.522  0.00  0.00     0.169 HD
ENDBRANCH   1  32
TORSDOF 6
ENDMDL
