MODEL 1
REMARK VINA RESULT:   -31.709      0.000      0.000
REMARK INTER + INTRA:         -36.327
REMARK INTER:                 -34.394
REMARK INTRA:                  -1.932
REMARK CONF_INDEPENDENT:        2.685
REMARK UNBOUND:                -1.932
REMARK  9 active torsions:
REMARK  status: ('A' for Active; 'I' for Inactive)
REMARK    1  A    between atoms: C_2  and  C_3 
REMARK    2  A    between atoms: C_7  and  C_6 
REMARK    3  A    between atoms: C_10  and  S_11 
REMARK    4  A    between atoms: S_11  and  C_12 
REMARK    5  A    between atoms: C_12  and  C_13 
REMARK       I    between atoms: C_13  and  N_15 
REMARK    6  A    between atoms: N_15  and  CA_16 
REMARK    7  A    between atoms: CA_16  and  CB_17 
REMARK    8  A    between atoms: CA_16  and  C_27 
REMARK    9  A    between atoms: CB_17  and  CG_18 
ROOT
ATOM      1  C   UNK d   0      24.931 -15.118  -2.322  0.00  0.00     0.228 C 
ATOM      2  O   UNK d   0      23.773 -14.783  -2.478  0.00  0.00    -0.273 OA
ATOM      3  N   TRP d   1      25.232 -16.203  -1.529  0.00  0.00    -0.346 N 
ATOM      4  H   TRP d   1      26.140 -16.209  -1.037  0.00  0.00     0.163 HD
ENDROOT
BRANCH   1   5
ATOM      5  C   UNK d   0      26.119 -14.372  -3.038  0.00  0.00     0.185 C 
BRANCH   5   6
ATOM      6  S   UNK d   0      27.558 -15.529  -2.979  0.00  0.00    -0.082 SA
BRANCH   6   7
ATOM      7  C   UNK d   0      28.221 -15.596  -4.542  0.00  0.00     0.177 C 
ATOM      8  N   UNK d   0      27.905 -15.019  -5.655  0.00  0.00    -0.174 NA
ATOM      9  N   UNK d   0      28.784 -15.575  -6.579  0.00  0.00    -0.187 NA
ATOM     10  C   UNK d   0      29.983 -16.077  -5.923  0.00  0.00     0.211 C 
ATOM     11  H   UNK d   0      28.937 -15.031  -7.424  0.00  0.00     0.151 HD
ATOM     12  N   UNK d   0      29.369 -16.433  -4.656  0.00  0.00    -0.346 N 
ATOM     13  H   UNK d   0      29.642 -17.061  -3.925  0.00  0.00     0.163 HD
BRANCH  10  14
ATOM     14  C   UNK d   0      30.777 -17.164  -6.610  0.00  0.00    -0.020 A 
ATOM     15  C   UNK d   0      30.463 -18.519  -6.381  0.00  0.00     0.011 A 
ATOM     16  C   UNK d   0      30.884 -19.521  -7.265  0.00  0.00     0.007 A 
ATOM     17  C   UNK d   0      31.626 -19.197  -8.405  0.00  0.00    -0.059 A 
ATOM     18  C   UNK d   0      32.024 -17.870  -8.590  0.00  0.00     0.007 A 
ATOM     19  C   UNK d   0      31.621 -16.870  -7.697  0.00  0.00     0.011 A 
BRANCH  17  20
ATOM     20  C   UNK d   0      31.954 -20.243  -9.442  0.00  0.00     0.034 C 
ATOM     21  C   UNK d   0      32.631 -21.455  -8.826  0.00  0.00     0.010 C 
ENDBRANCH  17  20
ENDBRANCH  10  14
ENDBRANCH   6   7
ENDBRANCH   5   6
ENDBRANCH   1   5
BRANCH   3  22
ATOM     22  CA  TRP d   1      24.193 -16.917  -0.647  0.00  0.00     0.189 C 
BRANCH  22  23
ATOM     23  CB  TRP d   1      22.612 -17.282  -1.256  0.00  0.00     0.073 C 
BRANCH  23  24
ATOM     24  CG  TRP d   1      21.425 -18.220  -0.511  0.00  0.00    -0.046 C 
ATOM     25  CD1 TRP d   1      21.170 -19.325  -1.348  0.00  0.00     0.112 C 
ATOM     26  NE1 TRP d   1      19.794 -19.162  -1.269  0.00  0.00    -0.282 NA
ATOM     27  CE2 TRP d   1      19.553 -19.551   0.027  0.00  0.00     0.019 A 
ATOM     28  HE1 TRP d   1      19.337 -18.319  -1.590  0.00  0.00     0.128 HD
ATOM     29  CZ2 TRP d   1      18.565 -20.450   0.418  0.00  0.00     0.024 A 
ATOM     30  CD2 TRP d   1      20.604 -18.951   0.755  0.00  0.00    -0.011 A 
ATOM     31  CH2 TRP d   1      18.482 -20.963   1.682  0.00  0.00     0.002 A 
ATOM     32  CZ3 TRP d   1      19.411 -20.450   2.573  0.00  0.00     0.001 A 
ATOM     33  CE3 TRP d   1      20.442 -19.412   2.171  0.00  0.00     0.013 A 
ENDBRANCH  23  24
ENDBRANCH  22  23
BRANCH  22  34
ATOM     34  C   TRP d   1      24.983 -18.247  -0.101  0.00  0.00     0.197 C 
ATOM     35  O   TRP d   1      26.179 -18.003   0.285  0.00  0.00    -0.646 OA
ATOM     36  OXT TRP d   1      24.330 -19.322  -0.051  0.00  0.00    -0.646 OA
ENDBRANCH  22  34
ENDBRANCH   3  22
TORSDOF 9
ENDMDL
MODEL 2
REMARK VINA RESULT:   -31.364      5.345      8.495
REMARK INTER + INTRA:         -35.977
REMARK INTER:                 -34.048
REMARK INTRA:                  -1.929
REMARK CONF_INDEPENDENT:        2.685
REMARK UNBOUND:                -1.929
REMARK  9 active torsions:
REMARK  status: ('A' for Active; 'I' for Inactive)
REMARK    1  A    between atoms: C_2  and  C_3 
REMARK    2  A    between atoms: C_7  and  C_6 
REMARK    3  A    between atoms: C_10  and  S_11 
REMARK    4  A    between atoms: S_11  and  C_12 
REMARK    5  A    between atoms: C_12  and  C_13 
REMARK       I    between atoms: C_13  and  N_15 
REMARK    6  A    between atoms: N_15  and  CA_16 
REMARK    7  A    between atoms: CA_16  and  CB_17 
REMARK    8  A    between atoms: CA_16  and  C_27 
REMARK    9  A    between atoms: CB_17  and  CG_18 
ROOT
ATOM      1  C   UNK d   0      26.062 -17.896   0.239  0.00  0.00     0.228 C 
ATOM      2  O   UNK d   0      25.501 -18.599   1.057  0.00  0.00    -0.273 OA
ATOM      3  N   TRP d   1      25.322 -17.178  -0.673  0.00  0.00    -0.346 N 
ATOM      4  H   TRP d   1      25.745 -16.979  -1.594  0.00  0.00     0.163 HD
ENDROOT
BRANCH   1   5
ATOM      5  C   UNK d   0      27.629 -17.739   0.209  0.00  0.00     0.185 C 
BRANCH   5   6
ATOM      6  S   UNK d   0      27.966 -16.150  -0.670  0.00  0.00    -0.082 SA
BRANCH   6   7
ATOM      7  C   UNK d   0      27.614 -14.886   0.411  0.00  0.00     0.177 C 
ATOM      8  N   UNK d   0      26.950 -13.785   0.285  0.00  0.00    -0.174 NA
ATOM      9  N   UNK d   0      27.121 -13.152   1.512  0.00  0.00    -0.187 NA
ATOM     10  C   UNK d   0      27.429 -14.116   2.559  0.00  0.00     0.211 C 
ATOM     11  H   UNK d   0      26.423 -12.451   1.748  0.00  0.00     0.151 HD
ATOM     12  N   UNK d   0      28.125 -15.080   1.727  0.00  0.00    -0.346 N 
ATOM     13  H   UNK d   0      28.785 -15.805   1.938  0.00  0.00     0.163 HD
BRANCH  10  14
ATOM     14  C   UNK d   0      28.167 -13.634   3.786  0.00  0.00    -0.020 A 
ATOM     15  C   UNK d   0      27.744 -12.463   4.448  0.00  0.00     0.011 A 
ATOM     16  C   UNK d   0      28.124 -12.199   5.770  0.00  0.00     0.007 A 
ATOM     17  C   UNK d   0      28.932 -13.101   6.470  0.00  0.00    -0.059 A 
ATOM     18  C   UNK d   0      29.434 -14.215   5.792  0.00  0.00     0.007 A 
ATOM     19  C   UNK d   0      29.072 -14.470   4.465  0.00  0.00     0.011 A 
BRANCH  17  20
ATOM     20  C   UNK d   0      29.223 -12.907   7.938  0.00  0.00     0.034 C 
ATOM     21  C   UNK d   0      29.455 -14.230   8.647  0.00  0.00     0.010 C 
ENDBRANCH  17  20
ENDBRANCH  10  14
ENDBRANCH   6   7
ENDBRANCH   5   6
ENDBRANCH   1   5
BRANCH   3  22
ATOM     22  CA  TRP d   1      23.806 -17.361  -0.860  0.00  0.00     0.189 C 
BRANCH  22  23
ATOM     23  CB  TRP d   1      22.800 -17.851   0.464  0.00  0.00     0.073 C 
BRANCH  23  24
ATOM     24  CG  TRP d   1      21.365 -18.733   0.382  0.00  0.00    -0.046 C 
ATOM     25  CD1 TRP d   1      21.226 -19.194  -0.943  0.00  0.00     0.112 C 
ATOM     26  NE1 TRP d   1      19.905 -18.781  -1.028  0.00  0.00    -0.282 NA
ATOM     27  CE2 TRP d   1      19.288 -19.687  -0.198  0.00  0.00     0.019 A 
ATOM     28  HE1 TRP d   1      19.641 -17.809  -0.925  0.00  0.00     0.128 HD
ATOM     29  CZ2 TRP d   1      18.142 -20.409  -0.520  0.00  0.00     0.024 A 
ATOM     30  CD2 TRP d   1      20.164 -19.780   0.904  0.00  0.00    -0.011 A 
ATOM     31  CH2 TRP d   1      17.672 -21.441   0.243  0.00  0.00     0.002 A 
ATOM     32  CZ3 TRP d   1      18.380 -21.658   1.414  0.00  0.00     0.001 A 
ATOM     33  CE3 TRP d   1      19.585 -20.824   1.808  0.00  0.00     0.013 A 
ENDBRANCH  23  24
ENDBRANCH  22  23
BRANCH  22  34
ATOM     34  C   TRP d   1      23.316 -15.950  -1.538  0.00  0.00     0.197 C 
ATOM     35  O   TRP d   1      24.181 -15.443  -2.335  0.00  0.00    -0.646 OA
ATOM     36  OXT TRP d   1      22.149 -15.559  -1.272  0.00  0.00    -0.646 OA
ENDBRANCH  22  34
ENDBRANCH   3  22
TORSDOF 9
ENDMDL
MODEL 3
REMARK VINA RESULT:   -31.328      5.657      8.995
REMARK INTER + INTRA:         -35.884
REMARK INTER:                 -34.013
REMARK INTRA:                  -1.871
REMARK CONF_INDEPENDENT:        2.685
REMARK UNBOUND:                -1.871
REMARK  9 active torsions:
REMARK  status: ('A' for Active; 'I' for Inactive)
REMARK    1  A    between atoms: C_2  and  C_3 
REMARK    2  A    between atoms: C_7  and  C_6 
REMARK    3  A    between atoms: C_10  and  S_11 
REMARK    4  A    between atoms: S_11  and  C_12 
REMARK    5  A    between atoms: C_12  and  C_13 
REMARK       I    between atoms: C_13  and  N_15 
REMARK    6  A    between atoms: N_15  and  CA_16 
REMARK    7  A    between atoms: CA_16  and  CB_17 
REMARK    8  A    between atoms: CA_16  and  C_27 
REMARK    9  A    between atoms: CB_17  and  CG_18 
ROOT
ATOM      1  C   UNK d   0      26.583 -17.744   0.478  0.00  0.00     0.228 C 
ATOM      2  O   UNK d   0      26.665 -18.910   0.813  0.00  0.00    -0.273 OA
ATOM      3  N   TRP d   1      25.377 -17.236   0.048  0.00  0.00    -0.346 N 
ATOM      4  H   TRP d   1      25.392 -16.461  -0.635  0.00  0.00     0.163 HD
ENDROOT
BRANCH   1   5
ATOM      5  C   UNK d   0      27.812 -16.764   0.561  0.00  0.00     0.185 C 
BRANCH   5   6
ATOM      6  S   UNK d   0      27.227 -15.150  -0.122  0.00  0.00    -0.082 SA
BRANCH   6   7
ATOM      7  C   UNK d   0      27.121 -14.057   1.174  0.00  0.00     0.177 C 
ATOM      8  N   UNK d   0      26.601 -12.879   1.289  0.00  0.00    -0.174 NA
ATOM      9  N   UNK d   0      26.940 -12.489   2.580  0.00  0.00    -0.187 NA
ATOM     10  C   UNK d   0      27.192 -13.648   3.426  0.00  0.00     0.211 C 
ATOM     11  H   UNK d   0      26.359 -11.762   2.988  0.00  0.00     0.151 HD
ATOM     12  N   UNK d   0      27.694 -14.531   2.390  0.00  0.00    -0.346 N 
ATOM     13  H   UNK d   0      28.266 -15.354   2.420  0.00  0.00     0.163 HD
BRANCH  10  14
ATOM     14  C   UNK d   0      28.072 -13.472   4.641  0.00  0.00    -0.020 A 
ATOM     15  C   UNK d   0      28.193 -12.205   5.247  0.00  0.00     0.011 A 
ATOM     16  C   UNK d   0      28.657 -12.070   6.562  0.00  0.00     0.007 A 
ATOM     17  C   UNK d   0      29.008 -13.198   7.311  0.00  0.00    -0.059 A 
ATOM     18  C   UNK d   0      28.984 -14.449   6.688  0.00  0.00     0.007 A 
ATOM     19  C   UNK d   0      28.539 -14.583   5.367  0.00  0.00     0.011 A 
BRANCH  17  20
ATOM     20  C   UNK d   0      29.363 -13.082   8.773  0.00  0.00     0.034 C 
ATOM     21  C   UNK d   0      28.345 -13.780   9.657  0.00  0.00     0.010 C 
ENDBRANCH  17  20
ENDBRANCH  10  14
ENDBRANCH   6   7
ENDBRANCH   5   6
ENDBRANCH   1   5
BRANCH   3  22
ATOM     22  CA  TRP d   1      24.145 -18.113  -0.234  0.00  0.00     0.189 C 
BRANCH  22  23
ATOM     23  CB  TRP d   1      22.638 -17.810   0.565  0.00  0.00     0.073 C 
BRANCH  23  24
ATOM     24  CG  TRP d   1      21.227 -18.728   0.460  0.00  0.00    -0.046 C 
ATOM     25  CD1 TRP d   1      21.217 -19.350  -0.804  0.00  0.00     0.112 C 
ATOM     26  NE1 TRP d   1      19.905 -18.979  -1.060  0.00  0.00    -0.282 NA
ATOM     27  CE2 TRP d   1      19.224 -19.792  -0.186  0.00  0.00     0.019 A 
ATOM     28  HE1 TRP d   1      19.622 -18.009  -1.103  0.00  0.00     0.128 HD
ATOM     29  CZ2 TRP d   1      18.121 -20.574  -0.520  0.00  0.00     0.024 A 
ATOM     30  CD2 TRP d   1      19.994 -19.731   0.996  0.00  0.00    -0.011 A 
ATOM     31  CH2 TRP d   1      17.593 -21.516   0.318  0.00  0.00     0.002 A 
ATOM     32  CZ3 TRP d   1      18.191 -21.573   1.567  0.00  0.00     0.001 A 
ATOM     33  CE3 TRP d   1      19.344 -20.670   1.963  0.00  0.00     0.013 A 
ENDBRANCH  23  24
ENDBRANCH  22  23
BRANCH  22  34
ATOM     34  C   TRP d   1      24.010 -18.094  -1.869  0.00  0.00     0.197 C 
ATOM     35  O   TRP d   1      24.749 -17.210  -2.428  0.00  0.00    -0.646 OA
ATOM     36  OXT TRP d   1      23.273 -18.969  -2.395  0.00  0.00    -0.646 OA
ENDBRANCH  22  34
ENDBRANCH   3  22
TORSDOF 9
ENDMDL
MODEL 4
REMARK VINA RESULT:   -31.247      4.356      7.803
REMARK INTER + INTRA:         -36.870
REMARK INTER:                 -33.931
REMARK INTRA:                  -2.939
REMARK CONF_INDEPENDENT:        2.685
REMARK UNBOUND:                -2.939
REMARK  9 active torsions:
REMARK  status: ('A' for Active; 'I' for Inactive)
REMARK    1  A    between atoms: C_2  and  C_3 
REMARK    2  A    between atoms: C_7  and  C_6 
REMARK    3  A    between atoms: C_10  and  S_11 
REMARK    4  A    between atoms: S_11  and  C_12 
REMARK    5  A    between atoms: C_12  and  C_13 
REMARK       I    between atoms: C_13  and  N_15 
REMARK    6  A    between atoms: N_15  and  CA_16 
REMARK    7  A    between atoms: CA_16  and  CB_17 
REMARK    8  A    between atoms: CA_16  and  C_27 
REMARK    9  A    between atoms: CB_17  and  CG_18 
ROOT
ATOM      1  C   UNK d   0      25.439 -15.456  -2.461  0.00  0.00     0.228 C 
ATOM      2  O   UNK d   0      24.421 -14.799  -2.556  0.00  0.00    -0.273 OA
ATOM      3  N   TRP d   1      25.467 -16.569  -1.651  0.00  0.00    -0.346 N 
ATOM      4  H   TRP d   1      26.367 -16.833  -1.217  0.00  0.00     0.163 HD
ENDROOT
BRANCH   1   5
ATOM      5  C   UNK d   0      26.739 -15.103  -3.278  0.00  0.00     0.185 C 
BRANCH   5   6
ATOM      6  S   UNK d   0      27.680 -13.895  -2.245  0.00  0.00    -0.082 SA
BRANCH   6   7
ATOM      7  C   UNK d   0      27.886 -14.590  -0.709  0.00  0.00     0.177 C 
ATOM      8  N   UNK d   0      28.034 -15.811  -0.311  0.00  0.00    -0.174 NA
ATOM      9  N   UNK d   0      28.053 -15.710   1.076  0.00  0.00    -0.187 NA
ATOM     10  C   UNK d   0      28.465 -14.378   1.496  0.00  0.00     0.211 C 
ATOM     11  H   UNK d   0      28.490 -16.483   1.568  0.00  0.00     0.151 HD
ATOM     12  N   UNK d   0      27.931 -13.649   0.360  0.00  0.00    -0.346 N 
ATOM     13  H   UNK d   0      27.679 -12.687   0.230  0.00  0.00     0.163 HD
BRANCH  10  14
ATOM     14  C   UNK d   0      28.041 -13.892   2.863  0.00  0.00    -0.020 A 
ATOM     15  C   UNK d   0      27.893 -14.810   3.923  0.00  0.00     0.011 A 
ATOM     16  C   UNK d   0      27.894 -14.384   5.257  0.00  0.00     0.007 A 
ATOM     17  C   UNK d   0      28.047 -13.029   5.570  0.00  0.00    -0.059 A 
ATOM     18  C   UNK d   0      28.097 -12.102   4.526  0.00  0.00     0.007 A 
ATOM     19  C   UNK d   0      28.077 -12.525   3.191  0.00  0.00     0.011 A 
BRANCH  17  20
ATOM     20  C   UNK d   0      28.203 -12.575   7.001  0.00  0.00     0.034 C 
ATOM     21  C   UNK d   0      28.910 -13.617   7.850  0.00  0.00     0.010 C 
ENDBRANCH  17  20
ENDBRANCH  10  14
ENDBRANCH   6   7
ENDBRANCH   5   6
ENDBRANCH   1   5
BRANCH   3  22
ATOM     22  CA  TRP d   1      24.330 -16.933  -0.680  0.00  0.00     0.189 C 
BRANCH  22  23
ATOM     23  CB  TRP d   1      22.741 -17.297  -1.269  0.00  0.00     0.073 C 
BRANCH  23  24
ATOM     24  CG  TRP d   1      21.559 -18.225  -0.504  0.00  0.00    -0.046 C 
ATOM     25  CD1 TRP d   1      21.277 -19.325  -1.338  0.00  0.00     0.112 C 
ATOM     26  NE1 TRP d   1      19.905 -19.148  -1.233  0.00  0.00    -0.282 NA
ATOM     27  CE2 TRP d   1      19.685 -19.539   0.067  0.00  0.00     0.019 A 
ATOM     28  HE1 TRP d   1      19.450 -18.299  -1.542  0.00  0.00     0.128 HD
ATOM     29  CZ2 TRP d   1      18.696 -20.429   0.474  0.00  0.00     0.024 A 
ATOM     30  CD2 TRP d   1      20.756 -18.952   0.776  0.00  0.00    -0.011 A 
ATOM     31  CH2 TRP d   1      18.632 -20.945   1.738  0.00  0.00     0.002 A 
ATOM     32  CZ3 TRP d   1      19.584 -20.445   2.612  0.00  0.00     0.001 A 
ATOM     33  CE3 TRP d   1      20.617 -19.416   2.193  0.00  0.00     0.013 A 
ENDBRANCH  23  24
ENDBRANCH  22  23
BRANCH  22  34
ATOM     34  C   TRP d   1      24.960 -18.142   0.232  0.00  0.00     0.197 C 
ATOM     35  O   TRP d   1      26.039 -18.634  -0.252  0.00  0.00    -0.646 OA
ATOM     36  OXT TRP d   1      24.377 -18.407   1.316  0.00  0.00    -0.646 OA
ENDBRANCH  22  34
ENDBRANCH   3  22
TORSDOF 9
ENDMDL
MODEL 5
REMARK VINA RESULT:   -31.084      1.603      2.065
REMARK INTER + INTRA:         -35.058
REMARK INTER:                 -33.768
REMARK INTRA:                  -1.289
REMARK CONF_INDEPENDENT:        2.685
REMARK UNBOUND:                -1.289
REMARK  9 active torsions:
REMARK  status: ('A' for Active; 'I' for Inactive)
REMARK    1  A    between atoms: C_2  and  C_3 
REMARK    2  A    between atoms: C_7  and  C_6 
REMARK    3  A    between atoms: C_10  and  S_11 
REMARK    4  A    between atoms: S_11  and  C_12 
REMARK    5  A    between atoms: C_12  and  C_13 
REMARK       I    between atoms: C_13  and  N_15 
REMARK    6  A    between atoms: N_15  and  CA_16 
REMARK    7  A    between atoms: CA_16  and  CB_17 
REMARK    8  A    between atoms: CA_16  and  C_27 
REMARK    9  A    between atoms: CB_17  and  CG_18 
ROOT
ATOM      1  C   UNK d   0      24.908 -15.127  -2.111  0.00  0.00     0.228 C 
ATOM      2  O   UNK d   0      23.757 -14.984  -2.474  0.00  0.00    -0.273 OA
ATOM      3  N   TRP d   1      25.218 -16.079  -1.166  0.00  0.00    -0.346 N 
ATOM      4  H   TRP d   1      26.027 -15.905  -0.547  0.00  0.00     0.163 HD
ENDROOT
BRANCH   1   5
ATOM      5  C   UNK d   0      26.086 -14.280  -2.723  0.00  0.00     0.185 C 
BRANCH   5   6
ATOM      6  S   UNK d   0      25.793 -14.236  -4.546  0.00  0.00    -0.082 SA
BRANCH   6   7
ATOM      7  C   UNK d   0      27.234 -14.721  -5.305  0.00  0.00     0.177 C 
ATOM      8  N   UNK d   0      27.703 -14.539  -6.495  0.00  0.00    -0.174 NA
ATOM      9  N   UNK d   0      28.883 -15.274  -6.504  0.00  0.00    -0.187 NA
ATOM     10  C   UNK d   0      29.399 -15.450  -5.154  0.00  0.00     0.211 C 
ATOM     11  H   UNK d   0      29.566 -15.003  -7.206  0.00  0.00     0.151 HD
ATOM     12  N   UNK d   0      28.122 -15.453  -4.464  0.00  0.00    -0.346 N 
ATOM     13  H   UNK d   0      27.837 -15.803  -3.569  0.00  0.00     0.163 HD
BRANCH  10  14
ATOM     14  C   UNK d   0      30.311 -16.624  -4.880  0.00  0.00    -0.020 A 
ATOM     15  C   UNK d   0      30.561 -17.027  -3.552  0.00  0.00     0.011 A 
ATOM     16  C   UNK d   0      31.056 -18.305  -3.262  0.00  0.00     0.007 A 
ATOM     17  C   UNK d   0      31.310 -19.218  -4.291  0.00  0.00    -0.059 A 
ATOM     18  C   UNK d   0      31.157 -18.795  -5.614  0.00  0.00     0.007 A 
ATOM     19  C   UNK d   0      30.681 -17.511  -5.905  0.00  0.00     0.011 A 
BRANCH  17  20
ATOM     20  C   UNK d   0      31.696 -20.644  -3.986  0.00  0.00     0.034 C 
ATOM     21  C   UNK d   0      30.773 -21.638  -4.670  0.00  0.00     0.010 C 
ENDBRANCH  17  20
ENDBRANCH  10  14
ENDBRANCH   6   7
ENDBRANCH   5   6
ENDBRANCH   1   5
BRANCH   3  22
ATOM     22  CA  TRP d   1      24.154 -16.859  -0.374  0.00  0.00     0.189 C 
BRANCH  22  23
ATOM     23  CB  TRP d   1      22.647 -17.301  -1.107  0.00  0.00     0.073 C 
BRANCH  23  24
ATOM     24  CG  TRP d   1      21.420 -18.237  -0.429  0.00  0.00    -0.046 C 
ATOM     25  CD1 TRP d   1      21.186 -19.324  -1.295  0.00  0.00     0.112 C 
ATOM     26  NE1 TRP d   1      19.811 -19.145  -1.270  0.00  0.00    -0.282 NA
ATOM     27  CE2 TRP d   1      19.513 -19.554   0.009  0.00  0.00     0.019 A 
ATOM     28  HE1 TRP d   1      19.377 -18.290  -1.593  0.00  0.00     0.128 HD
ATOM     29  CZ2 TRP d   1      18.499 -20.448   0.343  0.00  0.00     0.024 A 
ATOM     30  CD2 TRP d   1      20.540 -18.981   0.790  0.00  0.00    -0.011 A 
ATOM     31  CH2 TRP d   1      18.359 -20.983   1.593  0.00  0.00     0.002 A 
ATOM     32  CZ3 TRP d   1      19.257 -20.497   2.529  0.00  0.00     0.001 A 
ATOM     33  CE3 TRP d   1      20.315 -19.465   2.189  0.00  0.00     0.013 A 
ENDBRANCH  23  24
ENDBRANCH  22  23
BRANCH  22  34
ATOM     34  C   TRP d   1      24.970 -18.150   0.223  0.00  0.00     0.197 C 
ATOM     35  O   TRP d   1      24.532 -18.547   1.359  0.00  0.00    -0.646 OA
ATOM     36  OXT TRP d   1      25.868 -18.649  -0.506  0.00  0.00    -0.646 OA
ENDBRANCH  22  34
ENDBRANCH   3  22
TORSDOF 9
ENDMDL
MODEL 6
REMARK VINA RESULT:   -31.036      2.211      2.756
REMARK INTER + INTRA:         -35.448
REMARK INTER:                 -33.721
REMARK INTRA:                  -1.728
REMARK CONF_INDEPENDENT:        2.685
REMARK UNBOUND:                -1.728
REMARK  9 active torsions:
REMARK  status: ('A' for Active; 'I' for Inactive)
REMARK    1  A    between atoms: C_2  and  C_3 
REMARK    2  A    between atoms: C_7  and  C_6 
REMARK    3  A    between atoms: C_10  and  S_11 
REMARK    4  A    between atoms: S_11  and  C_12 
REMARK    5  A    between atoms: C_12  and  C_13 
REMARK       I    between atoms: C_13  and  N_15 
REMARK    6  A    between atoms: N_15  and  CA_16 
REMARK    7  A    between atoms: CA_16  and  CB_17 
REMARK    8  A    between atoms: CA_16  and  C_27 
REMARK    9  A    between atoms: CB_17  and  CG_18 
ROOT
ATOM      1  C   UNK d   0      26.046 -14.876  -0.513  0.00  0.00     0.228 C 
ATOM      2  O   UNK d   0      26.229 -15.028   0.678  0.00  0.00    -0.273 OA
ATOM      3  N   TRP d   1      25.064 -15.598  -1.155  0.00  0.00    -0.346 N 
ATOM      4  H   TRP d   1      25.201 -15.825  -2.154  0.00  0.00     0.163 HD
ENDROOT
BRANCH   1   5
ATOM      5  C   UNK d   0      26.873 -13.837  -1.360  0.00  0.00     0.185 C 
BRANCH   5   6
ATOM      6  S   UNK d   0      25.769 -13.312  -2.745  0.00  0.00    -0.082 SA
BRANCH   6   7
ATOM      7  C   UNK d   0      26.196 -14.228  -4.111  0.00  0.00     0.177 C 
ATOM      8  N   UNK d   0      25.617 -15.204  -4.728  0.00  0.00    -0.174 NA
ATOM      9  N   UNK d   0      26.534 -15.570  -5.708  0.00  0.00    -0.187 NA
ATOM     10  C   UNK d   0      27.424 -14.463  -6.029  0.00  0.00     0.211 C 
ATOM     11  H   UNK d   0      26.152 -16.074  -6.503  0.00  0.00     0.151 HD
ATOM     12  N   UNK d   0      27.423 -13.836  -4.720  0.00  0.00    -0.346 N 
ATOM     13  H   UNK d   0      28.059 -13.203  -4.272  0.00  0.00     0.163 HD
BRANCH  10  14
ATOM     14  C   UNK d   0      28.778 -14.777  -6.621  0.00  0.00    -0.020 A 
ATOM     15  C   UNK d   0      29.501 -13.774  -7.299  0.00  0.00     0.011 A 
ATOM     16  C   UNK d   0      30.881 -13.891  -7.509  0.00  0.00     0.007 A 
ATOM     17  C   UNK d   0      31.578 -15.011  -7.043  0.00  0.00    -0.059 A 
ATOM     18  C   UNK d   0      30.856 -16.053  -6.457  0.00  0.00     0.007 A 
ATOM     19  C   UNK d   0      29.473 -15.946  -6.264  0.00  0.00     0.011 A 
BRANCH  17  20
ATOM     20  C   UNK d   0      33.084 -15.080  -7.127  0.00  0.00     0.034 C 
ATOM     21  C   UNK d   0      33.545 -15.870  -8.339  0.00  0.00     0.010 C 
ENDBRANCH  17  20
ENDBRANCH  10  14
ENDBRANCH   6   7
ENDBRANCH   5   6
ENDBRANCH   1   5
BRANCH   3  22
ATOM     22  CA  TRP d   1      24.297 -16.755  -0.491  0.00  0.00     0.189 C 
BRANCH  22  23
ATOM     23  CB  TRP d   1      22.919 -17.466  -1.264  0.00  0.00     0.073 C 
BRANCH  23  24
ATOM     24  CG  TRP d   1      21.653 -18.299  -0.524  0.00  0.00    -0.046 C 
ATOM     25  CD1 TRP d   1      21.249 -19.325  -1.401  0.00  0.00     0.112 C 
ATOM     26  NE1 TRP d   1      19.904 -19.011  -1.270  0.00  0.00    -0.282 NA
ATOM     27  CE2 TRP d   1      19.657 -19.434   0.015  0.00  0.00     0.019 A 
ATOM     28  HE1 TRP d   1      19.538 -18.106  -1.536  0.00  0.00     0.128 HD
ATOM     29  CZ2 TRP d   1      18.583 -20.233   0.397  0.00  0.00     0.024 A 
ATOM     30  CD2 TRP d   1      20.789 -18.994   0.735  0.00  0.00    -0.011 A 
ATOM     31  CH2 TRP d   1      18.477 -20.796   1.638  0.00  0.00     0.002 A 
ATOM     32  CZ3 TRP d   1      19.483 -20.436   2.520  0.00  0.00     0.001 A 
ATOM     33  CE3 TRP d   1      20.615 -19.503   2.132  0.00  0.00     0.013 A 
ENDBRANCH  23  24
ENDBRANCH  22  23
BRANCH  22  34
ATOM     34  C   TRP d   1      25.463 -17.854  -0.140  0.00  0.00     0.197 C 
ATOM     35  O   TRP d   1      26.462 -17.806  -0.940  0.00  0.00    -0.646 OA
ATOM     36  OXT TRP d   1      25.296 -18.559   0.889  0.00  0.00    -0.646 OA
ENDBRANCH  22  34
ENDBRANCH   3  22
TORSDOF 9
ENDMDL
MODEL 7
REMARK VINA RESULT:   -30.372      3.372      4.358
REMARK INTER + INTRA:         -35.522
REMARK INTER:                 -33.056
REMARK INTRA:                  -2.466
REMARK CONF_INDEPENDENT:        2.685
REMARK UNBOUND:                -2.466
REMARK  9 active torsions:
REMARK  status: ('A' for Active; 'I' for Inactive)
REMARK    1  A    between atoms: C_2  and  C_3 
REMARK    2  A    between atoms: C_7  and  C_6 
REMARK    3  A    between atoms: C_10  and  S_11 
REMARK    4  A    between atoms: S_11  and  C_12 
REMARK    5  A    between atoms: C_12  and  C_13 
REMARK       I    between atoms: C_13  and  N_15 
REMARK    6  A    between atoms: N_15  and  CA_16 
REMARK    7  A    between atoms: CA_16  and  CB_17 
REMARK    8  A    between atoms: CA_16  and  C_27 
REMARK    9  A    between atoms: CB_17  and  CG_18 
ROOT
ATOM      1  C   UNK d   0      26.412 -17.360   0.336  0.00  0.00     0.228 C 
ATOM      2  O   UNK d   0      26.516 -18.453   0.859  0.00  0.00    -0.273 OA
ATOM      3  N   TRP d   1      25.214 -16.980  -0.227  0.00  0.00    -0.346 N 
ATOM      4  H   TRP d   1      25.239 -16.324  -1.025  0.00  0.00     0.163 HD
ENDROOT
BRANCH   1   5
ATOM      5  C   UNK d   0      27.600 -16.328   0.317  0.00  0.00     0.185 C 
BRANCH   5   6
ATOM      6  S   UNK d   0      26.828 -14.662   0.117  0.00  0.00    -0.082 SA
BRANCH   6   7
ATOM      7  C   UNK d   0      26.202 -14.577  -1.460  0.00  0.00     0.177 C 
ATOM      8  N   UNK d   0      25.087 -14.969  -1.984  0.00  0.00    -0.174 NA
ATOM      9  N   UNK d   0      25.239 -14.688  -3.338  0.00  0.00    -0.187 NA
ATOM     10  C   UNK d   0      26.219 -13.631  -3.545  0.00  0.00     0.211 C 
ATOM     11  H   UNK d   0      24.377 -14.602  -3.870  0.00  0.00     0.151 HD
ATOM     12  N   UNK d   0      27.055 -13.922  -2.395  0.00  0.00    -0.346 N 
ATOM     13  H   UNK d   0      28.009 -13.701  -2.178  0.00  0.00     0.163 HD
BRANCH  10  14
ATOM     14  C   UNK d   0      26.921 -13.553  -4.881  0.00  0.00    -0.020 A 
ATOM     15  C   UNK d   0      27.246 -12.298  -5.435  0.00  0.00     0.011 A 
ATOM     16  C   UNK d   0      28.217 -12.176  -6.437  0.00  0.00     0.007 A 
ATOM     17  C   UNK d   0      28.893 -13.304  -6.912  0.00  0.00    -0.059 A 
ATOM     18  C   UNK d   0      28.511 -14.562  -6.439  0.00  0.00     0.007 A 
ATOM     19  C   UNK d   0      27.527 -14.687  -5.451  0.00  0.00     0.011 A 
BRANCH  17  20
ATOM     20  C   UNK d   0      30.044 -13.171  -7.878  0.00  0.00     0.034 C 
ATOM     21  C   UNK d   0      29.716 -12.224  -9.019  0.00  0.00     0.010 C 
ENDBRANCH  17  20
ENDBRANCH  10  14
ENDBRANCH   6   7
ENDBRANCH   5   6
ENDBRANCH   1   5
BRANCH   3  22
ATOM     22  CA  TRP d   1      24.030 -17.942  -0.420  0.00  0.00     0.189 C 
BRANCH  22  23
ATOM     23  CB  TRP d   1      22.468 -17.571   0.234  0.00  0.00     0.073 C 
BRANCH  23  24
ATOM     24  CG  TRP d   1      21.113 -18.575   0.267  0.00  0.00    -0.046 C 
ATOM     25  CD1 TRP d   1      21.088 -19.294  -0.944  0.00  0.00     0.112 C 
ATOM     26  NE1 TRP d   1      19.746 -19.022  -1.165  0.00  0.00    -0.282 NA
ATOM     27  CE2 TRP d   1      19.154 -19.802  -0.200  0.00  0.00     0.019 A 
ATOM     28  HE1 TRP d   1      19.402 -18.076  -1.268  0.00  0.00     0.128 HD
ATOM     29  CZ2 TRP d   1      18.087 -20.670  -0.420  0.00  0.00     0.024 A 
ATOM     30  CD2 TRP d   1      19.969 -19.602   0.936  0.00  0.00    -0.011 A 
ATOM     31  CH2 TRP d   1      17.655 -21.571   0.511  0.00  0.00     0.002 A 
ATOM     32  CZ3 TRP d   1      18.308 -21.495   1.731  0.00  0.00     0.001 A 
ATOM     33  CE3 TRP d   1      19.420 -20.498   2.002  0.00  0.00     0.013 A 
ENDBRANCH  23  24
ENDBRANCH  22  23
BRANCH  22  34
ATOM     34  C   TRP d   1      23.991 -18.204  -2.039  0.00  0.00     0.197 C 
ATOM     35  O   TRP d   1      24.767 -17.426  -2.697  0.00  0.00    -0.646 OA
ATOM     36  OXT TRP d   1      23.281 -19.159  -2.450  0.00  0.00    -0.646 OA
ENDBRANCH  22  34
ENDBRANCH   3  22
TORSDOF 9
ENDMDL
MODEL 8
REMARK VINA RESULT:   -30.301      4.493      7.512
REMARK INTER + INTRA:         -35.741
REMARK INTER:                 -32.986
REMARK INTRA:                  -2.755
REMARK CONF_INDEPENDENT:        2.685
REMARK UNBOUND:                -2.755
REMARK  9 active torsions:
REMARK  status: ('A' for Active; 'I' for Inactive)
REMARK    1  A    between atoms: C_2  and  C_3 
REMARK    2  A    between atoms: C_7  and  C_6 
REMARK    3  A    between atoms: C_10  and  S_11 
REMARK    4  A    between atoms: S_11  and  C_12 
REMARK    5  A    between atoms: C_12  and  C_13 
REMARK       I    between atoms: C_13  and  N_15 
REMARK    6  A    between atoms: N_15  and  CA_16 
REMARK    7  A    between atoms: CA_16  and  CB_17 
REMARK    8  A    between atoms: CA_16  and  C_27 
REMARK    9  A    between atoms: CB_17  and  CG_18 
ROOT
ATOM      1  C   UNK d   0      25.179 -15.372  -2.448  0.00  0.00     0.228 C 
ATOM      2  O   UNK d   0      24.139 -14.744  -2.396  0.00  0.00    -0.273 OA
ATOM      3  N   TRP d   1      25.293 -16.568  -1.776  0.00  0.00    -0.346 N 
ATOM      4  H   TRP d   1      26.229 -16.849  -1.437  0.00  0.00     0.163 HD
ENDROOT
BRANCH   1   5
ATOM      5  C   UNK d   0      26.407 -14.883  -3.303  0.00  0.00     0.185 C 
BRANCH   5   6
ATOM      6  S   UNK d   0      27.891 -15.727  -2.597  0.00  0.00    -0.082 SA
BRANCH   6   7
ATOM      7  C   UNK d   0      27.797 -15.591  -0.906  0.00  0.00     0.177 C 
ATOM      8  N   UNK d   0      27.733 -16.466   0.043  0.00  0.00    -0.174 NA
ATOM      9  N   UNK d   0      27.579 -15.700   1.193  0.00  0.00    -0.187 NA
ATOM     10  C   UNK d   0      28.098 -14.354   0.998  0.00  0.00     0.211 C 
ATOM     11  H   UNK d   0      27.843 -16.153   2.064  0.00  0.00     0.151 HD
ATOM     12  N   UNK d   0      27.820 -14.250  -0.423  0.00  0.00    -0.346 N 
ATOM     13  H   UNK d   0      27.713 -13.464  -1.037  0.00  0.00     0.163 HD
BRANCH  10  14
ATOM     14  C   UNK d   0      27.561 -13.242   1.868  0.00  0.00    -0.020 A 
ATOM     15  C   UNK d   0      28.239 -12.882   3.051  0.00  0.00     0.011 A 
ATOM     16  C   UNK d   0      28.021 -11.642   3.664  0.00  0.00     0.007 A 
ATOM     17  C   UNK d   0      27.123 -10.723   3.110  0.00  0.00    -0.059 A 
ATOM     18  C   UNK d   0      26.376 -11.108   1.994  0.00  0.00     0.007 A 
ATOM     19  C   UNK d   0      26.578 -12.356   1.391  0.00  0.00     0.011 A 
BRANCH  17  20
ATOM     20  C   UNK d   0      26.992  -9.329   3.671  0.00  0.00     0.034 C 
ATOM     21  C   UNK d   0      27.335  -8.270   2.637  0.00  0.00     0.010 C 
ENDBRANCH  17  20
ENDBRANCH  10  14
ENDBRANCH   6   7
ENDBRANCH   5   6
ENDBRANCH   1   5
BRANCH   3  22
ATOM     22  CA  TRP d   1      24.238 -17.081  -0.780  0.00  0.00     0.189 C 
BRANCH  22  23
ATOM     23  CB  TRP d   1      22.581 -17.257  -1.255  0.00  0.00     0.073 C 
BRANCH  23  24
ATOM     24  CG  TRP d   1      21.404 -18.209  -0.511  0.00  0.00    -0.046 C 
ATOM     25  CD1 TRP d   1      21.162 -19.316  -1.348  0.00  0.00     0.112 C 
ATOM     26  NE1 TRP d   1      19.785 -19.169  -1.270  0.00  0.00    -0.282 NA
ATOM     27  CE2 TRP d   1      19.548 -19.561   0.026  0.00  0.00     0.019 A 
ATOM     28  HE1 TRP d   1      19.318 -18.331  -1.591  0.00  0.00     0.128 HD
ATOM     29  CZ2 TRP d   1      18.569 -20.472   0.417  0.00  0.00     0.024 A 
ATOM     30  CD2 TRP d   1      20.591 -18.950   0.755  0.00  0.00    -0.011 A 
ATOM     31  CH2 TRP d   1      18.492 -20.986   1.680  0.00  0.00     0.002 A 
ATOM     32  CZ3 TRP d   1      19.415 -20.463   2.571  0.00  0.00     0.001 A 
ATOM     33  CE3 TRP d   1      20.434 -19.413   2.170  0.00  0.00     0.013 A 
ENDBRANCH  23  24
ENDBRANCH  22  23
BRANCH  22  34
ATOM     34  C   TRP d   1      24.882 -18.473  -0.200  0.00  0.00     0.197 C 
ATOM     35  O   TRP d   1      24.002 -19.302   0.223  0.00  0.00    -0.646 OA
ATOM     36  OXT TRP d   1      26.130 -18.612  -0.294  0.00  0.00    -0.646 OA
ENDBRANCH  22  34
ENDBRANCH   3  22
TORSDOF 9
ENDMDL
MODEL 9
REMARK VINA RESULT:   -29.944      4.338      6.151
REMARK INTER + INTRA:         -36.405
REMARK INTER:                 -32.629
REMARK INTRA:                  -3.775
REMARK CONF_INDEPENDENT:        2.685
REMARK UNBOUND:                -3.775
REMARK  9 active torsions:
REMARK  status: ('A' for Active; 'I' for Inactive)
REMARK    1  A    between atoms: C_2  and  C_3 
REMARK    2  A    between atoms: C_7  and  C_6 
REMARK    3  A    between atoms: C_10  and  S_11 
REMARK    4  A    between atoms: S_11  and  C_12 
REMARK    5  A    between atoms: C_12  and  C_13 
REMARK       I    between atoms: C_13  and  N_15 
REMARK    6  A    between atoms: N_15  and  CA_16 
REMARK    7  A    between atoms: CA_16  and  CB_17 
REMARK    8  A    between atoms: CA_16  and  C_27 
REMARK    9  A    between atoms: CB_17  and  CG_18 
ROOT
ATOM      1  C   UNK d   0      26.136 -17.625  -0.147  0.00  0.00     0.228 C 
ATOM      2  O   UNK d   0      26.041 -18.819   0.059  0.00  0.00    -0.273 OA
ATOM      3  N   TRP d   1      25.008 -16.882  -0.418  0.00  0.00    -0.346 N 
ATOM      4  H   TRP d   1      25.109 -16.046  -1.018  0.00  0.00     0.163 HD
ENDROOT
BRANCH   1   5
ATOM      5  C   UNK d   0      27.517 -16.872  -0.070  0.00  0.00     0.185 C 
BRANCH   5   6
ATOM      6  S   UNK d   0      28.060 -16.619  -1.817  0.00  0.00    -0.082 SA
BRANCH   6   7
ATOM      7  C   UNK d   0      26.893 -15.644  -2.577  0.00  0.00     0.177 C 
ATOM      8  N   UNK d   0      25.734 -15.900  -3.088  0.00  0.00    -0.174 NA
ATOM      9  N   UNK d   0      25.336 -14.685  -3.634  0.00  0.00    -0.187 NA
ATOM     10  C   UNK d   0      26.006 -13.572  -2.977  0.00  0.00     0.211 C 
ATOM     11  H   UNK d   0      24.337 -14.574  -3.782  0.00  0.00     0.151 HD
ATOM     12  N   UNK d   0      27.239 -14.263  -2.647  0.00  0.00    -0.346 N 
ATOM     13  H   UNK d   0      28.163 -13.937  -2.434  0.00  0.00     0.163 HD
BRANCH  10  14
ATOM     14  C   UNK d   0      26.150 -12.271  -3.732  0.00  0.00    -0.020 A 
ATOM     15  C   UNK d   0      26.362 -12.285  -5.126  0.00  0.00     0.011 A 
ATOM     16  C   UNK d   0      26.111 -11.152  -5.910  0.00  0.00     0.007 A 
ATOM     17  C   UNK d   0      25.635  -9.974  -5.325  0.00  0.00    -0.059 A 
ATOM     18  C   UNK d   0      25.513  -9.921  -3.934  0.00  0.00     0.007 A 
ATOM     19  C   UNK d   0      25.783 -11.046  -3.147  0.00  0.00     0.011 A 
BRANCH  17  20
ATOM     20  C   UNK d   0      25.216  -8.799  -6.172  0.00  0.00     0.034 C 
ATOM     21  C   UNK d   0      23.763  -8.422  -5.937  0.00  0.00     0.010 C 
ENDBRANCH  17  20
ENDBRANCH  10  14
ENDBRANCH   6   7
ENDBRANCH   5   6
ENDBRANCH   1   5
BRANCH   3  22
ATOM     22  CA  TRP d   1      23.628 -17.510  -0.682  0.00  0.00     0.189 C 
BRANCH  22  23
ATOM     23  CB  TRP d   1      22.806 -18.399   0.557  0.00  0.00     0.073 C 
BRANCH  23  24
ATOM     24  CG  TRP d   1      21.281 -19.111   0.459  0.00  0.00    -0.046 C 
ATOM     25  CD1 TRP d   1      21.159 -19.678  -0.826  0.00  0.00     0.112 C 
ATOM     26  NE1 TRP d   1      19.905 -19.123  -1.034  0.00  0.00    -0.282 NA
ATOM     27  CE2 TRP d   1      19.137 -19.867  -0.170  0.00  0.00     0.019 A 
ATOM     28  HE1 TRP d   1      19.757 -18.122  -1.036  0.00  0.00     0.128 HD
ATOM     29  CZ2 TRP d   1      17.930 -20.477  -0.502  0.00  0.00     0.024 A 
ATOM     30  CD2 TRP d   1      19.933 -19.956   0.992  0.00  0.00    -0.011 A 
ATOM     31  CH2 TRP d   1      17.296 -21.369   0.317  0.00  0.00     0.002 A 
ATOM     32  CZ3 TRP d   1      17.906 -21.554   1.547  0.00  0.00     0.001 A 
ATOM     33  CE3 TRP d   1      19.181 -20.833   1.944  0.00  0.00     0.013 A 
ENDBRANCH  23  24
ENDBRANCH  22  23
BRANCH  22  34
ATOM     34  C   TRP d   1      22.733 -16.267  -1.269  0.00  0.00     0.197 C 
ATOM     35  O   TRP d   1      23.432 -15.374  -1.863  0.00  0.00    -0.646 OA
ATOM     36  OXT TRP d   1      21.483 -16.351  -1.144  0.00  0.00    -0.646 OA
ENDBRANCH  22  34
ENDBRANCH   3  22
TORSDOF 9
ENDMDL
