MODEL 1
REMARK VINA RESULT:   -28.709      0.000      0.000
REMARK INTER + INTRA:         -33.056
REMARK INTER:                 -31.692
REMARK INTRA:                  -1.364
REMARK CONF_INDEPENDENT:        2.983
REMARK UNBOUND:                -1.364
REMARK  10 active torsions:
REMARK  status: ('A' for Active; 'I' for Inactive)
REMARK    1  A    between atoms: C_2  and  C_3 
REMARK    2  A    between atoms: C_3  and  S_4 
REMARK    3  A    between atoms: S_4  and  C_5 
REMARK    4  A    between atoms: C_8  and  C_9 
REMARK       I    between atoms: C_9  and  N_11 
REMARK    5  A    between atoms: N_11  and  C_12 
REMARK    6  A    between atoms: C_13  and  C_12 
REMARK    7  A    between atoms: C_13  and  N_24 
REMARK    8  A    between atoms: C_13  and  C_14 
REMARK    9  A    between atoms: C_17  and  O_18 
REMARK   10  A    between atoms: C_20  and  O_21 
ROOT
ATOM      1  C   UNL d   1      26.317 -15.424  -1.876  0.00  0.00     0.238 C 
ENDROOT
BRANCH   1   2
ATOM      2  N   UNL d   1      27.115 -14.881  -3.093  0.00  0.00    -0.061 N 
ATOM      3  C   UNL d   1      28.505 -15.544  -3.239  0.00  0.00     0.236 C 
ATOM      4  C   UNL d   1      29.238 -14.985  -4.455  0.00  0.00     0.028 C 
ATOM      5  C   UNL d   1      28.408 -15.213  -5.706  0.00  0.00     0.003 C 
ATOM      6  C   UNL d   1      27.116 -14.431  -5.561  0.00  0.00     0.028 C 
ATOM      7  C   UNL d   1      26.311 -14.973  -4.388  0.00  0.00     0.236 C 
ATOM      8  H   UNL d   1      27.293 -13.890  -2.891  0.00  0.00     0.280 HD
ENDBRANCH   1   2
BRANCH   1   9
ATOM      9  C   UNL d   1      26.845 -14.899  -0.555  0.00  0.00    -0.023 A 
ATOM     10  C   UNL d   1      27.446 -15.737   0.393  0.00  0.00     0.012 A 
ATOM     11  C   UNL d   1      27.772 -15.239   1.655  0.00  0.00     0.040 A 
ATOM     12  C   UNL d   1      27.592 -13.883   1.966  0.00  0.00     0.101 A 
ATOM     13  C   UNL d   1      27.014 -13.033   1.009  0.00  0.00     0.102 A 
ATOM     14  C   UNL d   1      26.663 -13.547  -0.243  0.00  0.00     0.049 A 
BRANCH  12  15
ATOM     15  O   UNL d   1      28.032 -13.545   3.221  0.00  0.00    -0.353 OA
ATOM     16  C   UNL d   1      27.719 -14.435   4.290  0.00  0.00     0.210 C 
ENDBRANCH  12  15
BRANCH  13  17
ATOM     17  O   UNL d   1      26.776 -11.735   1.353  0.00  0.00    -0.353 OA
ATOM     18  C   UNL d   1      27.675 -10.728   0.926  0.00  0.00     0.210 C 
ENDBRANCH  13  17
ENDBRANCH   1   9
BRANCH   1  19
ATOM     19  C   UNL d   1      24.775 -15.157  -1.964  0.00  0.00     0.161 C 
BRANCH  19  20
ATOM     20  N   UNL d   1      23.977 -16.325  -1.587  0.00  0.00    -0.354 N 
ATOM     21  C   UNL d   1      22.635 -16.247  -1.268  0.00  0.00     0.256 C 
ATOM     22  O   UNL d   1      22.031 -15.177  -1.331  0.00  0.00    -0.268 OA
ATOM     23  H   UNL d   1      24.448 -17.210  -1.432  0.00  0.00     0.162 HD
BRANCH  21  24
ATOM     24  C   UNL d   1      21.922 -17.495  -0.871  0.00  0.00     0.090 A 
ATOM     25  C   UNL d   1      20.617 -17.700  -1.270  0.00  0.00     0.139 A 
ATOM     26  N   UNL d   1      19.902 -18.822  -0.991  0.00  0.00    -0.234 NA
ATOM     27  C   UNL d   1      20.513 -19.787  -0.286  0.00  0.00     0.189 A 
ATOM     28  N   UNL d   1      21.768 -19.695   0.157  0.00  0.00    -0.210 NA
ATOM     29  C   UNL d   1      22.430 -18.557  -0.146  0.00  0.00     0.146 A 
ATOM     30 CL   UNL d   1      24.036 -18.621   0.491  0.00  0.00    -0.061 Cl
BRANCH  27  31
ATOM     31  S   UNL d   1      19.553 -21.184   0.234  0.00  0.00    -0.090 SA
BRANCH  31  32
ATOM     32  C   UNL d   1      18.405 -20.413   1.431  0.00  0.00     0.082 C 
BRANCH  32  33
ATOM     33  C   UNL d   1      19.033 -20.453   2.832  0.00  0.00     0.006 C 
ATOM     34  C   UNL d   1      20.357 -19.702   2.885  0.00  0.00     0.006 C 
ENDBRANCH  32  33
ENDBRANCH  31  32
ENDBRANCH  27  31
ENDBRANCH  21  24
ENDBRANCH  19  20
ENDBRANCH   1  19
TORSDOF 10
ENDMDL
MODEL 2
REMARK VINA RESULT:   -27.783      1.640      2.858
REMARK INTER + INTRA:         -32.186
REMARK INTER:                 -30.766
REMARK INTRA:                  -1.420
REMARK CONF_INDEPENDENT:        2.983
REMARK UNBOUND:                -1.420
REMARK  10 active torsions:
REMARK  status: ('A' for Active; 'I' for Inactive)
REMARK    1  A    between atoms: C_2  and  C_3 
REMARK    2  A    between atoms: C_3  and  S_4 
REMARK    3  A    between atoms: S_4  and  C_5 
REMARK    4  A    between atoms: C_8  and  C_9 
REMARK       I    between atoms: C_9  and  N_11 
REMARK    5  A    between atoms: N_11  and  C_12 
REMARK    6  A    between atoms: C_13  and  C_12 
REMARK    7  A    between atoms: C_13  and  N_24 
REMARK    8  A    between atoms: C_13  and  C_14 
REMARK    9  A    between atoms: C_17  and  O_18 
REMARK   10  A    between atoms: C_20  and  O_21 
ROOT
ATOM      1  C   UNL d   1      26.136 -15.131  -1.089  0.00  0.00     0.238 C 
ENDROOT
BRANCH   1   2
ATOM      2  N   UNL d   1      27.346 -16.045  -1.425  0.00  0.00    -0.061 N 
ATOM      3  C   UNL d   1      28.351 -15.375  -2.391  0.00  0.00     0.236 C 
ATOM      4  C   UNL d   1      29.523 -16.309  -2.674  0.00  0.00     0.028 C 
ATOM      5  C   UNL d   1      30.209 -16.683  -1.373  0.00  0.00     0.003 C 
ATOM      6  C   UNL d   1      29.216 -17.454  -0.523  0.00  0.00     0.028 C 
ATOM      7  C   UNL d   1      28.038 -16.559  -0.164  0.00  0.00     0.236 C 
ATOM      8  H   UNL d   1      26.958 -16.849  -1.932  0.00  0.00     0.280 HD
ENDBRANCH   1   2
BRANCH   1   9
ATOM      9  C   UNL d   1      26.513 -13.664  -1.042  0.00  0.00    -0.023 A 
ATOM     10  C   UNL d   1      26.566 -12.870  -2.195  0.00  0.00     0.012 A 
ATOM     11  C   UNL d   1      27.070 -11.570  -2.124  0.00  0.00     0.040 A 
ATOM     12  C   UNL d   1      27.443 -11.006  -0.895  0.00  0.00     0.101 A 
ATOM     13  C   UNL d   1      27.366 -11.789   0.268  0.00  0.00     0.102 A 
ATOM     14  C   UNL d   1      26.888 -13.101   0.184  0.00  0.00     0.049 A 
BRANCH  12  15
ATOM     15  O   UNL d   1      27.845  -9.698  -0.992  0.00  0.00    -0.353 OA
ATOM     16  C   UNL d   1      26.891  -8.690  -0.665  0.00  0.00     0.210 C 
ENDBRANCH  12  15
BRANCH  13  17
ATOM     17  O   UNL d   1      27.804 -11.251   1.443  0.00  0.00    -0.353 OA
ATOM     18  C   UNL d   1      26.862 -10.710   2.352  0.00  0.00     0.210 C 
ENDBRANCH  13  17
ENDBRANCH   1   9
BRANCH   1  19
ATOM     19  C   UNL d   1      24.913 -15.326  -2.050  0.00  0.00     0.161 C 
BRANCH  19  20
ATOM     20  N   UNL d   1      24.064 -16.454  -1.663  0.00  0.00    -0.354 N 
ATOM     21  C   UNL d   1      22.748 -16.306  -1.270  0.00  0.00     0.256 C 
ATOM     22  O   UNL d   1      22.210 -15.199  -1.270  0.00  0.00    -0.268 OA
ATOM     23  H   UNL d   1      24.487 -17.371  -1.559  0.00  0.00     0.162 HD
BRANCH  21  24
ATOM     24  C   UNL d   1      21.981 -17.519  -0.870  0.00  0.00     0.090 A 
ATOM     25  C   UNL d   1      20.668 -17.667  -1.270  0.00  0.00     0.139 A 
ATOM     26  N   UNL d   1      19.904 -18.756  -0.989  0.00  0.00    -0.234 NA
ATOM     27  C   UNL d   1      20.471 -19.745  -0.281  0.00  0.00     0.189 A 
ATOM     28  N   UNL d   1      21.729 -19.708   0.163  0.00  0.00    -0.210 NA
ATOM     29  C   UNL d   1      22.440 -18.601  -0.143  0.00  0.00     0.146 A 
ATOM     30 CL   UNL d   1      24.042 -18.735   0.497  0.00  0.00    -0.061 Cl
BRANCH  27  31
ATOM     31  S   UNL d   1      19.450 -21.097   0.241  0.00  0.00    -0.090 SA
BRANCH  31  32
ATOM     32  C   UNL d   1      18.785 -20.463   1.822  0.00  0.00     0.082 C 
BRANCH  32  33
ATOM     33  C   UNL d   1      19.951 -20.084   2.747  0.00  0.00     0.006 C 
ATOM     34  C   UNL d   1      19.888 -20.825   4.076  0.00  0.00     0.006 C 
ENDBRANCH  32  33
ENDBRANCH  31  32
ENDBRANCH  27  31
ENDBRANCH  21  24
ENDBRANCH  19  20
ENDBRANCH   1  19
TORSDOF 10
ENDMDL
MODEL 3
REMARK VINA RESULT:   -26.273      2.267      3.774
REMARK INTER + INTRA:         -30.667
REMARK INTER:                 -29.256
REMARK INTRA:                  -1.411
REMARK CONF_INDEPENDENT:        2.983
REMARK UNBOUND:                -1.411
REMARK  10 active torsions:
REMARK  status: ('A' for Active; 'I' for Inactive)
REMARK    1  A    between atoms: C_2  and  C_3 
REMARK    2  A    between atoms: C_3  and  S_4 
REMARK    3  A    between atoms: S_4  and  C_5 
REMARK    4  A    between atoms: C_8  and  C_9 
REMARK       I    between atoms: C_9  and  N_11 
REMARK    5  A    between atoms: N_11  and  C_12 
REMARK    6  A    between atoms: C_13  and  C_12 
REMARK    7  A    between atoms: C_13  and  N_24 
REMARK    8  A    between atoms: C_13  and  C_14 
REMARK    9  A    between atoms: C_17  and  O_18 
REMARK   10  A    between atoms: C_20  and  O_21 
ROOT
ATOM      1  C   UNL d   1      25.898 -14.946  -1.341  0.00  0.00     0.238 C 
ENDROOT
BRANCH   1   2
ATOM      2  N   UNL d   1      26.829 -16.189  -1.370  0.00  0.00    -0.061 N 
ATOM      3  C   UNL d   1      28.293 -15.831  -1.720  0.00  0.00     0.236 C 
ATOM      4  C   UNL d   1      29.163 -17.085  -1.720  0.00  0.00     0.028 C 
ATOM      5  C   UNL d   1      29.093 -17.760  -0.362  0.00  0.00     0.003 C 
ATOM      6  C   UNL d   1      27.662 -18.208  -0.133  0.00  0.00     0.028 C 
ATOM      7  C   UNL d   1      26.743 -16.995  -0.075  0.00  0.00     0.236 C 
ATOM      8  H   UNL d   1      26.488 -16.777  -2.140  0.00  0.00     0.280 HD
ENDBRANCH   1   2
BRANCH   1   9
ATOM      9  C   UNL d   1      26.600 -13.685  -1.803  0.00  0.00    -0.023 A 
ATOM     10  C   UNL d   1      26.764 -12.574  -0.967  0.00  0.00     0.012 A 
ATOM     11  C   UNL d   1      27.274 -11.381  -1.483  0.00  0.00     0.040 A 
ATOM     12  C   UNL d   1      27.714 -11.299  -2.812  0.00  0.00     0.101 A 
ATOM     13  C   UNL d   1      27.576 -12.420  -3.648  0.00  0.00     0.102 A 
ATOM     14  C   UNL d   1      27.037 -13.601  -3.131  0.00  0.00     0.049 A 
BRANCH  12  15
ATOM     15  O   UNL d   1      28.255 -10.081  -3.136  0.00  0.00    -0.353 OA
ATOM     16  C   UNL d   1      29.621 -10.054  -3.541  0.00  0.00     0.210 C 
ENDBRANCH  12  15
BRANCH  13  17
ATOM     17  O   UNL d   1      27.938 -12.300  -4.958  0.00  0.00    -0.353 OA
ATOM     18  C   UNL d   1      27.652 -13.358  -5.856  0.00  0.00     0.210 C 
ENDBRANCH  13  17
ENDBRANCH   1   9
BRANCH   1  19
ATOM     19  C   UNL d   1      24.572 -15.133  -2.155  0.00  0.00     0.161 C 
BRANCH  19  20
ATOM     20  N   UNL d   1      23.820 -16.322  -1.747  0.00  0.00    -0.354 N 
ATOM     21  C   UNL d   1      22.526 -16.265  -1.267  0.00  0.00     0.256 C 
ATOM     22  O   UNL d   1      21.922 -15.194  -1.202  0.00  0.00    -0.268 OA
ATOM     23  H   UNL d   1      24.304 -17.212  -1.695  0.00  0.00     0.162 HD
BRANCH  21  24
ATOM     24  C   UNL d   1      21.862 -17.533  -0.853  0.00  0.00     0.090 A 
ATOM     25  C   UNL d   1      20.576 -17.806  -1.273  0.00  0.00     0.139 A 
ATOM     26  N   UNL d   1      19.906 -18.953  -0.981  0.00  0.00    -0.234 NA
ATOM     27  C   UNL d   1      20.544 -19.871  -0.239  0.00  0.00     0.189 A 
ATOM     28  N   UNL d   1      21.784 -19.712   0.228  0.00  0.00    -0.210 NA
ATOM     29  C   UNL d   1      22.400 -18.553  -0.091  0.00  0.00     0.146 A 
ATOM     30 CL   UNL d   1      23.994 -18.529   0.581  0.00  0.00    -0.061 Cl
BRANCH  27  31
ATOM     31  S   UNL d   1      19.637 -21.298   0.296  0.00  0.00    -0.090 SA
BRANCH  31  32
ATOM     32  C   UNL d   1      18.488 -20.563   1.514  0.00  0.00     0.082 C 
BRANCH  32  33
ATOM     33  C   UNL d   1      19.282 -19.696   2.502  0.00  0.00     0.006 C 
ATOM     34  C   UNL d   1      20.318 -20.509   3.268  0.00  0.00     0.006 C 
ENDBRANCH  32  33
ENDBRANCH  31  32
ENDBRANCH  27  31
ENDBRANCH  21  24
ENDBRANCH  19  20
ENDBRANCH   1  19
TORSDOF 10
ENDMDL
