MODEL 1
REMARK VINA RESULT:   -32.208      0.000      0.000
REMARK INTER + INTRA:         -35.761
REMARK INTER:                 -34.893
REMARK INTRA:                  -0.868
REMARK CONF_INDEPENDENT:        2.685
REMARK UNBOUND:                -0.868
REMARK  9 active torsions:
REMARK  status: ('A' for Active; 'I' for Inactive)
REMARK    1  A    between atoms: C_2  and  O_3 
REMARK    2  A    between atoms: O_3  and  C_4 
REMARK    3  A    between atoms: C_7  and  N_8 
REMARK    4  A    between atoms: C_12  and  S_13 
REMARK    5  A    between atoms: S_13  and  C_14 
REMARK    6  A    between atoms: C_14  and  N_16 
REMARK    7  A    between atoms: N_16  and  N_17 
REMARK    8  A    between atoms: N_17  and  C_18 
REMARK    9  A    between atoms: C_18  and  C_19 
ROOT
ATOM      1  C   UNL d   1      26.929 -17.300   0.002  0.00  0.00     0.155 C 
ATOM      2  N   UNL d   1      27.974 -18.098   0.095  0.00  0.00    -0.379 N 
ATOM      3  H   UNL d   1      28.909 -17.791  -0.140  0.00  0.00     0.158 HD
ATOM      4  H   UNL d   1      27.847 -19.037   0.438  0.00  0.00     0.158 HD
ENDROOT
BRANCH   1   5
ATOM      5  S   UNL d   1      27.367 -15.572  -0.510  0.00  0.00    -0.078 SA
BRANCH   5   6
ATOM      6  C   UNL d   1      26.079 -14.805  -1.759  0.00  0.00     0.157 A 
ATOM      7  C   UNL d   1      25.524 -15.780  -2.788  0.00  0.00     0.129 A 
ATOM      8  C   UNL d   1      25.877 -15.243  -4.163  0.00  0.00     0.232 A 
ATOM      9  N   UNL d   1      26.575 -14.068  -4.008  0.00  0.00    -0.251 N 
ATOM     10  O   UNL d   1      25.604 -15.833  -5.177  0.00  0.00    -0.273 OA
ATOM     11  C   UNL d   1      26.691 -13.705  -2.675  0.00  0.00     0.246 A 
ATOM     12  O   UNL d   1      27.072 -12.621  -2.254  0.00  0.00    -0.271 OA
BRANCH   9  13
ATOM     13  C   UNL d   1      27.068 -13.293  -5.103  0.00  0.00     0.045 A 
ATOM     14  C   UNL d   1      28.212 -13.719  -5.790  0.00  0.00     0.033 A 
ATOM     15  C   UNL d   1      28.773 -12.948  -6.823  0.00  0.00     0.039 A 
ATOM     16  C   UNL d   1      28.191 -11.741  -7.213  0.00  0.00     0.068 A 
ATOM     17  C   UNL d   1      27.028 -11.322  -6.567  0.00  0.00     0.039 A 
ATOM     18  C   UNL d   1      26.459 -12.101  -5.533  0.00  0.00     0.033 A 
BRANCH  16  19
ATOM     19  O   UNL d   1      28.762 -11.117  -8.290  0.00  0.00    -0.352 OA
BRANCH  19  20
ATOM     20  C   UNL d   1      29.248 -11.963  -9.336  0.00  0.00     0.171 C 
ATOM     21  C   UNL d   1      28.062 -12.579 -10.067  0.00  0.00     0.034 C 
ENDBRANCH  19  20
ENDBRANCH  16  19
ENDBRANCH   9  13
ENDBRANCH   5   6
ENDBRANCH   1   5
BRANCH   1  22
ATOM     22  N   UNL d   1      25.581 -17.681   0.262  0.00  0.00    -0.258 N 
ATOM     23  H   UNL d   1      25.307 -17.485   1.223  0.00  0.00     0.191 HD
BRANCH  22  24
ATOM     24  N   UNL d   1      24.312 -18.390  -0.711  0.00  0.00    -0.185 NA
BRANCH  24  25
ATOM     25  C   UNL d   1      23.041 -17.826  -0.678  0.00  0.00     0.148 C 
BRANCH  25  26
ATOM     26  C   UNL d   1      21.555 -18.507  -0.151  0.00  0.00    -0.007 C 
ATOM     27  C   UNL d   1      21.245 -19.325  -1.229  0.00  0.00     0.118 C 
ATOM     28  N   UNL d   1      19.899 -19.030  -1.270  0.00  0.00    -0.281 NA
ATOM     29  C   UNL d   1      19.413 -19.710  -0.194  0.00  0.00     0.019 A 
ATOM     30  H   UNL d   1      19.483 -18.127  -1.422  0.00  0.00     0.128 HD
ATOM     31  C   UNL d   1      18.213 -20.459  -0.219  0.00  0.00     0.024 A 
ATOM     32  C   UNL d   1      20.406 -19.487   0.785  0.00  0.00    -0.005 A 
ATOM     33  C   UNL d   1      17.765 -21.231   0.815  0.00  0.00     0.002 A 
ATOM     34  C   UNL d   1      18.600 -21.194   1.907  0.00  0.00     0.001 A 
ATOM     35  C   UNL d   1      19.885 -20.320   1.959  0.00  0.00     0.014 A 
ENDBRANCH  25  26
ENDBRANCH  24  25
ENDBRANCH  22  24
ENDBRANCH   1  22
TORSDOF 9
ENDMDL
MODEL 2
REMARK VINA RESULT:   -32.082      3.026      3.650
REMARK INTER + INTRA:         -36.217
REMARK INTER:                 -34.767
REMARK INTRA:                  -1.450
REMARK CONF_INDEPENDENT:        2.685
REMARK UNBOUND:                -1.450
REMARK  9 active torsions:
REMARK  status: ('A' for Active; 'I' for Inactive)
REMARK    1  A    between atoms: C_2  and  O_3 
REMARK    2  A    between atoms: O_3  and  C_4 
REMARK    3  A    between atoms: C_7  and  N_8 
REMARK    4  A    between atoms: C_12  and  S_13 
REMARK    5  A    between atoms: S_13  and  C_14 
REMARK    6  A    between atoms: C_14  and  N_16 
REMARK    7  A    between atoms: N_16  and  N_17 
REMARK    8  A    between atoms: N_17  and  C_18 
REMARK    9  A    between atoms: C_18  and  C_19 
ROOT
ATOM      1  C   UNL d   1      26.737 -16.660  -0.716  0.00  0.00     0.155 C 
ATOM      2  N   UNL d   1      28.036 -16.867  -0.639  0.00  0.00    -0.379 N 
ATOM      3  H   UNL d   1      28.710 -16.123  -0.771  0.00  0.00     0.158 HD
ATOM      4  H   UNL d   1      28.376 -17.789  -0.415  0.00  0.00     0.158 HD
ENDROOT
BRANCH   1   5
ATOM      5  S   UNL d   1      26.291 -14.882  -0.998  0.00  0.00    -0.078 SA
BRANCH   5   6
ATOM      6  C   UNL d   1      27.112 -14.143  -2.607  0.00  0.00     0.157 A 
ATOM      7  C   UNL d   1      26.302 -14.329  -3.883  0.00  0.00     0.129 A 
ATOM      8  C   UNL d   1      27.156 -15.124  -4.853  0.00  0.00     0.232 A 
ATOM      9  N   UNL d   1      28.360 -15.404  -4.250  0.00  0.00    -0.251 N 
ATOM     10  O   UNL d   1      26.755 -15.464  -5.937  0.00  0.00    -0.273 OA
ATOM     11  C   UNL d   1      28.451 -14.837  -2.989  0.00  0.00     0.246 A 
ATOM     12  O   UNL d   1      29.468 -14.744  -2.312  0.00  0.00    -0.271 OA
BRANCH   9  13
ATOM     13  C   UNL d   1      29.406 -16.145  -4.881  0.00  0.00     0.045 A 
ATOM     14  C   UNL d   1      29.842 -15.771  -6.159  0.00  0.00     0.033 A 
ATOM     15  C   UNL d   1      30.815 -16.518  -6.846  0.00  0.00     0.039 A 
ATOM     16  C   UNL d   1      31.395 -17.646  -6.264  0.00  0.00     0.068 A 
ATOM     17  C   UNL d   1      31.002 -18.009  -4.976  0.00  0.00     0.039 A 
ATOM     18  C   UNL d   1      30.029 -17.253  -4.281  0.00  0.00     0.033 A 
BRANCH  16  19
ATOM     19  O   UNL d   1      32.398 -18.245  -6.980  0.00  0.00    -0.352 OA
BRANCH  19  20
ATOM     20  C   UNL d   1      32.000 -19.012  -8.120  0.00  0.00     0.171 C 
ATOM     21  C   UNL d   1      30.717 -19.763  -7.790  0.00  0.00     0.034 C 
ENDBRANCH  19  20
ENDBRANCH  16  19
ENDBRANCH   9  13
ENDBRANCH   5   6
ENDBRANCH   1   5
BRANCH   1  22
ATOM     22  N   UNL d   1      25.738 -17.670  -0.598  0.00  0.00    -0.258 N 
ATOM     23  H   UNL d   1      25.990 -18.517  -1.106  0.00  0.00     0.191 HD
BRANCH  22  24
ATOM     24  N   UNL d   1      24.204 -17.767   0.234  0.00  0.00    -0.185 NA
BRANCH  24  25
ATOM     25  C   UNL d   1      23.036 -17.888  -0.511  0.00  0.00     0.148 C 
BRANCH  25  26
ATOM     26  C   UNL d   1      21.521 -18.566  -0.069  0.00  0.00    -0.007 C 
ATOM     27  C   UNL d   1      21.236 -19.326  -1.195  0.00  0.00     0.118 C 
ATOM     28  N   UNL d   1      19.898 -19.004  -1.268  0.00  0.00    -0.281 NA
ATOM     29  C   UNL d   1      19.363 -19.726  -0.243  0.00  0.00     0.019 A 
ATOM     30  H   UNL d   1      19.502 -18.088  -1.391  0.00  0.00     0.128 HD
ATOM     31  C   UNL d   1      18.151 -20.450  -0.347  0.00  0.00     0.024 A 
ATOM     32  C   UNL d   1      20.323 -19.568   0.779  0.00  0.00    -0.005 A 
ATOM     33  C   UNL d   1      17.654 -21.262   0.633  0.00  0.00     0.002 A 
ATOM     34  C   UNL d   1      18.450 -21.292   1.754  0.00  0.00     0.001 A 
ATOM     35  C   UNL d   1      19.747 -20.446   1.892  0.00  0.00     0.014 A 
ENDBRANCH  25  26
ENDBRANCH  24  25
ENDBRANCH  22  24
ENDBRANCH   1  22
TORSDOF 9
ENDMDL
MODEL 3
REMARK VINA RESULT:   -32.058      1.653      1.925
REMARK INTER + INTRA:         -35.520
REMARK INTER:                 -34.743
REMARK INTRA:                  -0.777
REMARK CONF_INDEPENDENT:        2.685
REMARK UNBOUND:                -0.777
REMARK  9 active torsions:
REMARK  status: ('A' for Active; 'I' for Inactive)
REMARK    1  A    between atoms: C_2  and  O_3 
REMARK    2  A    between atoms: O_3  and  C_4 
REMARK    3  A    between atoms: C_7  and  N_8 
REMARK    4  A    between atoms: C_12  and  S_13 
REMARK    5  A    between atoms: S_13  and  C_14 
REMARK    6  A    between atoms: C_14  and  N_16 
REMARK    7  A    between atoms: N_16  and  N_17 
REMARK    8  A    between atoms: N_17  and  C_18 
REMARK    9  A    between atoms: C_18  and  C_19 
ROOT
ATOM      1  C   UNL d   1      26.995 -17.601  -0.053  0.00  0.00     0.155 C 
ATOM      2  N   UNL d   1      28.016 -18.412   0.134  0.00  0.00    -0.379 N 
ATOM      3  H   UNL d   1      28.964 -18.151  -0.108  0.00  0.00     0.158 HD
ATOM      4  H   UNL d   1      27.858 -19.313   0.557  0.00  0.00     0.158 HD
ENDROOT
BRANCH   1   5
ATOM      5  S   UNL d   1      27.488 -15.938  -0.710  0.00  0.00    -0.078 SA
BRANCH   5   6
ATOM      6  C   UNL d   1      25.955 -14.805  -1.128  0.00  0.00     0.157 A 
ATOM      7  C   UNL d   1      25.053 -15.329  -2.236  0.00  0.00     0.129 A 
ATOM      8  C   UNL d   1      25.032 -14.286  -3.338  0.00  0.00     0.232 A 
ATOM      9  N   UNL d   1      25.832 -13.232  -2.959  0.00  0.00    -0.251 N 
ATOM     10  O   UNL d   1      24.433 -14.448  -4.371  0.00  0.00    -0.273 OA
ATOM     11  C   UNL d   1      26.356 -13.410  -1.689  0.00  0.00     0.246 A 
ATOM     12  O   UNL d   1      26.924 -12.558  -1.018  0.00  0.00    -0.271 OA
BRANCH   9  13
ATOM     13  C   UNL d   1      26.043 -12.072  -3.767  0.00  0.00     0.045 A 
ATOM     14  C   UNL d   1      26.245 -12.218  -5.146  0.00  0.00     0.033 A 
ATOM     15  C   UNL d   1      26.530 -11.111  -5.963  0.00  0.00     0.039 A 
ATOM     16  C   UNL d   1      26.599  -9.824  -5.427  0.00  0.00     0.068 A 
ATOM     17  C   UNL d   1      26.359  -9.655  -4.064  0.00  0.00     0.039 A 
ATOM     18  C   UNL d   1      26.064 -10.768  -3.242  0.00  0.00     0.033 A 
BRANCH  16  19
ATOM     19  O   UNL d   1      26.790  -8.807  -6.325  0.00  0.00    -0.352 OA
BRANCH  19  20
ATOM     20  C   UNL d   1      26.768  -9.164  -7.710  0.00  0.00     0.171 C 
ATOM     21  C   UNL d   1      26.690  -7.895  -8.549  0.00  0.00     0.034 C 
ENDBRANCH  19  20
ENDBRANCH  16  19
ENDBRANCH   9  13
ENDBRANCH   5   6
ENDBRANCH   1   5
BRANCH   1  22
ATOM     22  N   UNL d   1      25.633 -17.924   0.210  0.00  0.00    -0.258 N 
ATOM     23  H   UNL d   1      25.392 -17.794   1.192  0.00  0.00     0.191 HD
BRANCH  22  24
ATOM     24  N   UNL d   1      24.301 -18.473  -0.782  0.00  0.00    -0.185 NA
BRANCH  24  25
ATOM     25  C   UNL d   1      23.059 -17.864  -0.644  0.00  0.00     0.148 C 
BRANCH  25  26
ATOM     26  C   UNL d   1      21.562 -18.535  -0.136  0.00  0.00    -0.007 C 
ATOM     27  C   UNL d   1      21.245 -19.327  -1.231  0.00  0.00     0.118 C 
ATOM     28  N   UNL d   1      19.904 -19.013  -1.270  0.00  0.00    -0.281 NA
ATOM     29  C   UNL d   1      19.405 -19.707  -0.209  0.00  0.00     0.019 A 
ATOM     30  H   UNL d   1      19.500 -18.102  -1.406  0.00  0.00     0.128 HD
ATOM     31  C   UNL d   1      18.194 -20.439  -0.253  0.00  0.00     0.024 A 
ATOM     32  C   UNL d   1      20.396 -19.517   0.778  0.00  0.00    -0.005 A 
ATOM     33  C   UNL d   1      17.732 -21.224   0.764  0.00  0.00     0.002 A 
ATOM     34  C   UNL d   1      18.563 -21.219   1.860  0.00  0.00     0.001 A 
ATOM     35  C   UNL d   1      19.859 -20.365   1.933  0.00  0.00     0.014 A 
ENDBRANCH  25  26
ENDBRANCH  24  25
ENDBRANCH  22  24
ENDBRANCH   1  22
TORSDOF 9
ENDMDL
MODEL 4
REMARK VINA RESULT:   -31.835      2.188      2.631
REMARK INTER + INTRA:         -35.400
REMARK INTER:                 -34.520
REMARK INTRA:                  -0.880
REMARK CONF_INDEPENDENT:        2.685
REMARK UNBOUND:                -0.880
REMARK  9 active torsions:
REMARK  status: ('A' for Active; 'I' for Inactive)
REMARK    1  A    between atoms: C_2  and  O_3 
REMARK    2  A    between atoms: O_3  and  C_4 
REMARK    3  A    between atoms: C_7  and  N_8 
REMARK    4  A    between atoms: C_12  and  S_13 
REMARK    5  A    between atoms: S_13  and  C_14 
REMARK    6  A    between atoms: C_14  and  N_16 
REMARK    7  A    between atoms: N_16  and  N_17 
REMARK    8  A    between atoms: N_17  and  C_18 
REMARK    9  A    between atoms: C_18  and  C_19 
ROOT
ATOM      1  C   UNL d   1      26.729 -16.535   0.018  0.00  0.00     0.155 C 
ATOM      2  N   UNL d   1      27.687 -17.257   0.562  0.00  0.00    -0.379 N 
ATOM      3  H   UNL d   1      28.533 -16.842   0.931  0.00  0.00     0.158 HD
ATOM      4  H   UNL d   1      27.567 -18.255   0.642  0.00  0.00     0.158 HD
ENDROOT
BRANCH   1   5
ATOM      5  S   UNL d   1      27.058 -14.711   0.082  0.00  0.00    -0.078 SA
BRANCH   5   6
ATOM      6  C   UNL d   1      26.860 -13.845  -1.655  0.00  0.00     0.157 A 
ATOM      7  C   UNL d   1      25.682 -14.336  -2.486  0.00  0.00     0.129 A 
ATOM      8  C   UNL d   1      26.239 -14.886  -3.786  0.00  0.00     0.232 A 
ATOM      9  N   UNL d   1      27.608 -14.754  -3.767  0.00  0.00    -0.251 N 
ATOM     10  O   UNL d   1      25.539 -15.389  -4.628  0.00  0.00    -0.273 OA
ATOM     11  C   UNL d   1      28.051 -14.119  -2.618  0.00  0.00     0.246 A 
ATOM     12  O   UNL d   1      29.180 -13.685  -2.424  0.00  0.00    -0.271 OA
BRANCH   9  13
ATOM     13  C   UNL d   1      28.457 -15.175  -4.837  0.00  0.00     0.045 A 
ATOM     14  C   UNL d   1      29.358 -16.228  -4.630  0.00  0.00     0.033 A 
ATOM     15  C   UNL d   1      30.261 -16.623  -5.632  0.00  0.00     0.039 A 
ATOM     16  C   UNL d   1      30.272 -15.992  -6.876  0.00  0.00     0.068 A 
ATOM     17  C   UNL d   1      29.354 -14.970  -7.114  0.00  0.00     0.039 A 
ATOM     18  C   UNL d   1      28.439 -14.577  -6.109  0.00  0.00     0.033 A 
BRANCH  16  19
ATOM     19  O   UNL d   1      31.126 -16.516  -7.810  0.00  0.00    -0.352 OA
BRANCH  19  20
ATOM     20  C   UNL d   1      32.330 -15.784  -8.058  0.00  0.00     0.171 C 
ATOM     21  C   UNL d   1      33.442 -16.348  -7.183  0.00  0.00     0.034 C 
ENDBRANCH  19  20
ENDBRANCH  16  19
ENDBRANCH   9  13
ENDBRANCH   5   6
ENDBRANCH   1   5
BRANCH   1  22
ATOM     22  N   UNL d   1      25.542 -17.058  -0.571  0.00  0.00    -0.258 N 
ATOM     23  H   UNL d   1      25.476 -16.833  -1.563  0.00  0.00     0.191 HD
BRANCH  22  24
ATOM     24  N   UNL d   1      24.202 -18.004   0.035  0.00  0.00    -0.185 NA
BRANCH  24  25
ATOM     25  C   UNL d   1      22.931 -17.791  -0.488  0.00  0.00     0.148 C 
BRANCH  25  26
ATOM     26  C   UNL d   1      21.434 -18.511  -0.053  0.00  0.00    -0.007 C 
ATOM     27  C   UNL d   1      21.197 -19.310  -1.163  0.00  0.00     0.118 C 
ATOM     28  N   UNL d   1      19.849 -19.040  -1.268  0.00  0.00    -0.281 NA
ATOM     29  C   UNL d   1      19.322 -19.752  -0.233  0.00  0.00     0.019 A 
ATOM     30  H   UNL d   1      19.423 -18.142  -1.422  0.00  0.00     0.128 HD
ATOM     31  C   UNL d   1      18.139 -20.523  -0.337  0.00  0.00     0.024 A 
ATOM     32  C   UNL d   1      20.257 -19.532   0.801  0.00  0.00    -0.005 A 
ATOM     33  C   UNL d   1      17.654 -21.325   0.656  0.00  0.00     0.002 A 
ATOM     34  C   UNL d   1      18.430 -21.296   1.791  0.00  0.00     0.001 A 
ATOM     35  C   UNL d   1      19.692 -20.401   1.928  0.00  0.00     0.014 A 
ENDBRANCH  25  26
ENDBRANCH  24  25
ENDBRANCH  22  24
ENDBRANCH   1  22
TORSDOF 9
ENDMDL
MODEL 5
REMARK VINA RESULT:   -31.819      2.516      3.493
REMARK INTER + INTRA:         -35.910
REMARK INTER:                 -34.504
REMARK INTRA:                  -1.406
REMARK CONF_INDEPENDENT:        2.685
REMARK UNBOUND:                -1.406
REMARK  9 active torsions:
REMARK  status: ('A' for Active; 'I' for Inactive)
REMARK    1  A    between atoms: C_2  and  O_3 
REMARK    2  A    between atoms: O_3  and  C_4 
REMARK    3  A    between atoms: C_7  and  N_8 
REMARK    4  A    between atoms: C_12  and  S_13 
REMARK    5  A    between atoms: S_13  and  C_14 
REMARK    6  A    between atoms: C_14  and  N_16 
REMARK    7  A    between atoms: N_16  and  N_17 
REMARK    8  A    between atoms: N_17  and  C_18 
REMARK    9  A    between atoms: C_18  and  C_19 
ROOT
ATOM      1  C   UNL d   1      26.166 -16.475  -1.643  0.00  0.00     0.155 C 
ATOM      2  N   UNL d   1      26.575 -17.436  -0.840  0.00  0.00    -0.379 N 
ATOM      3  H   UNL d   1      27.536 -17.753  -0.823  0.00  0.00     0.158 HD
ATOM      4  H   UNL d   1      25.919 -17.854  -0.198  0.00  0.00     0.158 HD
ENDROOT
BRANCH   1   5
ATOM      5  S   UNL d   1      27.533 -15.727  -2.649  0.00  0.00    -0.078 SA
BRANCH   5   6
ATOM      6  C   UNL d   1      26.921 -15.063  -4.379  0.00  0.00     0.157 A 
ATOM      7  C   UNL d   1      28.026 -14.589  -5.312  0.00  0.00     0.129 A 
ATOM      8  C   UNL d   1      27.764 -13.128  -5.625  0.00  0.00     0.232 A 
ATOM      9  N   UNL d   1      26.624 -12.736  -4.961  0.00  0.00    -0.251 N 
ATOM     10  O   UNL d   1      28.506 -12.470  -6.309  0.00  0.00    -0.273 OA
ATOM     11  C   UNL d   1      26.040 -13.785  -4.270  0.00  0.00     0.246 A 
ATOM     12  O   UNL d   1      24.924 -13.784  -3.768  0.00  0.00    -0.271 OA
BRANCH   9  13
ATOM     13  C   UNL d   1      26.087 -11.413  -5.031  0.00  0.00     0.045 A 
ATOM     14  C   UNL d   1      25.988 -10.772  -6.273  0.00  0.00     0.033 A 
ATOM     15  C   UNL d   1      25.536  -9.445  -6.375  0.00  0.00     0.039 A 
ATOM     16  C   UNL d   1      25.147  -8.731  -5.241  0.00  0.00     0.068 A 
ATOM     17  C   UNL d   1      25.199  -9.368  -4.002  0.00  0.00     0.039 A 
ATOM     18  C   UNL d   1      25.646 -10.706  -3.898  0.00  0.00     0.033 A 
BRANCH  16  19
ATOM     19  O   UNL d   1      24.634  -7.480  -5.463  0.00  0.00    -0.352 OA
BRANCH  19  20
ATOM     20  C   UNL d   1      23.226  -7.323  -5.268  0.00  0.00     0.171 C 
ATOM     21  C   UNL d   1      22.835  -5.890  -5.607  0.00  0.00     0.034 C 
ENDBRANCH  19  20
ENDBRANCH  16  19
ENDBRANCH   9  13
ENDBRANCH   5   6
ENDBRANCH   1   5
BRANCH   1  22
ATOM     22  N   UNL d   1      24.821 -16.020  -1.758  0.00  0.00    -0.258 N 
ATOM     23  H   UNL d   1      24.715 -15.324  -2.495  0.00  0.00     0.191 HD
BRANCH  22  24
ATOM     24  N   UNL d   1      23.333 -16.407  -0.925  0.00  0.00    -0.185 NA
BRANCH  24  25
ATOM     25  C   UNL d   1      22.993 -17.742  -0.733  0.00  0.00     0.148 C 
BRANCH  25  26
ATOM     26  C   UNL d   1      21.520 -18.426  -0.174  0.00  0.00    -0.007 C 
ATOM     27  C   UNL d   1      21.249 -19.331  -1.192  0.00  0.00     0.118 C 
ATOM     28  N   UNL d   1      19.897 -19.081  -1.270  0.00  0.00    -0.281 NA
ATOM     29  C   UNL d   1      19.416 -19.693  -0.152  0.00  0.00     0.019 A 
ATOM     30  H   UNL d   1      19.456 -18.205  -1.494  0.00  0.00     0.128 HD
ATOM     31  C   UNL d   1      18.238 -20.478  -0.135  0.00  0.00     0.024 A 
ATOM     32  C   UNL d   1      20.387 -19.368   0.819  0.00  0.00    -0.005 A 
ATOM     33  C   UNL d   1      17.798 -21.183   0.948  0.00  0.00     0.002 A 
ATOM     34  C   UNL d   1      18.616 -21.040   2.045  0.00  0.00     0.001 A 
ATOM     35  C   UNL d   1      19.874 -20.127   2.046  0.00  0.00     0.014 A 
ENDBRANCH  25  26
ENDBRANCH  24  25
ENDBRANCH  22  24
ENDBRANCH   1  22
TORSDOF 9
ENDMDL
MODEL 6
REMARK VINA RESULT:   -31.729      4.967      8.073
REMARK INTER + INTRA:         -35.853
REMARK INTER:                 -34.413
REMARK INTRA:                  -1.440
REMARK CONF_INDEPENDENT:        2.685
REMARK UNBOUND:                -1.440
REMARK  9 active torsions:
REMARK  status: ('A' for Active; 'I' for Inactive)
REMARK    1  A    between atoms: C_2  and  O_3 
REMARK    2  A    between atoms: O_3  and  C_4 
REMARK    3  A    between atoms: C_7  and  N_8 
REMARK    4  A    between atoms: C_12  and  S_13 
REMARK    5  A    between atoms: S_13  and  C_14 
REMARK    6  A    between atoms: C_14  and  N_16 
REMARK    7  A    between atoms: N_16  and  N_17 
REMARK    8  A    between atoms: N_17  and  C_18 
REMARK    9  A    between atoms: C_18  and  C_19 
ROOT
ATOM      1  C   UNL d   1      26.266 -17.373  -0.015  0.00  0.00     0.155 C 
ATOM      2  N   UNL d   1      26.091 -18.598   0.436  0.00  0.00    -0.379 N 
ATOM      3  H   UNL d   1      26.845 -19.272   0.473  0.00  0.00     0.158 HD
ATOM      4  H   UNL d   1      25.185 -18.871   0.783  0.00  0.00     0.158 HD
ENDROOT
BRANCH   1   5
ATOM      5  S   UNL d   1      28.024 -17.004  -0.479  0.00  0.00    -0.078 SA
BRANCH   5   6
ATOM      6  C   UNL d   1      28.578 -15.204   0.031  0.00  0.00     0.157 A 
ATOM      7  C   UNL d   1      30.061 -15.053   0.341  0.00  0.00     0.129 A 
ATOM      8  C   UNL d   1      30.179 -14.566   1.774  0.00  0.00     0.232 A 
ATOM      9  N   UNL d   1      28.914 -14.429   2.296  0.00  0.00    -0.251 N 
ATOM     10  O   UNL d   1      31.243 -14.399   2.314  0.00  0.00    -0.273 OA
ATOM     11  C   UNL d   1      27.933 -14.715   1.360  0.00  0.00     0.246 A 
ATOM     12  O   UNL d   1      26.737 -14.482   1.475  0.00  0.00    -0.271 OA
BRANCH   9  13
ATOM     13  C   UNL d   1      28.654 -13.990   3.631  0.00  0.00     0.045 A 
ATOM     14  C   UNL d   1      27.990 -12.775   3.841  0.00  0.00     0.033 A 
ATOM     15  C   UNL d   1      27.782 -12.271   5.137  0.00  0.00     0.039 A 
ATOM     16  C   UNL d   1      28.212 -12.980   6.259  0.00  0.00     0.068 A 
ATOM     17  C   UNL d   1      28.838 -14.212   6.070  0.00  0.00     0.039 A 
ATOM     18  C   UNL d   1      29.040 -14.724   4.767  0.00  0.00     0.033 A 
BRANCH  16  19
ATOM     19  O   UNL d   1      27.876 -12.446   7.475  0.00  0.00    -0.352 OA
BRANCH  19  20
ATOM     20  C   UNL d   1      28.917 -11.767   8.184  0.00  0.00     0.171 C 
ATOM     21  C   UNL d   1      28.687 -11.934   9.681  0.00  0.00     0.034 C 
ENDBRANCH  19  20
ENDBRANCH  16  19
ENDBRANCH   9  13
ENDBRANCH   5   6
ENDBRANCH   1   5
BRANCH   1  22
ATOM     22  N   UNL d   1      25.239 -16.394  -0.148  0.00  0.00    -0.258 N 
ATOM     23  H   UNL d   1      25.590 -15.449   0.006  0.00  0.00     0.191 HD
BRANCH  22  24
ATOM     24  N   UNL d   1      23.534 -16.468  -0.529  0.00  0.00    -0.185 NA
BRANCH  24  25
ATOM     25  C   UNL d   1      22.961 -17.698  -0.831  0.00  0.00     0.148 C 
BRANCH  25  26
ATOM     26  C   UNL d   1      21.521 -18.413  -0.226  0.00  0.00    -0.007 C 
ATOM     27  C   UNL d   1      21.232 -19.316  -1.240  0.00  0.00     0.118 C 
ATOM     28  N   UNL d   1      19.873 -19.090  -1.270  0.00  0.00    -0.281 NA
ATOM     29  C   UNL d   1      19.442 -19.718  -0.139  0.00  0.00     0.019 A 
ATOM     30  H   UNL d   1      19.409 -18.221  -1.472  0.00  0.00     0.128 HD
ATOM     31  C   UNL d   1      18.280 -20.524  -0.087  0.00  0.00     0.024 A 
ATOM     32  C   UNL d   1      20.441 -19.381   0.800  0.00  0.00    -0.005 A 
ATOM     33  C   UNL d   1      17.892 -21.244   1.006  0.00  0.00     0.002 A 
ATOM     34  C   UNL d   1      18.744 -21.092   2.074  0.00  0.00     0.001 A 
ATOM     35  C   UNL d   1      19.984 -20.156   2.038  0.00  0.00     0.014 A 
ENDBRANCH  25  26
ENDBRANCH  24  25
ENDBRANCH  22  24
ENDBRANCH   1  22
TORSDOF 9
ENDMDL
MODEL 7
REMARK VINA RESULT:   -30.974      3.706      6.814
REMARK INTER + INTRA:         -34.582
REMARK INTER:                 -33.659
REMARK INTRA:                  -0.923
REMARK CONF_INDEPENDENT:        2.685
REMARK UNBOUND:                -0.923
REMARK  9 active torsions:
REMARK  status: ('A' for Active; 'I' for Inactive)
REMARK    1  A    between atoms: C_2  and  O_3 
REMARK    2  A    between atoms: O_3  and  C_4 
REMARK    3  A    between atoms: C_7  and  N_8 
REMARK    4  A    between atoms: C_12  and  S_13 
REMARK    5  A    between atoms: S_13  and  C_14 
REMARK    6  A    between atoms: C_14  and  N_16 
REMARK    7  A    between atoms: N_16  and  N_17 
REMARK    8  A    between atoms: N_17  and  C_18 
REMARK    9  A    between atoms: C_18  and  C_19 
ROOT
ATOM      1  C   UNL d   1      25.218 -15.161  -2.917  0.00  0.00     0.155 C 
ATOM      2  N   UNL d   1      24.508 -14.139  -3.351  0.00  0.00    -0.379 N 
ATOM      3  H   UNL d   1      24.922 -13.382  -3.880  0.00  0.00     0.158 HD
ATOM      4  H   UNL d   1      23.516 -14.120  -3.179  0.00  0.00     0.158 HD
ENDROOT
BRANCH   1   5
ATOM      5  S   UNL d   1      26.995 -15.099  -3.445  0.00  0.00    -0.078 SA
BRANCH   5   6
ATOM      6  C   UNL d   1      28.213 -15.779  -2.080  0.00  0.00     0.157 A 
ATOM      7  C   UNL d   1      27.677 -16.950  -1.269  0.00  0.00     0.129 A 
ATOM      8  C   UNL d   1      27.657 -16.524   0.188  0.00  0.00     0.232 A 
ATOM      9  N   UNL d   1      28.125 -15.234   0.273  0.00  0.00    -0.251 N 
ATOM     10  O   UNL d   1      27.235 -17.236   1.064  0.00  0.00    -0.273 OA
ATOM     11  C   UNL d   1      28.521 -14.743  -0.961  0.00  0.00     0.246 A 
ATOM     12  O   UNL d   1      29.161 -13.718  -1.157  0.00  0.00    -0.271 OA
BRANCH   9  13
ATOM     13  C   UNL d   1      28.237 -14.515   1.504  0.00  0.00     0.045 A 
ATOM     14  C   UNL d   1      29.487 -14.407   2.129  0.00  0.00     0.033 A 
ATOM     15  C   UNL d   1      29.626 -13.773   3.376  0.00  0.00     0.039 A 
ATOM     16  C   UNL d   1      28.525 -13.211   4.021  0.00  0.00     0.068 A 
ATOM     17  C   UNL d   1      27.281 -13.273   3.394  0.00  0.00     0.039 A 
ATOM     18  C   UNL d   1      27.140 -13.903   2.135  0.00  0.00     0.033 A 
BRANCH  16  19
ATOM     19  O   UNL d   1      28.787 -12.537   5.185  0.00  0.00    -0.352 OA
BRANCH  19  20
ATOM     20  C   UNL d   1      28.056 -12.952   6.343  0.00  0.00     0.171 C 
ATOM     21  C   UNL d   1      28.963 -13.805   7.221  0.00  0.00     0.034 C 
ENDBRANCH  19  20
ENDBRANCH  16  19
ENDBRANCH   9  13
ENDBRANCH   5   6
ENDBRANCH   1   5
BRANCH   1  22
ATOM     22  N   UNL d   1      24.713 -16.230  -2.121  0.00  0.00    -0.258 N 
ATOM     23  H   UNL d   1      25.394 -16.980  -2.013  0.00  0.00     0.191 HD
BRANCH  22  24
ATOM     24  N   UNL d   1      23.201 -16.515  -1.290  0.00  0.00    -0.185 NA
BRANCH  24  25
ATOM     25  C   UNL d   1      22.990 -17.743  -0.673  0.00  0.00     0.148 C 
BRANCH  25  26
ATOM     26  C   UNL d   1      21.523 -18.463  -0.143  0.00  0.00    -0.007 C 
ATOM     27  C   UNL d   1      21.259 -19.325  -1.199  0.00  0.00     0.118 C 
ATOM     28  N   UNL d   1      19.904 -19.082  -1.265  0.00  0.00    -0.281 NA
ATOM     29  C   UNL d   1      19.429 -19.747  -0.174  0.00  0.00     0.019 A 
ATOM     30  H   UNL d   1      19.456 -18.201  -1.450  0.00  0.00     0.128 HD
ATOM     31  C   UNL d   1      18.258 -20.541  -0.191  0.00  0.00     0.024 A 
ATOM     32  C   UNL d   1      20.399 -19.457   0.809  0.00  0.00    -0.005 A 
ATOM     33  C   UNL d   1      17.825 -21.297   0.860  0.00  0.00     0.002 A 
ATOM     34  C   UNL d   1      18.643 -21.195   1.961  0.00  0.00     0.001 A 
ATOM     35  C   UNL d   1      19.894 -20.273   2.002  0.00  0.00     0.014 A 
ENDBRANCH  25  26
ENDBRANCH  24  25
ENDBRANCH  22  24
ENDBRANCH   1  22
TORSDOF 9
ENDMDL
MODEL 8
REMARK VINA RESULT:   -30.333      2.051      3.001
REMARK INTER + INTRA:         -34.416
REMARK INTER:                 -33.018
REMARK INTRA:                  -1.398
REMARK CONF_INDEPENDENT:        2.685
REMARK UNBOUND:                -1.398
REMARK  9 active torsions:
REMARK  status: ('A' for Active; 'I' for Inactive)
REMARK    1  A    between atoms: C_2  and  O_3 
REMARK    2  A    between atoms: O_3  and  C_4 
REMARK    3  A    between atoms: C_7  and  N_8 
REMARK    4  A    between atoms: C_12  and  S_13 
REMARK    5  A    between atoms: S_13  and  C_14 
REMARK    6  A    between atoms: C_14  and  N_16 
REMARK    7  A    between atoms: N_16  and  N_17 
REMARK    8  A    between atoms: N_17  and  C_18 
REMARK    9  A    between atoms: C_18  and  C_19 
ROOT
ATOM      1  C   UNL d   1      26.385 -17.531   0.323  0.00  0.00     0.155 C 
ATOM      2  N   UNL d   1      26.156 -18.454   1.234  0.00  0.00    -0.379 N 
ATOM      3  H   UNL d   1      26.893 -19.041   1.604  0.00  0.00     0.158 HD
ATOM      4  H   UNL d   1      25.224 -18.564   1.600  0.00  0.00     0.158 HD
ENDROOT
BRANCH   1   5
ATOM      5  S   UNL d   1      28.177 -17.373  -0.130  0.00  0.00    -0.078 SA
BRANCH   5   6
ATOM      6  C   UNL d   1      28.449 -17.032  -2.032  0.00  0.00     0.157 A 
ATOM      7  C   UNL d   1      29.799 -16.428  -2.389  0.00  0.00     0.129 A 
ATOM      8  C   UNL d   1      29.538 -15.095  -3.067  0.00  0.00     0.232 A 
ATOM      9  N   UNL d   1      28.179 -14.892  -3.125  0.00  0.00    -0.251 N 
ATOM     10  O   UNL d   1      30.428 -14.365  -3.422  0.00  0.00    -0.273 OA
ATOM     11  C   UNL d   1      27.472 -15.968  -2.612  0.00  0.00     0.246 A 
ATOM     12  O   UNL d   1      26.267 -16.157  -2.720  0.00  0.00    -0.271 OA
BRANCH   9  13
ATOM     13  C   UNL d   1      27.578 -13.730  -3.700  0.00  0.00     0.045 A 
ATOM     14  C   UNL d   1      26.272 -13.376  -3.336  0.00  0.00     0.033 A 
ATOM     15  C   UNL d   1      25.619 -12.284  -3.933  0.00  0.00     0.039 A 
ATOM     16  C   UNL d   1      26.261 -11.502  -4.894  0.00  0.00     0.068 A 
ATOM     17  C   UNL d   1      27.576 -11.815  -5.237  0.00  0.00     0.039 A 
ATOM     18  C   UNL d   1      28.238 -12.909  -4.631  0.00  0.00     0.033 A 
BRANCH  16  19
ATOM     19  O   UNL d   1      25.569 -10.409  -5.343  0.00  0.00    -0.352 OA
BRANCH  19  20
ATOM     20  C   UNL d   1      25.976  -9.138  -4.826  0.00  0.00     0.171 C 
ATOM     21  C   UNL d   1      25.555  -9.039  -3.366  0.00  0.00     0.034 C 
ENDBRANCH  19  20
ENDBRANCH  16  19
ENDBRANCH   9  13
ENDBRANCH   5   6
ENDBRANCH   1   5
BRANCH   1  22
ATOM     22  N   UNL d   1      25.389 -16.710  -0.281  0.00  0.00    -0.258 N 
ATOM     23  H   UNL d   1      25.797 -15.980  -0.863  0.00  0.00     0.191 HD
BRANCH  22  24
ATOM     24  N   UNL d   1      23.640 -16.702  -0.249  0.00  0.00    -0.185 NA
BRANCH  24  25
ATOM     25  C   UNL d   1      22.950 -17.813  -0.720  0.00  0.00     0.148 C 
BRANCH  25  26
ATOM     26  C   UNL d   1      21.472 -18.497  -0.172  0.00  0.00    -0.007 C 
ATOM     27  C   UNL d   1      21.156 -19.325  -1.240  0.00  0.00     0.118 C 
ATOM     28  N   UNL d   1      19.809 -19.037  -1.270  0.00  0.00    -0.281 NA
ATOM     29  C   UNL d   1      19.337 -19.710  -0.183  0.00  0.00     0.019 A 
ATOM     30  H   UNL d   1      19.386 -18.137  -1.425  0.00  0.00     0.128 HD
ATOM     31  C   UNL d   1      18.139 -20.465  -0.190  0.00  0.00     0.024 A 
ATOM     32  C   UNL d   1      20.338 -19.474   0.784  0.00  0.00    -0.005 A 
ATOM     33  C   UNL d   1      17.706 -21.230   0.855  0.00  0.00     0.002 A 
ATOM     34  C   UNL d   1      18.551 -21.179   1.938  0.00  0.00     0.001 A 
ATOM     35  C   UNL d   1      19.832 -20.300   1.970  0.00  0.00     0.014 A 
ENDBRANCH  25  26
ENDBRANCH  24  25
ENDBRANCH  22  24
ENDBRANCH   1  22
TORSDOF 9
ENDMDL
