MODEL 1
REMARK VINA RESULT:    -8.849      0.000      0.000
REMARK INTER + INTRA:         -14.079
REMARK INTER:                 -11.534
REMARK INTRA:                  -2.544
REMARK CONF_INDEPENDENT:        2.685
REMARK UNBOUND:                -2.544
REMARK  9 active torsions:
REMARK  status: ('A' for Active; 'I' for Inactive)
REMARK    1  A    between atoms: C_2  and  C_4 
REMARK    2  A    between atoms: C_7  and  N_8 
REMARK       I    between atoms: N_8  and  C_9 
REMARK    3  A    between atoms: C_9  and  C_11 
REMARK       I    between atoms: C_11  and  N_13 
REMARK    4  A    between atoms: N_13  and  N_14 
REMARK    5  A    between atoms: C_15  and  C_16 
REMARK    6  A    between atoms: C_19  and  O_20 
REMARK    7  A    between atoms: O_20  and  C_21 
REMARK    8  A    between atoms: C_21  and  C_22 
REMARK       I    between atoms: C_22  and  N_24 
REMARK    9  A    between atoms: N_24  and  C_25 
ROOT
ATOM      1  C   UNL d   1      26.830 -15.125  -0.050  0.00  0.00    -0.017 A 
ATOM      2  C   UNL d   1      26.944 -13.906  -0.729  0.00  0.00     0.015 A 
ATOM      3  C   UNL d   1      26.201 -13.696  -1.914  0.00  0.00     0.037 A 
ATOM      4  C   UNL d   1      25.387 -14.709  -2.449  0.00  0.00     0.069 A 
ATOM      5  C   UNL d   1      25.258 -15.899  -1.743  0.00  0.00     0.037 A 
ATOM      6  C   UNL d   1      25.973 -16.104  -0.557  0.00  0.00     0.015 A 
ENDROOT
BRANCH   1   7
ATOM      7  C   UNL d   1      27.577 -15.442   1.205  0.00  0.00     0.150 C 
ATOM      8  N   UNL d   1      27.640 -14.553   2.149  0.00  0.00    -0.183 NA
BRANCH   8   9
ATOM      9  N   UNL d   1      28.348 -14.822   3.294  0.00  0.00    -0.239 N 
ATOM     10  C   UNL d   1      28.035 -14.157   4.489  0.00  0.00     0.329 C 
ATOM     11  O   UNL d   1      27.151 -13.315   4.671  0.00  0.00    -0.261 OA
ATOM     12  H   UNL d   1      29.117 -15.494   3.295  0.00  0.00     0.192 HD
BRANCH  10  13
ATOM     13  C   UNL d   1      28.924 -14.563   5.676  0.00  0.00     0.315 C 
ATOM     14  N   UNL d   1      28.670 -13.931   6.903  0.00  0.00    -0.319 N 
ATOM     15  H   UNL d   1      27.938 -13.222   6.910  0.00  0.00     0.169 HD
ATOM     16  O   UNL d   1      29.786 -15.405   5.424  0.00  0.00    -0.262 OA
BRANCH  14  17
ATOM     17  C   UNL d   1      29.419 -14.131   8.099  0.00  0.00     0.035 A 
ATOM     18  C   UNL d   1      30.822 -14.077   8.107  0.00  0.00     0.030 A 
ATOM     19  C   UNL d   1      31.549 -14.426   9.268  0.00  0.00     0.010 A 
ATOM     20  C   UNL d   1      30.890 -14.756  10.464  0.00  0.00    -0.055 A 
ATOM     21  C   UNL d   1      29.497 -14.715  10.460  0.00  0.00     0.010 A 
ATOM     22  C   UNL d   1      28.785 -14.424   9.303  0.00  0.00     0.030 A 
BRANCH  20  23
ATOM     23  C   UNL d   1      31.571 -15.136  11.768  0.00  0.00     0.010 C 
ATOM     24  C   UNL d   1      31.157 -16.554  12.196  0.00  0.00     0.015 C 
ATOM     25  C   UNL d   1      33.094 -15.043  11.726  0.00  0.00     0.015 C 
ENDBRANCH  20  23
ENDBRANCH  14  17
ENDBRANCH  10  13
ENDBRANCH   8   9
ENDBRANCH   1   7
BRANCH   4  26
ATOM     26  O   UNL d   1      24.782 -14.450  -3.649  0.00  0.00    -0.342 OA
BRANCH  26  27
ATOM     27  C   UNL d   1      25.530 -13.758  -4.669  0.00  0.00     0.278 C 
BRANCH  27  28
ATOM     28  C   UNL d   1      26.600 -14.703  -5.239  0.00  0.00     0.246 C 
ATOM     29  O   UNL d   1      26.282 -15.777  -5.753  0.00  0.00    -0.271 OA
ATOM     30  N   UNL d   1      27.936 -14.292  -5.113  0.00  0.00    -0.325 N 
ATOM     31  H   UNL d   1      28.189 -13.531  -4.494  0.00  0.00     0.169 HD
BRANCH  30  32
ATOM     32  C   UNL d   1      28.984 -15.076  -5.670  0.00  0.00     0.036 A 
ATOM     33  C   UNL d   1      29.727 -14.653  -6.778  0.00  0.00     0.029 A 
ATOM     34  C   UNL d   1      30.781 -15.452  -7.261  0.00  0.00     0.004 A 
ATOM     35  C   UNL d   1      31.098 -16.660  -6.634  0.00  0.00     0.024 A 
ATOM     36  C   UNL d   1      30.329 -17.095  -5.564  0.00  0.00     0.036 A 
ATOM     37 CL   UNL d   1      30.648 -18.614  -4.822  0.00  0.00    -0.084 Cl
ATOM     38  C   UNL d   1      29.279 -16.316  -5.093  0.00  0.00     0.053 A 
ENDBRANCH  30  32
ENDBRANCH  27  28
ENDBRANCH  26  27
ENDBRANCH   4  26
TORSDOF 9
ENDMDL
MODEL 2
REMARK VINA RESULT:    -8.359      2.777      3.908
REMARK INTER + INTRA:         -14.001
REMARK INTER:                 -11.044
REMARK INTRA:                  -2.957
REMARK CONF_INDEPENDENT:        2.685
REMARK UNBOUND:                -2.957
REMARK  9 active torsions:
REMARK  status: ('A' for Active; 'I' for Inactive)
REMARK    1  A    between atoms: C_2  and  C_4 
REMARK    2  A    between atoms: C_7  and  N_8 
REMARK       I    between atoms: N_8  and  C_9 
REMARK    3  A    between atoms: C_9  and  C_11 
REMARK       I    between atoms: C_11  and  N_13 
REMARK    4  A    between atoms: N_13  and  N_14 
REMARK    5  A    between atoms: C_15  and  C_16 
REMARK    6  A    between atoms: C_19  and  O_20 
REMARK    7  A    between atoms: O_20  and  C_21 
REMARK    8  A    between atoms: C_21  and  C_22 
REMARK       I    between atoms: C_22  and  N_24 
REMARK    9  A    between atoms: N_24  and  C_25 
ROOT
ATOM      1  C   UNL d   1      28.242 -13.541  -0.381  0.00  0.00    -0.017 A 
ATOM      2  C   UNL d   1      28.709 -14.142  -1.556  0.00  0.00     0.015 A 
ATOM      3  C   UNL d   1      28.146 -13.775  -2.799  0.00  0.00     0.037 A 
ATOM      4  C   UNL d   1      27.089 -12.851  -2.872  0.00  0.00     0.069 A 
ATOM      5  C   UNL d   1      26.662 -12.238  -1.700  0.00  0.00     0.037 A 
ATOM      6  C   UNL d   1      27.233 -12.580  -0.469  0.00  0.00     0.015 A 
ENDROOT
BRANCH   1   7
ATOM      7  C   UNL d   1      28.771 -13.867   0.978  0.00  0.00     0.150 C 
ATOM      8  N   UNL d   1      27.997 -14.460   1.836  0.00  0.00    -0.183 NA
BRANCH   8   9
ATOM      9  N   UNL d   1      28.463 -14.738   3.097  0.00  0.00    -0.239 N 
ATOM     10  C   UNL d   1      28.204 -13.852   4.154  0.00  0.00     0.329 C 
ATOM     11  O   UNL d   1      27.571 -12.794   4.110  0.00  0.00    -0.261 OA
ATOM     12  H   UNL d   1      29.012 -15.578   3.285  0.00  0.00     0.192 HD
BRANCH  10  13
ATOM     13  C   UNL d   1      28.801 -14.300   5.498  0.00  0.00     0.315 C 
ATOM     14  N   UNL d   1      28.746 -13.379   6.555  0.00  0.00    -0.319 N 
ATOM     15  H   UNL d   1      28.347 -12.465   6.345  0.00  0.00     0.169 HD
ATOM     16  O   UNL d   1      29.281 -15.434   5.509  0.00  0.00    -0.262 OA
BRANCH  14  17
ATOM     17  C   UNL d   1      29.292 -13.587   7.855  0.00  0.00     0.035 A 
ATOM     18  C   UNL d   1      30.616 -14.017   8.036  0.00  0.00     0.030 A 
ATOM     19  C   UNL d   1      31.091 -14.361   9.323  0.00  0.00     0.010 A 
ATOM     20  C   UNL d   1      30.281 -14.206  10.460  0.00  0.00    -0.055 A 
ATOM     21  C   UNL d   1      29.000 -13.692  10.269  0.00  0.00     0.010 A 
ATOM     22  C   UNL d   1      28.518 -13.405   8.997  0.00  0.00     0.030 A 
BRANCH  20  23
ATOM     23  C   UNL d   1      30.692 -14.536  11.885  0.00  0.00     0.010 C 
ATOM     24  C   UNL d   1      30.464 -16.029  12.178  0.00  0.00     0.015 C 
ATOM     25  C   UNL d   1      32.136 -14.169  12.218  0.00  0.00     0.015 C 
ENDBRANCH  20  23
ENDBRANCH  14  17
ENDBRANCH  10  13
ENDBRANCH   8   9
ENDBRANCH   1   7
BRANCH   4  26
ATOM     26  O   UNL d   1      26.542 -12.629  -4.107  0.00  0.00    -0.342 OA
BRANCH  26  27
ATOM     27  C   UNL d   1      25.322 -13.312  -4.458  0.00  0.00     0.278 C 
BRANCH  27  28
ATOM     28  C   UNL d   1      25.290 -14.681  -3.759  0.00  0.00     0.246 C 
ATOM     29  O   UNL d   1      25.506 -15.716  -4.393  0.00  0.00    -0.271 OA
ATOM     30  N   UNL d   1      24.972 -14.684  -2.393  0.00  0.00    -0.325 N 
ATOM     31  H   UNL d   1      24.578 -13.863  -1.949  0.00  0.00     0.169 HD
BRANCH  30  32
ATOM     32  C   UNL d   1      24.982 -15.900  -1.655  0.00  0.00     0.036 A 
ATOM     33  C   UNL d   1      26.171 -16.515  -1.242  0.00  0.00     0.029 A 
ATOM     34  C   UNL d   1      26.119 -17.697  -0.480  0.00  0.00     0.004 A 
ATOM     35  C   UNL d   1      24.888 -18.254  -0.120  0.00  0.00     0.024 A 
ATOM     36  C   UNL d   1      23.715 -17.665  -0.571  0.00  0.00     0.036 A 
ATOM     37 CL   UNL d   1      22.190 -18.373  -0.209  0.00  0.00    -0.084 Cl
ATOM     38  C   UNL d   1      23.762 -16.506  -1.336  0.00  0.00     0.053 A 
ENDBRANCH  30  32
ENDBRANCH  27  28
ENDBRANCH  26  27
ENDBRANCH   4  26
TORSDOF 9
ENDMDL
MODEL 3
REMARK VINA RESULT:    -7.762      3.063      4.411
REMARK INTER + INTRA:         -13.542
REMARK INTER:                 -10.447
REMARK INTRA:                  -3.095
REMARK CONF_INDEPENDENT:        2.685
REMARK UNBOUND:                -3.095
REMARK  9 active torsions:
REMARK  status: ('A' for Active; 'I' for Inactive)
REMARK    1  A    between atoms: C_2  and  C_4 
REMARK    2  A    between atoms: C_7  and  N_8 
REMARK       I    between atoms: N_8  and  C_9 
REMARK    3  A    between atoms: C_9  and  C_11 
REMARK       I    between atoms: C_11  and  N_13 
REMARK    4  A    between atoms: N_13  and  N_14 
REMARK    5  A    between atoms: C_15  and  C_16 
REMARK    6  A    between atoms: C_19  and  O_20 
REMARK    7  A    between atoms: O_20  and  C_21 
REMARK    8  A    between atoms: C_21  and  C_22 
REMARK       I    between atoms: C_22  and  N_24 
REMARK    9  A    between atoms: N_24  and  C_25 
ROOT
ATOM      1  C   UNL d   1      26.989 -15.462  -1.243  0.00  0.00    -0.017 A 
ATOM      2  C   UNL d   1      25.867 -15.050  -1.971  0.00  0.00     0.015 A 
ATOM      3  C   UNL d   1      25.923 -15.024  -3.383  0.00  0.00     0.037 A 
ATOM      4  C   UNL d   1      27.103 -15.359  -4.069  0.00  0.00     0.069 A 
ATOM      5  C   UNL d   1      28.196 -15.800  -3.332  0.00  0.00     0.037 A 
ATOM      6  C   UNL d   1      28.139 -15.850  -1.934  0.00  0.00     0.015 A 
ENDROOT
BRANCH   1   7
ATOM      7  C   UNL d   1      27.029 -15.518   0.250  0.00  0.00     0.150 C 
ATOM      8  N   UNL d   1      27.969 -14.886   0.885  0.00  0.00    -0.183 NA
BRANCH   8   9
ATOM      9  N   UNL d   1      28.032 -14.954   2.255  0.00  0.00    -0.239 N 
ATOM     10  C   UNL d   1      28.014 -13.778   3.020  0.00  0.00     0.329 C 
ATOM     11  O   UNL d   1      27.936 -12.616   2.611  0.00  0.00    -0.261 OA
ATOM     12  H   UNL d   1      28.107 -15.851   2.737  0.00  0.00     0.192 HD
BRANCH  10  13
ATOM     13  C   UNL d   1      28.101 -14.023   4.535  0.00  0.00     0.315 C 
ATOM     14  N   UNL d   1      28.334 -12.901   5.346  0.00  0.00    -0.319 N 
ATOM     15  H   UNL d   1      28.466 -12.011   4.869  0.00  0.00     0.169 HD
ATOM     16  O   UNL d   1      27.963 -15.195   4.888  0.00  0.00    -0.262 OA
BRANCH  14  17
ATOM     17  C   UNL d   1      28.501 -12.932   6.761  0.00  0.00     0.035 A 
ATOM     18  C   UNL d   1      28.985 -14.074   7.420  0.00  0.00     0.030 A 
ATOM     19  C   UNL d   1      29.001 -14.137   8.832  0.00  0.00     0.010 A 
ATOM     20  C   UNL d   1      28.612 -13.035   9.612  0.00  0.00    -0.055 A 
ATOM     21  C   UNL d   1      28.221 -11.879   8.938  0.00  0.00     0.010 A 
ATOM     22  C   UNL d   1      28.155 -11.839   7.550  0.00  0.00     0.030 A 
BRANCH  20  23
ATOM     23  C   UNL d   1      28.598 -12.992  11.131  0.00  0.00     0.010 C 
ATOM     24  C   UNL d   1      28.512 -14.415  11.708  0.00  0.00     0.015 C 
ATOM     25  C   UNL d   1      29.793 -12.267  11.744  0.00  0.00     0.015 C 
ENDBRANCH  20  23
ENDBRANCH  14  17
ENDBRANCH  10  13
ENDBRANCH   8   9
ENDBRANCH   1   7
BRANCH   4  26
ATOM     26  O   UNL d   1      27.093 -15.212  -5.429  0.00  0.00    -0.342 OA
BRANCH  26  27
ATOM     27  C   UNL d   1      28.104 -14.390  -6.046  0.00  0.00     0.278 C 
BRANCH  27  28
ATOM     28  C   UNL d   1      27.772 -12.910  -5.798  0.00  0.00     0.246 C 
ATOM     29  O   UNL d   1      28.650 -12.047  -5.873  0.00  0.00    -0.271 OA
ATOM     30  N   UNL d   1      26.446 -12.610  -5.454  0.00  0.00    -0.325 N 
ATOM     31  H   UNL d   1      25.803 -13.342  -5.176  0.00  0.00     0.169 HD
BRANCH  30  32
ATOM     32  C   UNL d   1      26.039 -11.259  -5.270  0.00  0.00     0.036 A 
ATOM     33  C   UNL d   1      25.525 -10.483  -6.316  0.00  0.00     0.029 A 
ATOM     34  C   UNL d   1      25.101  -9.165  -6.065  0.00  0.00     0.004 A 
ATOM     35  C   UNL d   1      25.176  -8.629  -4.776  0.00  0.00     0.024 A 
ATOM     36  C   UNL d   1      25.728  -9.388  -3.754  0.00  0.00     0.036 A 
ATOM     37 CL   UNL d   1      25.905  -8.727  -2.176  0.00  0.00    -0.084 Cl
ATOM     38  C   UNL d   1      26.162 -10.685  -4.000  0.00  0.00     0.053 A 
ENDBRANCH  30  32
ENDBRANCH  27  28
ENDBRANCH  26  27
ENDBRANCH   4  26
TORSDOF 9
ENDMDL
MODEL 4
REMARK VINA RESULT:    -7.754      3.140      4.544
REMARK INTER + INTRA:         -13.526
REMARK INTER:                 -10.439
REMARK INTRA:                  -3.087
REMARK CONF_INDEPENDENT:        2.685
REMARK UNBOUND:                -3.087
REMARK  9 active torsions:
REMARK  status: ('A' for Active; 'I' for Inactive)
REMARK    1  A    between atoms: C_2  and  C_4 
REMARK    2  A    between atoms: C_7  and  N_8 
REMARK       I    between atoms: N_8  and  C_9 
REMARK    3  A    between atoms: C_9  and  C_11 
REMARK       I    between atoms: C_11  and  N_13 
REMARK    4  A    between atoms: N_13  and  N_14 
REMARK    5  A    between atoms: C_15  and  C_16 
REMARK    6  A    between atoms: C_19  and  O_20 
REMARK    7  A    between atoms: O_20  and  C_21 
REMARK    8  A    between atoms: C_21  and  C_22 
REMARK       I    between atoms: C_22  and  N_24 
REMARK    9  A    between atoms: N_24  and  C_25 
ROOT
ATOM      1  C   UNL d   1      27.010 -15.554  -1.257  0.00  0.00    -0.017 A 
ATOM      2  C   UNL d   1      25.786 -15.469  -1.932  0.00  0.00     0.015 A 
ATOM      3  C   UNL d   1      25.772 -15.405  -3.344  0.00  0.00     0.037 A 
ATOM      4  C   UNL d   1      26.968 -15.375  -4.081  0.00  0.00     0.069 A 
ATOM      5  C   UNL d   1      28.172 -15.496  -3.397  0.00  0.00     0.037 A 
ATOM      6  C   UNL d   1      28.191 -15.584  -2.000  0.00  0.00     0.015 A 
ENDROOT
BRANCH   1   7
ATOM      7  C   UNL d   1      27.127 -15.621   0.231  0.00  0.00     0.150 C 
ATOM      8  N   UNL d   1      28.001 -14.874   0.835  0.00  0.00    -0.183 NA
BRANCH   8   9
ATOM      9  N   UNL d   1      28.137 -14.949   2.199  0.00  0.00    -0.239 N 
ATOM     10  C   UNL d   1      27.923 -13.811   2.991  0.00  0.00     0.329 C 
ATOM     11  O   UNL d   1      27.602 -12.681   2.613  0.00  0.00    -0.261 OA
ATOM     12  H   UNL d   1      28.408 -15.820   2.656  0.00  0.00     0.192 HD
BRANCH  10  13
ATOM     13  C   UNL d   1      28.124 -14.057   4.496  0.00  0.00     0.315 C 
ATOM     14  N   UNL d   1      28.194 -12.923   5.320  0.00  0.00    -0.319 N 
ATOM     15  H   UNL d   1      28.142 -12.017   4.856  0.00  0.00     0.169 HD
ATOM     16  O   UNL d   1      28.214 -15.239   4.829  0.00  0.00    -0.262 OA
BRANCH  14  17
ATOM     17  C   UNL d   1      28.430 -12.942   6.725  0.00  0.00     0.035 A 
ATOM     18  C   UNL d   1      28.913 -14.090   7.373  0.00  0.00     0.030 A 
ATOM     19  C   UNL d   1      28.998 -14.137   8.784  0.00  0.00     0.010 A 
ATOM     20  C   UNL d   1      28.681 -13.016   9.567  0.00  0.00    -0.055 A 
ATOM     21  C   UNL d   1      28.291 -11.856   8.898  0.00  0.00     0.010 A 
ATOM     22  C   UNL d   1      28.157 -11.830   7.515  0.00  0.00     0.030 A 
BRANCH  20  23
ATOM     23  C   UNL d   1      28.745 -12.954  11.084  0.00  0.00     0.010 C 
ATOM     24  C   UNL d   1      28.647 -14.368  11.683  0.00  0.00     0.015 C 
ATOM     25  C   UNL d   1      29.990 -12.258  11.627  0.00  0.00     0.015 C 
ENDBRANCH  20  23
ENDBRANCH  14  17
ENDBRANCH  10  13
ENDBRANCH   8   9
ENDBRANCH   1   7
BRANCH   4  26
ATOM     26  O   UNL d   1      26.859 -15.214  -5.436  0.00  0.00    -0.342 OA
BRANCH  26  27
ATOM     27  C   UNL d   1      27.790 -14.343  -6.109  0.00  0.00     0.278 C 
BRANCH  27  28
ATOM     28  C   UNL d   1      27.574 -12.900  -5.623  0.00  0.00     0.246 C 
ATOM     29  O   UNL d   1      28.451 -12.047  -5.775  0.00  0.00    -0.271 OA
ATOM     30  N   UNL d   1      26.357 -12.627  -4.980  0.00  0.00    -0.325 N 
ATOM     31  H   UNL d   1      25.757 -13.379  -4.664  0.00  0.00     0.169 HD
BRANCH  30  32
ATOM     32  C   UNL d   1      26.050 -11.305  -4.556  0.00  0.00     0.036 A 
ATOM     33  C   UNL d   1      26.208 -10.889  -3.229  0.00  0.00     0.029 A 
ATOM     34  C   UNL d   1      25.926  -9.556  -2.875  0.00  0.00     0.004 A 
ATOM     35  C   UNL d   1      25.502  -8.640  -3.843  0.00  0.00     0.024 A 
ATOM     36  C   UNL d   1      25.305  -9.071  -5.148  0.00  0.00     0.036 A 
ATOM     37 CL   UNL d   1      24.710  -7.985  -6.342  0.00  0.00    -0.084 Cl
ATOM     38  C   UNL d   1      25.568 -10.389  -5.498  0.00  0.00     0.053 A 
ENDBRANCH  30  32
ENDBRANCH  27  28
ENDBRANCH  26  27
ENDBRANCH   4  26
TORSDOF 9
ENDMDL
MODEL 5
REMARK VINA RESULT:    -7.550      1.907      2.671
REMARK INTER + INTRA:         -13.113
REMARK INTER:                 -10.235
REMARK INTRA:                  -2.878
REMARK CONF_INDEPENDENT:        2.685
REMARK UNBOUND:                -2.878
REMARK  9 active torsions:
REMARK  status: ('A' for Active; 'I' for Inactive)
REMARK    1  A    between atoms: C_2  and  C_4 
REMARK    2  A    between atoms: C_7  and  N_8 
REMARK       I    between atoms: N_8  and  C_9 
REMARK    3  A    between atoms: C_9  and  C_11 
REMARK       I    between atoms: C_11  and  N_13 
REMARK    4  A    between atoms: N_13  and  N_14 
REMARK    5  A    between atoms: C_15  and  C_16 
REMARK    6  A    between atoms: C_19  and  O_20 
REMARK    7  A    between atoms: O_20  and  C_21 
REMARK    8  A    between atoms: C_21  and  C_22 
REMARK       I    between atoms: C_22  and  N_24 
REMARK    9  A    between atoms: N_24  and  C_25 
ROOT
ATOM      1  C   UNL d   1      26.872 -15.311  -1.275  0.00  0.00    -0.017 A 
ATOM      2  C   UNL d   1      25.725 -15.079  -2.042  0.00  0.00     0.015 A 
ATOM      3  C   UNL d   1      25.814 -15.097  -3.453  0.00  0.00     0.037 A 
ATOM      4  C   UNL d   1      27.047 -15.295  -4.099  0.00  0.00     0.069 A 
ATOM      5  C   UNL d   1      28.168 -15.559  -3.322  0.00  0.00     0.037 A 
ATOM      6  C   UNL d   1      28.081 -15.566  -1.925  0.00  0.00     0.015 A 
ENDROOT
BRANCH   1   7
ATOM      7  C   UNL d   1      26.878 -15.307   0.220  0.00  0.00     0.150 C 
ATOM      8  N   UNL d   1      27.997 -15.113   0.851  0.00  0.00    -0.183 NA
BRANCH   8   9
ATOM      9  N   UNL d   1      28.020 -15.136   2.223  0.00  0.00    -0.239 N 
ATOM     10  C   UNL d   1      28.038 -13.934   2.947  0.00  0.00     0.329 C 
ATOM     11  O   UNL d   1      28.028 -12.786   2.497  0.00  0.00    -0.261 OA
ATOM     12  H   UNL d   1      28.038 -16.018   2.737  0.00  0.00     0.192 HD
BRANCH  10  13
ATOM     13  C   UNL d   1      28.071 -14.130   4.472  0.00  0.00     0.315 C 
ATOM     14  N   UNL d   1      28.388 -13.005   5.249  0.00  0.00    -0.319 N 
ATOM     15  H   UNL d   1      28.608 -12.148   4.743  0.00  0.00     0.169 HD
ATOM     16  O   UNL d   1      27.823 -15.272   4.862  0.00  0.00    -0.262 OA
BRANCH  14  17
ATOM     17  C   UNL d   1      28.522 -12.998   6.667  0.00  0.00     0.035 A 
ATOM     18  C   UNL d   1      28.162 -11.879   7.435  0.00  0.00     0.030 A 
ATOM     19  C   UNL d   1      28.443 -11.837   8.820  0.00  0.00     0.010 A 
ATOM     20  C   UNL d   1      29.013 -12.938   9.478  0.00  0.00    -0.055 A 
ATOM     21  C   UNL d   1      29.280 -14.074   8.715  0.00  0.00     0.010 A 
ATOM     22  C   UNL d   1      29.052 -14.093   7.344  0.00  0.00     0.030 A 
BRANCH  20  23
ATOM     23  C   UNL d   1      29.348 -13.003  10.960  0.00  0.00     0.010 C 
ATOM     24  C   UNL d   1      28.071 -13.214  11.790  0.00  0.00     0.015 C 
ATOM     25  C   UNL d   1      30.372 -14.075  11.321  0.00  0.00     0.015 C 
ENDBRANCH  20  23
ENDBRANCH  14  17
ENDBRANCH  10  13
ENDBRANCH   8   9
ENDBRANCH   1   7
BRANCH   4  26
ATOM     26  O   UNL d   1      27.054 -15.201  -5.464  0.00  0.00    -0.342 OA
BRANCH  26  27
ATOM     27  C   UNL d   1      27.730 -14.085  -6.079  0.00  0.00     0.278 C 
BRANCH  27  28
ATOM     28  C   UNL d   1      29.018 -14.583  -6.754  0.00  0.00     0.246 C 
ATOM     29  O   UNL d   1      29.555 -13.925  -7.648  0.00  0.00    -0.271 OA
ATOM     30  N   UNL d   1      29.516 -15.822  -6.325  0.00  0.00    -0.325 N 
ATOM     31  H   UNL d   1      28.946 -16.446  -5.766  0.00  0.00     0.169 HD
BRANCH  30  32
ATOM     32  C   UNL d   1      30.737 -16.328  -6.852  0.00  0.00     0.036 A 
ATOM     33  C   UNL d   1      31.886 -15.537  -6.967  0.00  0.00     0.029 A 
ATOM     34  C   UNL d   1      33.078 -16.102  -7.458  0.00  0.00     0.004 A 
ATOM     35  C   UNL d   1      33.126 -17.451  -7.820  0.00  0.00     0.024 A 
ATOM     36  C   UNL d   1      31.971 -18.218  -7.747  0.00  0.00     0.036 A 
ATOM     37 CL   UNL d   1      31.982 -19.859  -8.259  0.00  0.00    -0.084 Cl
ATOM     38  C   UNL d   1      30.789 -17.660  -7.276  0.00  0.00     0.053 A 
ENDBRANCH  30  32
ENDBRANCH  27  28
ENDBRANCH  26  27
ENDBRANCH   4  26
TORSDOF 9
ENDMDL
MODEL 6
REMARK VINA RESULT:    -7.545      1.894      2.575
REMARK INTER + INTRA:         -13.135
REMARK INTER:                 -10.229
REMARK INTRA:                  -2.905
REMARK CONF_INDEPENDENT:        2.685
REMARK UNBOUND:                -2.905
REMARK  9 active torsions:
REMARK  status: ('A' for Active; 'I' for Inactive)
REMARK    1  A    between atoms: C_2  and  C_4 
REMARK    2  A    between atoms: C_7  and  N_8 
REMARK       I    between atoms: N_8  and  C_9 
REMARK    3  A    between atoms: C_9  and  C_11 
REMARK       I    between atoms: C_11  and  N_13 
REMARK    4  A    between atoms: N_13  and  N_14 
REMARK    5  A    between atoms: C_15  and  C_16 
REMARK    6  A    between atoms: C_19  and  O_20 
REMARK    7  A    between atoms: O_20  and  C_21 
REMARK    8  A    between atoms: C_21  and  C_22 
REMARK       I    between atoms: C_22  and  N_24 
REMARK    9  A    between atoms: N_24  and  C_25 
ROOT
ATOM      1  C   UNL d   1      27.087 -15.252  -1.202  0.00  0.00    -0.017 A 
ATOM      2  C   UNL d   1      28.179 -14.833  -1.971  0.00  0.00     0.015 A 
ATOM      3  C   UNL d   1      28.065 -14.788  -3.379  0.00  0.00     0.037 A 
ATOM      4  C   UNL d   1      26.888 -15.205  -4.025  0.00  0.00     0.069 A 
ATOM      5  C   UNL d   1      25.802 -15.584  -3.245  0.00  0.00     0.037 A 
ATOM      6  C   UNL d   1      25.901 -15.608  -1.849  0.00  0.00     0.015 A 
ENDROOT
BRANCH   1   7
ATOM      7  C   UNL d   1      27.113 -15.337   0.290  0.00  0.00     0.150 C 
ATOM      8  N   UNL d   1      28.045 -14.716   0.946  0.00  0.00    -0.183 NA
BRANCH   8   9
ATOM      9  N   UNL d   1      28.096 -14.811   2.314  0.00  0.00    -0.239 N 
ATOM     10  C   UNL d   1      28.075 -13.650   3.102  0.00  0.00     0.329 C 
ATOM     11  O   UNL d   1      28.005 -12.481   2.715  0.00  0.00    -0.261 OA
ATOM     12  H   UNL d   1      28.164 -15.718   2.779  0.00  0.00     0.192 HD
BRANCH  10  13
ATOM     13  C   UNL d   1      28.148 -13.926   4.613  0.00  0.00     0.315 C 
ATOM     14  N   UNL d   1      28.428 -12.830   5.444  0.00  0.00    -0.319 N 
ATOM     15  H   UNL d   1      28.598 -11.937   4.983  0.00  0.00     0.169 HD
ATOM     16  O   UNL d   1      27.960 -15.097   4.945  0.00  0.00    -0.262 OA
BRANCH  14  17
ATOM     17  C   UNL d   1      28.590 -12.893   6.859  0.00  0.00     0.035 A 
ATOM     18  C   UNL d   1      28.906 -14.096   7.510  0.00  0.00     0.030 A 
ATOM     19  C   UNL d   1      28.914 -14.169   8.922  0.00  0.00     0.010 A 
ATOM     20  C   UNL d   1      28.687 -13.028   9.708  0.00  0.00    -0.055 A 
ATOM     21  C   UNL d   1      28.465 -11.824   9.042  0.00  0.00     0.010 A 
ATOM     22  C   UNL d   1      28.404 -11.766   7.654  0.00  0.00     0.030 A 
BRANCH  20  23
ATOM     23  C   UNL d   1      28.682 -12.992  11.228  0.00  0.00     0.010 C 
ATOM     24  C   UNL d   1      28.160 -14.323  11.794  0.00  0.00     0.015 C 
ATOM     25  C   UNL d   1      30.039 -12.673  11.848  0.00  0.00     0.015 C 
ENDBRANCH  20  23
ENDBRANCH  14  17
ENDBRANCH  10  13
ENDBRANCH   8   9
ENDBRANCH   1   7
BRANCH   4  26
ATOM     26  O   UNL d   1      26.902 -15.219  -5.393  0.00  0.00    -0.342 OA
BRANCH  26  27
ATOM     27  C   UNL d   1      27.811 -14.341  -6.087  0.00  0.00     0.278 C 
BRANCH  27  28
ATOM     28  C   UNL d   1      29.099 -15.110  -6.423  0.00  0.00     0.246 C 
ATOM     29  O   UNL d   1      29.885 -14.681  -7.270  0.00  0.00    -0.271 OA
ATOM     30  N   UNL d   1      29.305 -16.321  -5.746  0.00  0.00    -0.325 N 
ATOM     31  H   UNL d   1      28.551 -16.765  -5.234  0.00  0.00     0.169 HD
BRANCH  30  32
ATOM     32  C   UNL d   1      30.500 -17.065  -5.950  0.00  0.00     0.036 A 
ATOM     33  C   UNL d   1      31.769 -16.521  -5.714  0.00  0.00     0.029 A 
ATOM     34  C   UNL d   1      32.916 -17.316  -5.894  0.00  0.00     0.004 A 
ATOM     35  C   UNL d   1      32.797 -18.650  -6.295  0.00  0.00     0.024 A 
ATOM     36  C   UNL d   1      31.539 -19.169  -6.571  0.00  0.00     0.036 A 
ATOM     37 CL   UNL d   1      31.370 -20.783  -7.141  0.00  0.00    -0.084 Cl
ATOM     38  C   UNL d   1      30.406 -18.383  -6.408  0.00  0.00     0.053 A 
ENDBRANCH  30  32
ENDBRANCH  27  28
ENDBRANCH  26  27
ENDBRANCH   4  26
TORSDOF 9
ENDMDL
MODEL 7
REMARK VINA RESULT:    -7.296      5.518      6.926
REMARK INTER + INTRA:         -12.980
REMARK INTER:                  -9.981
REMARK INTRA:                  -2.999
REMARK CONF_INDEPENDENT:        2.685
REMARK UNBOUND:                -2.999
REMARK  9 active torsions:
REMARK  status: ('A' for Active; 'I' for Inactive)
REMARK    1  A    between atoms: C_2  and  C_4 
REMARK    2  A    between atoms: C_7  and  N_8 
REMARK       I    between atoms: N_8  and  C_9 
REMARK    3  A    between atoms: C_9  and  C_11 
REMARK       I    between atoms: C_11  and  N_13 
REMARK    4  A    between atoms: N_13  and  N_14 
REMARK    5  A    between atoms: C_15  and  C_16 
REMARK    6  A    between atoms: C_19  and  O_20 
REMARK    7  A    between atoms: O_20  and  C_21 
REMARK    8  A    between atoms: C_21  and  C_22 
REMARK       I    between atoms: C_22  and  N_24 
REMARK    9  A    between atoms: N_24  and  C_25 
ROOT
ATOM      1  C   UNL d   1      30.946 -17.842  -3.512  0.00  0.00    -0.017 A 
ATOM      2  C   UNL d   1      30.393 -18.315  -4.708  0.00  0.00     0.015 A 
ATOM      3  C   UNL d   1      30.106 -17.405  -5.752  0.00  0.00     0.037 A 
ATOM      4  C   UNL d   1      30.323 -16.026  -5.591  0.00  0.00     0.069 A 
ATOM      5  C   UNL d   1      30.905 -15.578  -4.412  0.00  0.00     0.037 A 
ATOM      6  C   UNL d   1      31.213 -16.478  -3.384  0.00  0.00     0.015 A 
ENDROOT
BRANCH   1   7
ATOM      7  C   UNL d   1      31.278 -18.724  -2.352  0.00  0.00     0.150 C 
ATOM      8  N   UNL d   1      30.655 -18.553  -1.225  0.00  0.00    -0.183 NA
BRANCH   8   9
ATOM      9  N   UNL d   1      30.972 -19.338  -0.145  0.00  0.00    -0.239 N 
ATOM     10  C   UNL d   1      32.138 -19.083   0.593  0.00  0.00     0.329 C 
ATOM     11  O   UNL d   1      32.969 -18.191   0.400  0.00  0.00    -0.261 OA
ATOM     12  H   UNL d   1      30.380 -20.122   0.132  0.00  0.00     0.192 HD
BRANCH  10  13
ATOM     13  C   UNL d   1      32.356 -20.055   1.764  0.00  0.00     0.315 C 
ATOM     14  N   UNL d   1      33.125 -19.587   2.841  0.00  0.00    -0.319 N 
ATOM     15  H   UNL d   1      33.515 -18.650   2.752  0.00  0.00     0.169 HD
ATOM     16  O   UNL d   1      31.833 -21.162   1.634  0.00  0.00    -0.262 OA
BRANCH  14  17
ATOM     17  C   UNL d   1      33.483 -20.354   3.988  0.00  0.00     0.035 A 
ATOM     18  C   UNL d   1      34.818 -20.695   4.258  0.00  0.00     0.030 A 
ATOM     19  C   UNL d   1      35.135 -21.579   5.314  0.00  0.00     0.010 A 
ATOM     20  C   UNL d   1      34.137 -22.075   6.169  0.00  0.00    -0.055 A 
ATOM     21  C   UNL d   1      32.829 -21.652   5.940  0.00  0.00     0.010 A 
ATOM     22  C   UNL d   1      32.513 -20.825   4.868  0.00  0.00     0.030 A 
BRANCH  20  23
ATOM     23  C   UNL d   1      34.367 -23.021   7.336  0.00  0.00     0.010 C 
ATOM     24  C   UNL d   1      34.920 -24.366   6.836  0.00  0.00     0.015 C 
ATOM     25  C   UNL d   1      35.288 -22.463   8.418  0.00  0.00     0.015 C 
ENDBRANCH  20  23
ENDBRANCH  14  17
ENDBRANCH  10  13
ENDBRANCH   8   9
ENDBRANCH   1   7
BRANCH   4  26
ATOM     26  O   UNL d   1      29.926 -15.212  -6.617  0.00  0.00    -0.342 OA
BRANCH  26  27
ATOM     27  C   UNL d   1      28.879 -14.251  -6.377  0.00  0.00     0.278 C 
BRANCH  27  28
ATOM     28  C   UNL d   1      27.826 -14.875  -5.446  0.00  0.00     0.246 C 
ATOM     29  O   UNL d   1      26.903 -15.552  -5.904  0.00  0.00    -0.271 OA
ATOM     30  N   UNL d   1      27.956 -14.604  -4.076  0.00  0.00    -0.325 N 
ATOM     31  H   UNL d   1      28.573 -13.870  -3.748  0.00  0.00     0.169 HD
BRANCH  30  32
ATOM     32  C   UNL d   1      27.062 -15.193  -3.139  0.00  0.00     0.036 A 
ATOM     33  C   UNL d   1      25.686 -14.933  -3.153  0.00  0.00     0.029 A 
ATOM     34  C   UNL d   1      24.843 -15.576  -2.227  0.00  0.00     0.004 A 
ATOM     35  C   UNL d   1      25.369 -16.483  -1.302  0.00  0.00     0.024 A 
ATOM     36  C   UNL d   1      26.739 -16.701  -1.264  0.00  0.00     0.036 A 
ATOM     37 CL   UNL d   1      27.421 -17.751  -0.085  0.00  0.00    -0.084 Cl
ATOM     38  C   UNL d   1      27.576 -16.057  -2.167  0.00  0.00     0.053 A 
ENDBRANCH  30  32
ENDBRANCH  27  28
ENDBRANCH  26  27
ENDBRANCH   4  26
TORSDOF 9
ENDMDL
MODEL 8
REMARK VINA RESULT:    -7.291      3.878      5.303
REMARK INTER + INTRA:         -12.939
REMARK INTER:                  -9.976
REMARK INTRA:                  -2.963
REMARK CONF_INDEPENDENT:        2.685
REMARK UNBOUND:                -2.963
REMARK  9 active torsions:
REMARK  status: ('A' for Active; 'I' for Inactive)
REMARK    1  A    between atoms: C_2  and  C_4 
REMARK    2  A    between atoms: C_7  and  N_8 
REMARK       I    between atoms: N_8  and  C_9 
REMARK    3  A    between atoms: C_9  and  C_11 
REMARK       I    between atoms: C_11  and  N_13 
REMARK    4  A    between atoms: N_13  and  N_14 
REMARK    5  A    between atoms: C_15  and  C_16 
REMARK    6  A    between atoms: C_19  and  O_20 
REMARK    7  A    between atoms: O_20  and  C_21 
REMARK    8  A    between atoms: C_21  and  C_22 
REMARK       I    between atoms: C_22  and  N_24 
REMARK    9  A    between atoms: N_24  and  C_25 
ROOT
ATOM      1  C   UNL d   1      26.581 -14.220  -0.867  0.00  0.00    -0.017 A 
ATOM      2  C   UNL d   1      25.802 -15.073  -1.657  0.00  0.00     0.015 A 
ATOM      3  C   UNL d   1      25.671 -14.814  -3.041  0.00  0.00     0.037 A 
ATOM      4  C   UNL d   1      26.271 -13.687  -3.629  0.00  0.00     0.069 A 
ATOM      5  C   UNL d   1      27.070 -12.872  -2.836  0.00  0.00     0.037 A 
ATOM      6  C   UNL d   1      27.222 -13.136  -1.469  0.00  0.00     0.015 A 
ENDROOT
BRANCH   1   7
ATOM      7  C   UNL d   1      26.774 -14.407   0.604  0.00  0.00     0.150 C 
ATOM      8  N   UNL d   1      27.979 -14.451   1.086  0.00  0.00    -0.183 NA
BRANCH   8   9
ATOM      9  N   UNL d   1      28.169 -14.652   2.431  0.00  0.00    -0.239 N 
ATOM     10  C   UNL d   1      27.970 -13.598   3.335  0.00  0.00     0.329 C 
ATOM     11  O   UNL d   1      27.619 -12.443   3.077  0.00  0.00    -0.261 OA
ATOM     12  H   UNL d   1      28.469 -15.559   2.793  0.00  0.00     0.192 HD
BRANCH  10  13
ATOM     13  C   UNL d   1      28.232 -13.981   4.801  0.00  0.00     0.315 C 
ATOM     14  N   UNL d   1      28.279 -12.932   5.732  0.00  0.00    -0.319 N 
ATOM     15  H   UNL d   1      28.173 -11.988   5.362  0.00  0.00     0.169 HD
ATOM     16  O   UNL d   1      28.385 -15.185   5.011  0.00  0.00    -0.262 OA
BRANCH  14  17
ATOM     17  C   UNL d   1      28.564 -13.078   7.120  0.00  0.00     0.035 A 
ATOM     18  C   UNL d   1      29.084 -14.274   7.642  0.00  0.00     0.030 A 
ATOM     19  C   UNL d   1      29.217 -14.451   9.039  0.00  0.00     0.010 A 
ATOM     20  C   UNL d   1      28.911 -13.412   9.934  0.00  0.00    -0.055 A 
ATOM     21  C   UNL d   1      28.483 -12.203   9.390  0.00  0.00     0.010 A 
ATOM     22  C   UNL d   1      28.302 -12.050   8.020  0.00  0.00     0.030 A 
BRANCH  20  23
ATOM     23  C   UNL d   1      29.026 -13.492  11.447  0.00  0.00     0.010 C 
ATOM     24  C   UNL d   1      28.276 -12.321  12.104  0.00  0.00     0.015 C 
ATOM     25  C   UNL d   1      28.532 -14.809  12.041  0.00  0.00     0.015 C 
ENDBRANCH  20  23
ENDBRANCH  14  17
ENDBRANCH  10  13
ENDBRANCH   8   9
ENDBRANCH   1   7
BRANCH   4  26
ATOM     26  O   UNL d   1      26.011 -13.465  -4.954  0.00  0.00    -0.342 OA
BRANCH  26  27
ATOM     27  C   UNL d   1      26.976 -12.736  -5.738  0.00  0.00     0.278 C 
BRANCH  27  28
ATOM     28  C   UNL d   1      26.779 -11.228  -5.507  0.00  0.00     0.246 C 
ATOM     29  O   UNL d   1      27.696 -10.434  -5.726  0.00  0.00    -0.271 OA
ATOM     30  N   UNL d   1      25.531 -10.824  -5.013  0.00  0.00    -0.325 N 
ATOM     31  H   UNL d   1      24.881 -11.500  -4.628  0.00  0.00     0.169 HD
BRANCH  30  32
ATOM     32  C   UNL d   1      25.242  -9.443  -4.831  0.00  0.00     0.036 A 
ATOM     33  C   UNL d   1      25.836  -8.682  -3.817  0.00  0.00     0.029 A 
ATOM     34  C   UNL d   1      25.545  -7.309  -3.711  0.00  0.00     0.004 A 
ATOM     35  C   UNL d   1      24.675  -6.697  -4.619  0.00  0.00     0.024 A 
ATOM     36  C   UNL d   1      24.055  -7.467  -5.593  0.00  0.00     0.036 A 
ATOM     37 CL   UNL d   1      22.922  -6.756  -6.674  0.00  0.00    -0.084 Cl
ATOM     38  C   UNL d   1      24.330  -8.825  -5.693  0.00  0.00     0.053 A 
ENDBRANCH  30  32
ENDBRANCH  27  28
ENDBRANCH  26  27
ENDBRANCH   4  26
TORSDOF 9
ENDMDL
MODEL 9
REMARK VINA RESULT:    -7.144      2.170      2.573
REMARK INTER + INTRA:         -12.823
REMARK INTER:                  -9.828
REMARK INTRA:                  -2.994
REMARK CONF_INDEPENDENT:        2.685
REMARK UNBOUND:                -2.994
REMARK  9 active torsions:
REMARK  status: ('A' for Active; 'I' for Inactive)
REMARK    1  A    between atoms: C_2  and  C_4 
REMARK    2  A    between atoms: C_7  and  N_8 
REMARK       I    between atoms: N_8  and  C_9 
REMARK    3  A    between atoms: C_9  and  C_11 
REMARK       I    between atoms: C_11  and  N_13 
REMARK    4  A    between atoms: N_13  and  N_14 
REMARK    5  A    between atoms: C_15  and  C_16 
REMARK    6  A    between atoms: C_19  and  O_20 
REMARK    7  A    between atoms: O_20  and  C_21 
REMARK    8  A    between atoms: C_21  and  C_22 
REMARK       I    between atoms: C_22  and  N_24 
REMARK    9  A    between atoms: N_24  and  C_25 
ROOT
ATOM      1  C   UNL d   1      26.448 -14.884  -0.433  0.00  0.00    -0.017 A 
ATOM      2  C   UNL d   1      26.606 -13.732  -1.214  0.00  0.00     0.015 A 
ATOM      3  C   UNL d   1      26.120 -13.718  -2.542  0.00  0.00     0.037 A 
ATOM      4  C   UNL d   1      25.525 -14.858  -3.108  0.00  0.00     0.069 A 
ATOM      5  C   UNL d   1      25.345 -15.980  -2.308  0.00  0.00     0.037 A 
ATOM      6  C   UNL d   1      25.802 -15.992  -0.985  0.00  0.00     0.015 A 
ENDROOT
BRANCH   1   7
ATOM      7  C   UNL d   1      26.932 -14.996   0.977  0.00  0.00     0.150 C 
ATOM      8  N   UNL d   1      28.134 -14.602   1.270  0.00  0.00    -0.183 NA
BRANCH   8   9
ATOM      9  N   UNL d   1      28.599 -14.728   2.555  0.00  0.00    -0.239 N 
ATOM     10  C   UNL d   1      28.044 -13.951   3.583  0.00  0.00     0.329 C 
ATOM     11  O   UNL d   1      27.134 -13.123   3.492  0.00  0.00    -0.261 OA
ATOM     12  H   UNL d   1      29.358 -15.372   2.783  0.00  0.00     0.192 HD
BRANCH  10  13
ATOM     13  C   UNL d   1      28.679 -14.202   4.961  0.00  0.00     0.315 C 
ATOM     14  N   UNL d   1      28.308 -13.333   5.998  0.00  0.00    -0.319 N 
ATOM     15  H   UNL d   1      27.671 -12.576   5.754  0.00  0.00     0.169 HD
ATOM     16  O   UNL d   1      29.467 -15.147   5.014  0.00  0.00    -0.262 OA
BRANCH  14  17
ATOM     17  C   UNL d   1      28.827 -13.369   7.325  0.00  0.00     0.035 A 
ATOM     18  C   UNL d   1      30.002 -14.072   7.636  0.00  0.00     0.030 A 
ATOM     19  C   UNL d   1      30.416 -14.220   8.980  0.00  0.00     0.010 A 
ATOM     20  C   UNL d   1      29.714 -13.603  10.028  0.00  0.00    -0.055 A 
ATOM     21  C   UNL d   1      28.602 -12.834   9.689  0.00  0.00     0.010 A 
ATOM     22  C   UNL d   1      28.166 -12.735   8.372  0.00  0.00     0.030 A 
BRANCH  20  23
ATOM     23  C   UNL d   1      30.076 -13.690  11.501  0.00  0.00     0.010 C 
ATOM     24  C   UNL d   1      30.307 -15.154  11.912  0.00  0.00     0.015 C 
ATOM     25  C   UNL d   1      31.291 -12.853  11.894  0.00  0.00     0.015 C 
ENDBRANCH  20  23
ENDBRANCH  14  17
ENDBRANCH  10  13
ENDBRANCH   8   9
ENDBRANCH   1   7
BRANCH   4  26
ATOM     26  O   UNL d   1      25.173 -14.784  -4.429  0.00  0.00    -0.342 OA
BRANCH  26  27
ATOM     27  C   UNL d   1      25.903 -15.575  -5.387  0.00  0.00     0.278 C 
BRANCH  27  28
ATOM     28  C   UNL d   1      27.193 -14.836  -5.776  0.00  0.00     0.246 C 
ATOM     29  O   UNL d   1      28.198 -15.462  -6.119  0.00  0.00    -0.271 OA
ATOM     30  N   UNL d   1      27.169 -13.436  -5.686  0.00  0.00    -0.325 N 
ATOM     31  H   UNL d   1      26.425 -12.960  -5.190  0.00  0.00     0.169 HD
BRANCH  30  32
ATOM     32  C   UNL d   1      28.300 -12.671  -6.086  0.00  0.00     0.036 A 
ATOM     33  C   UNL d   1      28.990 -11.835  -5.200  0.00  0.00     0.029 A 
ATOM     34  C   UNL d   1      30.127 -11.133  -5.642  0.00  0.00     0.004 A 
ATOM     35  C   UNL d   1      30.580 -11.274  -6.957  0.00  0.00     0.024 A 
ATOM     36  C   UNL d   1      29.865 -12.069  -7.842  0.00  0.00     0.036 A 
ATOM     37 CL   UNL d   1      30.355 -12.199  -9.486  0.00  0.00    -0.084 Cl
ATOM     38  C   UNL d   1      28.734 -12.753  -7.414  0.00  0.00     0.053 A 
ENDBRANCH  30  32
ENDBRANCH  27  28
ENDBRANCH  26  27
ENDBRANCH   4  26
TORSDOF 9
ENDMDL
