MODEL 1
REMARK VINA RESULT:    -9.898      0.000      0.000
REMARK INTER + INTRA:         -15.268
REMARK INTER:                 -14.074
REMARK INTRA:                  -1.194
REMARK CONF_INDEPENDENT:        4.176
REMARK UNBOUND:                -1.194
REMARK  14 active torsions:
REMARK  status: ('A' for Active; 'I' for Inactive)
REMARK    1  A    between atoms: C_2  and  C_3 
REMARK       I    between atoms: C_2  and  N_21 
REMARK    2  A    between atoms: C_3  and  N_4 
REMARK    3  A    between atoms: N_4  and  C_5 
REMARK    4  A    between atoms: C_8  and  O_9 
REMARK    5  A    between atoms: O_9  and  C_10 
REMARK    6  A    between atoms: C_10  and  C_11 
REMARK    7  A    between atoms: C_11  and  O_12 
REMARK    8  A    between atoms: O_12  and  C_13 
REMARK    9  A    between atoms: N_21  and  C_22 
REMARK   10  A    between atoms: C_26  and  O_27 
REMARK   11  A    between atoms: O_27  and  C_28 
REMARK   12  A    between atoms: C_28  and  C_29 
REMARK   13  A    between atoms: C_29  and  O_30 
REMARK   14  A    between atoms: O_30  and  C_31 
ROOT
ATOM      1  O   UNL d   1      25.503 -15.039  -4.622  0.00  0.00    -0.271 OA
ATOM      2  C   UNL d   1      26.064 -14.229  -3.869  0.00  0.00     0.239 C 
ATOM      3  N   UNL d   1      25.599 -12.927  -3.810  0.00  0.00    -0.326 N 
ATOM      4  H   UNL d   1      24.738 -12.765  -4.321  0.00  0.00     0.169 HD
ENDROOT
BRANCH   2   5
ATOM      5  C   UNL d   1      27.182 -14.646  -2.902  0.00  0.00     0.223 C 
BRANCH   5   6
ATOM      6  N   UNL d   1      27.192 -16.063  -2.567  0.00  0.00    -0.381 N 
ATOM      7  H   UNL d   1      27.918 -16.650  -2.963  0.00  0.00     0.160 HD
BRANCH   6   8
ATOM      8  C   UNL d   1      26.183 -16.578  -1.774  0.00  0.00     0.028 A 
ATOM      9  C   UNL d   1      24.835 -16.397  -2.091  0.00  0.00     0.032 A 
ATOM     10  C   UNL d   1      23.822 -16.938  -1.275  0.00  0.00     0.039 A 
ATOM     11  C   UNL d   1      24.144 -17.728  -0.165  0.00  0.00     0.069 A 
ATOM     12  C   UNL d   1      25.484 -17.917   0.146  0.00  0.00     0.039 A 
ATOM     13  C   UNL d   1      26.480 -17.358  -0.654  0.00  0.00     0.032 A 
BRANCH  11  14
ATOM     14  O   UNL d   1      23.099 -18.278   0.533  0.00  0.00    -0.349 OA
BRANCH  14  15
ATOM     15  C   UNL d   1      22.365 -19.311  -0.145  0.00  0.00     0.202 C 
BRANCH  15  16
ATOM     16  C   UNL d   1      21.492 -18.697  -1.238  0.00  0.00     0.202 C 
BRANCH  16  17
ATOM     17  O   UNL d   1      20.206 -18.354  -0.697  0.00  0.00    -0.349 OA
BRANCH  17  18
ATOM     18  C   UNL d   1      19.638 -19.329   0.084  0.00  0.00     0.068 A 
ATOM     19  C   UNL d   1      18.704 -20.175  -0.521  0.00  0.00     0.037 A 
ATOM     20  C   UNL d   1      18.034 -21.143   0.237  0.00  0.00     0.003 A 
ATOM     21  C   UNL d   1      18.330 -21.299   1.591  0.00  0.00     0.000 A 
ATOM     22  C   UNL d   1      19.248 -20.448   2.198  0.00  0.00     0.003 A 
ATOM     23  C   UNL d   1      19.881 -19.453   1.452  0.00  0.00     0.037 A 
ENDBRANCH  17  18
ENDBRANCH  16  17
ENDBRANCH  15  16
ENDBRANCH  14  15
ENDBRANCH  11  14
ENDBRANCH   6   8
ENDBRANCH   5   6
ENDBRANCH   2   5
BRANCH   3  24
ATOM     24  C   UNL d   1      26.167 -11.839  -3.120  0.00  0.00     0.037 A 
ATOM     25  C   UNL d   1      26.266 -10.587  -3.717  0.00  0.00     0.029 A 
ATOM     26  C   UNL d   1      26.867  -9.533  -3.015  0.00  0.00     0.005 A 
ATOM     27  C   UNL d   1      27.327  -9.720  -1.703  0.00  0.00     0.037 A 
ATOM     28  C   UNL d   1      27.262 -10.980  -1.116  0.00  0.00     0.070 A 
ATOM     29  C   UNL d   1      26.721 -12.024  -1.856  0.00  0.00     0.066 A 
BRANCH  28  30
ATOM     30  O   UNL d   1      27.774 -11.127   0.146  0.00  0.00    -0.349 OA
BRANCH  30  31
ATOM     31  C   UNL d   1      28.444 -12.373   0.410  0.00  0.00     0.202 C 
BRANCH  31  32
ATOM     32  C   UNL d   1      27.513 -13.312   1.163  0.00  0.00     0.202 C 
BRANCH  32  33
ATOM     33  O   UNL d   1      27.057 -12.657   2.351  0.00  0.00    -0.349 OA
BRANCH  33  34
ATOM     34  C   UNL d   1      27.616 -13.098   3.521  0.00  0.00     0.068 A 
ATOM     35  C   UNL d   1      27.941 -14.457   3.578  0.00  0.00     0.037 A 
ATOM     36  C   UNL d   1      28.400 -15.025   4.769  0.00  0.00     0.003 A 
ATOM     37  C   UNL d   1      28.589 -14.225   5.895  0.00  0.00     0.000 A 
ATOM     38  C   UNL d   1      28.277 -12.869   5.839  0.00  0.00     0.003 A 
ATOM     39  C   UNL d   1      27.778 -12.310   4.661  0.00  0.00     0.037 A 
ENDBRANCH  33  34
ENDBRANCH  32  33
ENDBRANCH  31  32
ENDBRANCH  30  31
ENDBRANCH  28  30
ENDBRANCH   3  24
TORSDOF 14
ENDMDL
MODEL 2
REMARK VINA RESULT:    -9.892      3.442      6.399
REMARK INTER + INTRA:         -16.526
REMARK INTER:                 -14.068
REMARK INTRA:                  -2.458
REMARK CONF_INDEPENDENT:        4.176
REMARK UNBOUND:                -2.458
REMARK  14 active torsions:
REMARK  status: ('A' for Active; 'I' for Inactive)
REMARK    1  A    between atoms: C_2  and  C_3 
REMARK       I    between atoms: C_2  and  N_21 
REMARK    2  A    between atoms: C_3  and  N_4 
REMARK    3  A    between atoms: N_4  and  C_5 
REMARK    4  A    between atoms: C_8  and  O_9 
REMARK    5  A    between atoms: O_9  and  C_10 
REMARK    6  A    between atoms: C_10  and  C_11 
REMARK    7  A    between atoms: C_11  and  O_12 
REMARK    8  A    between atoms: O_12  and  C_13 
REMARK    9  A    between atoms: N_21  and  C_22 
REMARK   10  A    between atoms: C_26  and  O_27 
REMARK   11  A    between atoms: O_27  and  C_28 
REMARK   12  A    between atoms: C_28  and  C_29 
REMARK   13  A    between atoms: C_29  and  O_30 
REMARK   14  A    between atoms: O_30  and  C_31 
ROOT
ATOM      1  O   UNL d   1      31.854 -16.517  -0.210  0.00  0.00    -0.271 OA
ATOM      2  C   UNL d   1      31.275 -17.113  -1.130  0.00  0.00     0.239 C 
ATOM      3  N   UNL d   1      31.955 -17.358  -2.311  0.00  0.00    -0.326 N 
ATOM      4  H   UNL d   1      32.940 -17.120  -2.285  0.00  0.00     0.169 HD
ENDROOT
BRANCH   2   5
ATOM      5  C   UNL d   1      29.867 -17.704  -0.967  0.00  0.00     0.223 C 
BRANCH   5   6
ATOM      6  N   UNL d   1      29.064 -17.071   0.069  0.00  0.00    -0.381 N 
ATOM      7  H   UNL d   1      29.535 -16.681   0.879  0.00  0.00     0.160 HD
BRANCH   6   8
ATOM      8  C   UNL d   1      27.685 -17.076  -0.046  0.00  0.00     0.028 A 
ATOM      9  C   UNL d   1      26.929 -18.219   0.223  0.00  0.00     0.032 A 
ATOM     10  C   UNL d   1      25.525 -18.199   0.108  0.00  0.00     0.039 A 
ATOM     11  C   UNL d   1      24.851 -17.016  -0.210  0.00  0.00     0.069 A 
ATOM     12  C   UNL d   1      25.601 -15.875  -0.468  0.00  0.00     0.039 A 
ATOM     13  C   UNL d   1      26.991 -15.909  -0.375  0.00  0.00     0.032 A 
BRANCH  11  14
ATOM     14  O   UNL d   1      23.480 -17.065  -0.228  0.00  0.00    -0.349 OA
BRANCH  14  15
ATOM     15  C   UNL d   1      22.892 -17.865  -1.267  0.00  0.00     0.202 C 
BRANCH  15  16
ATOM     16  C   UNL d   1      22.016 -18.954  -0.651  0.00  0.00     0.202 C 
BRANCH  16  17
ATOM     17  O   UNL d   1      20.670 -18.473  -0.511  0.00  0.00    -0.349 OA
BRANCH  17  18
ATOM     18  C   UNL d   1      19.820 -19.332   0.140  0.00  0.00     0.068 A 
ATOM     19  C   UNL d   1      20.021 -19.518   1.511  0.00  0.00     0.037 A 
ATOM     20  C   UNL d   1      19.236 -20.436   2.221  0.00  0.00     0.003 A 
ATOM     21  C   UNL d   1      18.218 -21.134   1.571  0.00  0.00     0.000 A 
ATOM     22  C   UNL d   1      18.028 -20.961   0.204  0.00  0.00     0.003 A 
ATOM     23  C   UNL d   1      18.841 -20.081  -0.511  0.00  0.00     0.037 A 
ENDBRANCH  17  18
ENDBRANCH  16  17
ENDBRANCH  15  16
ENDBRANCH  14  15
ENDBRANCH  11  14
ENDBRANCH   6   8
ENDBRANCH   5   6
ENDBRANCH   2   5
BRANCH   3  24
ATOM     24  C   UNL d   1      31.443 -17.903  -3.503  0.00  0.00     0.037 A 
ATOM     25  C   UNL d   1      31.470 -19.275  -3.732  0.00  0.00     0.029 A 
ATOM     26  C   UNL d   1      30.981 -19.782  -4.944  0.00  0.00     0.005 A 
ATOM     27  C   UNL d   1      30.427 -18.925  -5.905  0.00  0.00     0.037 A 
ATOM     28  C   UNL d   1      30.430 -17.549  -5.695  0.00  0.00     0.070 A 
ATOM     29  C   UNL d   1      30.979 -17.065  -4.515  0.00  0.00     0.066 A 
BRANCH  28  30
ATOM     30  O   UNL d   1      29.927 -16.748  -6.686  0.00  0.00    -0.349 OA
BRANCH  30  31
ATOM     31  C   UNL d   1      29.910 -15.337  -6.403  0.00  0.00     0.202 C 
BRANCH  31  32
ATOM     32  C   UNL d   1      28.474 -14.836  -6.351  0.00  0.00     0.202 C 
BRANCH  32  33
ATOM     33  O   UNL d   1      27.756 -15.593  -5.371  0.00  0.00    -0.349 OA
BRANCH  33  34
ATOM     34  C   UNL d   1      27.063 -14.857  -4.447  0.00  0.00     0.068 A 
ATOM     35  C   UNL d   1      25.752 -14.512  -4.789  0.00  0.00     0.037 A 
ATOM     36  C   UNL d   1      25.008 -13.659  -3.968  0.00  0.00     0.003 A 
ATOM     37  C   UNL d   1      25.553 -13.192  -2.773  0.00  0.00     0.000 A 
ATOM     38  C   UNL d   1      26.854 -13.543  -2.423  0.00  0.00     0.003 A 
ATOM     39  C   UNL d   1      27.612 -14.361  -3.265  0.00  0.00     0.037 A 
ENDBRANCH  33  34
ENDBRANCH  32  33
ENDBRANCH  31  32
ENDBRANCH  30  31
ENDBRANCH  28  30
ENDBRANCH   3  24
TORSDOF 14
ENDMDL
MODEL 3
REMARK VINA RESULT:    -9.714      4.406     10.608
REMARK INTER + INTRA:         -15.289
REMARK INTER:                 -13.890
REMARK INTRA:                  -1.399
REMARK CONF_INDEPENDENT:        4.176
REMARK UNBOUND:                -1.399
REMARK  14 active torsions:
REMARK  status: ('A' for Active; 'I' for Inactive)
REMARK    1  A    between atoms: C_2  and  C_3 
REMARK       I    between atoms: C_2  and  N_21 
REMARK    2  A    between atoms: C_3  and  N_4 
REMARK    3  A    between atoms: N_4  and  C_5 
REMARK    4  A    between atoms: C_8  and  O_9 
REMARK    5  A    between atoms: O_9  and  C_10 
REMARK    6  A    between atoms: C_10  and  C_11 
REMARK    7  A    between atoms: C_11  and  O_12 
REMARK    8  A    between atoms: O_12  and  C_13 
REMARK    9  A    between atoms: N_21  and  C_22 
REMARK   10  A    between atoms: C_26  and  O_27 
REMARK   11  A    between atoms: O_27  and  C_28 
REMARK   12  A    between atoms: C_28  and  C_29 
REMARK   13  A    between atoms: C_29  and  O_30 
REMARK   14  A    between atoms: O_30  and  C_31 
ROOT
ATOM      1  O   UNL d   1      25.155 -14.436  -5.016  0.00  0.00    -0.271 OA
ATOM      2  C   UNL d   1      25.402 -14.657  -3.820  0.00  0.00     0.239 C 
ATOM      3  N   UNL d   1      25.756 -15.937  -3.429  0.00  0.00    -0.326 N 
ATOM      4  H   UNL d   1      25.898 -16.586  -4.194  0.00  0.00     0.169 HD
ENDROOT
BRANCH   2   5
ATOM      5  C   UNL d   1      25.452 -13.536  -2.772  0.00  0.00     0.223 C 
BRANCH   5   6
ATOM      6  N   UNL d   1      26.477 -12.530  -3.012  0.00  0.00    -0.381 N 
ATOM      7  H   UNL d   1      27.404 -12.679  -2.626  0.00  0.00     0.160 HD
BRANCH   6   8
ATOM      8  C   UNL d   1      26.145 -11.378  -3.700  0.00  0.00     0.028 A 
ATOM      9  C   UNL d   1      25.941 -11.380  -5.082  0.00  0.00     0.032 A 
ATOM     10  C   UNL d   1      25.595 -10.196  -5.762  0.00  0.00     0.039 A 
ATOM     11  C   UNL d   1      25.380  -9.005  -5.060  0.00  0.00     0.069 A 
ATOM     12  C   UNL d   1      25.573  -9.003  -3.685  0.00  0.00     0.039 A 
ATOM     13  C   UNL d   1      25.939 -10.174  -3.022  0.00  0.00     0.032 A 
BRANCH  11  14
ATOM     14  O   UNL d   1      24.973  -7.916  -5.789  0.00  0.00    -0.349 OA
BRANCH  14  15
ATOM     15  C   UNL d   1      23.573  -7.860  -6.107  0.00  0.00     0.202 C 
BRANCH  15  16
ATOM     16  C   UNL d   1      23.208  -6.463  -6.604  0.00  0.00     0.202 C 
BRANCH  16  17
ATOM     17  O   UNL d   1      21.906  -6.099  -6.117  0.00  0.00    -0.349 OA
BRANCH  17  18
ATOM     18  C   UNL d   1      20.900  -6.203  -7.044  0.00  0.00     0.068 A 
ATOM     19  C   UNL d   1      21.264  -6.523  -8.356  0.00  0.00     0.037 A 
ATOM     20  C   UNL d   1      20.294  -6.573  -9.365  0.00  0.00     0.003 A 
ATOM     21  C   UNL d   1      18.953  -6.351  -9.056  0.00  0.00     0.000 A 
ATOM     22  C   UNL d   1      18.590  -6.018  -7.755  0.00  0.00     0.003 A 
ATOM     23  C   UNL d   1      19.563  -5.923  -6.759  0.00  0.00     0.037 A 
ENDBRANCH  17  18
ENDBRANCH  16  17
ENDBRANCH  15  16
ENDBRANCH  14  15
ENDBRANCH  11  14
ENDBRANCH   6   8
ENDBRANCH   5   6
ENDBRANCH   2   5
BRANCH   3  24
ATOM     24  C   UNL d   1      25.953 -16.413  -2.119  0.00  0.00     0.037 A 
ATOM     25  C   UNL d   1      27.110 -16.104  -1.411  0.00  0.00     0.029 A 
ATOM     26  C   UNL d   1      27.289 -16.622  -0.121  0.00  0.00     0.005 A 
ATOM     27  C   UNL d   1      26.294 -17.410   0.477  0.00  0.00     0.037 A 
ATOM     28  C   UNL d   1      25.152 -17.751  -0.242  0.00  0.00     0.070 A 
ATOM     29  C   UNL d   1      25.027 -17.279  -1.542  0.00  0.00     0.066 A 
BRANCH  28  30
ATOM     30  O   UNL d   1      24.233 -18.568   0.364  0.00  0.00    -0.349 OA
BRANCH  30  31
ATOM     31  C   UNL d   1      23.369 -19.304  -0.521  0.00  0.00     0.202 C 
BRANCH  31  32
ATOM     32  C   UNL d   1      22.025 -18.599  -0.636  0.00  0.00     0.202 C 
BRANCH  32  33
ATOM     33  O   UNL d   1      21.400 -18.583   0.652  0.00  0.00    -0.349 OA
BRANCH  33  34
ATOM     34  C   UNL d   1      20.343 -19.441   0.806  0.00  0.00     0.068 A 
ATOM     35  C   UNL d   1      19.576 -19.689  -0.336  0.00  0.00     0.037 A 
ATOM     36  C   UNL d   1      18.407 -20.451  -0.250  0.00  0.00     0.003 A 
ATOM     37  C   UNL d   1      18.030 -21.014   0.967  0.00  0.00     0.000 A 
ATOM     38  C   UNL d   1      18.798 -20.779   2.104  0.00  0.00     0.003 A 
ATOM     39  C   UNL d   1      19.943 -19.983   2.028  0.00  0.00     0.037 A 
ENDBRANCH  33  34
ENDBRANCH  32  33
ENDBRANCH  31  32
ENDBRANCH  30  31
ENDBRANCH  28  30
ENDBRANCH   3  24
TORSDOF 14
ENDMDL
MODEL 4
REMARK VINA RESULT:    -9.531      2.966      5.730
REMARK INTER + INTRA:         -15.928
REMARK INTER:                 -13.707
REMARK INTRA:                  -2.220
REMARK CONF_INDEPENDENT:        4.176
REMARK UNBOUND:                -2.220
REMARK  14 active torsions:
REMARK  status: ('A' for Active; 'I' for Inactive)
REMARK    1  A    between atoms: C_2  and  C_3 
REMARK       I    between atoms: C_2  and  N_21 
REMARK    2  A    between atoms: C_3  and  N_4 
REMARK    3  A    between atoms: N_4  and  C_5 
REMARK    4  A    between atoms: C_8  and  O_9 
REMARK    5  A    between atoms: O_9  and  C_10 
REMARK    6  A    between atoms: C_10  and  C_11 
REMARK    7  A    between atoms: C_11  and  O_12 
REMARK    8  A    between atoms: O_12  and  C_13 
REMARK    9  A    between atoms: N_21  and  C_22 
REMARK   10  A    between atoms: C_26  and  O_27 
REMARK   11  A    between atoms: O_27  and  C_28 
REMARK   12  A    between atoms: C_28  and  C_29 
REMARK   13  A    between atoms: C_29  and  O_30 
REMARK   14  A    between atoms: O_30  and  C_31 
ROOT
ATOM      1  O   UNL d   1      30.272 -16.587   0.331  0.00  0.00    -0.271 OA
ATOM      2  C   UNL d   1      30.080 -16.256  -0.849  0.00  0.00     0.239 C 
ATOM      3  N   UNL d   1      30.496 -17.101  -1.864  0.00  0.00    -0.326 N 
ATOM      4  H   UNL d   1      30.833 -18.003  -1.548  0.00  0.00     0.169 HD
ENDROOT
BRANCH   2   5
ATOM      5  C   UNL d   1      29.287 -14.998  -1.230  0.00  0.00     0.223 C 
BRANCH   5   6
ATOM      6  N   UNL d   1      28.059 -14.806  -0.471  0.00  0.00    -0.381 N 
ATOM      7  H   UNL d   1      27.950 -13.954   0.069  0.00  0.00     0.160 HD
BRANCH   6   8
ATOM      8  C   UNL d   1      27.109 -15.812  -0.455  0.00  0.00     0.028 A 
ATOM      9  C   UNL d   1      26.132 -15.914  -1.447  0.00  0.00     0.032 A 
ATOM     10  C   UNL d   1      25.179 -16.952  -1.417  0.00  0.00     0.039 A 
ATOM     11  C   UNL d   1      25.232 -17.943  -0.431  0.00  0.00     0.069 A 
ATOM     12  C   UNL d   1      26.210 -17.847   0.551  0.00  0.00     0.039 A 
ATOM     13  C   UNL d   1      27.135 -16.805   0.528  0.00  0.00     0.032 A 
BRANCH  11  14
ATOM     14  O   UNL d   1      24.314 -18.958  -0.517  0.00  0.00    -0.349 OA
BRANCH  14  15
ATOM     15  C   UNL d   1      23.131 -18.674  -1.282  0.00  0.00     0.202 C 
BRANCH  15  16
ATOM     16  C   UNL d   1      22.027 -18.159  -0.360  0.00  0.00     0.202 C 
BRANCH  16  17
ATOM     17  O   UNL d   1      20.743 -18.517  -0.894  0.00  0.00    -0.349 OA
BRANCH  17  18
ATOM     18  C   UNL d   1      19.973 -19.291  -0.061  0.00  0.00     0.068 A 
ATOM     19  C   UNL d   1      20.351 -19.360   1.283  0.00  0.00     0.037 A 
ATOM     20  C   UNL d   1      19.652 -20.189   2.170  0.00  0.00     0.003 A 
ATOM     21  C   UNL d   1      18.546 -20.912   1.726  0.00  0.00     0.000 A 
ATOM     22  C   UNL d   1      18.178 -20.856   0.385  0.00  0.00     0.003 A 
ATOM     23  C   UNL d   1      18.903 -20.066  -0.508  0.00  0.00     0.037 A 
ENDBRANCH  17  18
ENDBRANCH  16  17
ENDBRANCH  15  16
ENDBRANCH  14  15
ENDBRANCH  11  14
ENDBRANCH   6   8
ENDBRANCH   5   6
ENDBRANCH   2   5
BRANCH   3  24
ATOM     24  C   UNL d   1      30.483 -16.855  -3.249  0.00  0.00     0.037 A 
ATOM     25  C   UNL d   1      31.617 -17.071  -4.026  0.00  0.00     0.029 A 
ATOM     26  C   UNL d   1      31.579 -16.784  -5.397  0.00  0.00     0.005 A 
ATOM     27  C   UNL d   1      30.398 -16.325  -5.999  0.00  0.00     0.037 A 
ATOM     28  C   UNL d   1      29.273 -16.074  -5.220  0.00  0.00     0.070 A 
ATOM     29  C   UNL d   1      29.354 -16.304  -3.852  0.00  0.00     0.066 A 
BRANCH  28  30
ATOM     30  O   UNL d   1      28.160 -15.574  -5.843  0.00  0.00    -0.349 OA
BRANCH  30  31
ATOM     31  C   UNL d   1      27.290 -14.771  -5.025  0.00  0.00     0.202 C 
BRANCH  31  32
ATOM     32  C   UNL d   1      25.901 -15.390  -4.983  0.00  0.00     0.202 C 
BRANCH  32  33
ATOM     33  O   UNL d   1      25.008 -14.479  -4.333  0.00  0.00    -0.349 OA
BRANCH  33  34
ATOM     34  C   UNL d   1      25.505 -13.223  -4.108  0.00  0.00     0.068 A 
ATOM     35  C   UNL d   1      25.900 -12.940  -2.797  0.00  0.00     0.037 A 
ATOM     36  C   UNL d   1      26.304 -11.649  -2.443  0.00  0.00     0.003 A 
ATOM     37  C   UNL d   1      26.367 -10.649  -3.411  0.00  0.00     0.000 A 
ATOM     38  C   UNL d   1      25.985 -10.930  -4.720  0.00  0.00     0.003 A 
ATOM     39  C   UNL d   1      25.541 -12.209  -5.065  0.00  0.00     0.037 A 
ENDBRANCH  33  34
ENDBRANCH  32  33
ENDBRANCH  31  32
ENDBRANCH  30  31
ENDBRANCH  28  30
ENDBRANCH   3  24
TORSDOF 14
ENDMDL
MODEL 5
REMARK VINA RESULT:    -9.500      2.087      9.452
REMARK INTER + INTRA:         -15.659
REMARK INTER:                 -13.677
REMARK INTRA:                  -1.983
REMARK CONF_INDEPENDENT:        4.176
REMARK UNBOUND:                -1.983
REMARK  14 active torsions:
REMARK  status: ('A' for Active; 'I' for Inactive)
REMARK    1  A    between atoms: C_2  and  C_3 
REMARK       I    between atoms: C_2  and  N_21 
REMARK    2  A    between atoms: C_3  and  N_4 
REMARK    3  A    between atoms: N_4  and  C_5 
REMARK    4  A    between atoms: C_8  and  O_9 
REMARK    5  A    between atoms: O_9  and  C_10 
REMARK    6  A    between atoms: C_10  and  C_11 
REMARK    7  A    between atoms: C_11  and  O_12 
REMARK    8  A    between atoms: O_12  and  C_13 
REMARK    9  A    between atoms: N_21  and  C_22 
REMARK   10  A    between atoms: C_26  and  O_27 
REMARK   11  A    between atoms: O_27  and  C_28 
REMARK   12  A    between atoms: C_28  and  C_29 
REMARK   13  A    between atoms: C_29  and  O_30 
REMARK   14  A    between atoms: O_30  and  C_31 
ROOT
ATOM      1  O   UNL d   1      25.731 -13.406  -4.625  0.00  0.00    -0.271 OA
ATOM      2  C   UNL d   1      25.832 -13.924  -3.502  0.00  0.00     0.239 C 
ATOM      3  N   UNL d   1      25.835 -15.304  -3.391  0.00  0.00    -0.326 N 
ATOM      4  H   UNL d   1      25.868 -15.796  -4.276  0.00  0.00     0.169 HD
ENDROOT
BRANCH   2   5
ATOM      5  C   UNL d   1      26.080 -13.092  -2.234  0.00  0.00     0.223 C 
BRANCH   5   6
ATOM      6  N   UNL d   1      27.407 -13.256  -1.656  0.00  0.00    -0.381 N 
ATOM      7  H   UNL d   1      28.212 -13.231  -2.272  0.00  0.00     0.160 HD
BRANCH   6   8
ATOM      8  C   UNL d   1      27.527 -13.503  -0.300  0.00  0.00     0.028 A 
ATOM      9  C   UNL d   1      26.570 -13.060   0.615  0.00  0.00     0.032 A 
ATOM     10  C   UNL d   1      26.708 -13.331   1.991  0.00  0.00     0.039 A 
ATOM     11  C   UNL d   1      27.771 -14.107   2.464  0.00  0.00     0.069 A 
ATOM     12  C   UNL d   1      28.719 -14.556   1.553  0.00  0.00     0.039 A 
ATOM     13  C   UNL d   1      28.588 -14.265   0.196  0.00  0.00     0.032 A 
BRANCH  11  14
ATOM     14  O   UNL d   1      27.791 -14.387   3.807  0.00  0.00    -0.349 OA
BRANCH  14  15
ATOM     15  C   UNL d   1      28.746 -13.651   4.589  0.00  0.00     0.202 C 
BRANCH  15  16
ATOM     16  C   UNL d   1      28.728 -14.148   6.033  0.00  0.00     0.202 C 
BRANCH  16  17
ATOM     17  O   UNL d   1      29.498 -13.260   6.861  0.00  0.00    -0.349 OA
BRANCH  17  18
ATOM     18  C   UNL d   1      29.184 -13.310   8.196  0.00  0.00     0.068 A 
ATOM     19  C   UNL d   1      29.579 -14.447   8.908  0.00  0.00     0.037 A 
ATOM     20  C   UNL d   1      29.228 -14.592  10.256  0.00  0.00     0.003 A 
ATOM     21  C   UNL d   1      28.522 -13.582  10.907  0.00  0.00     0.000 A 
ATOM     22  C   UNL d   1      28.115 -12.457  10.197  0.00  0.00     0.003 A 
ATOM     23  C   UNL d   1      28.426 -12.333   8.842  0.00  0.00     0.037 A 
ENDBRANCH  17  18
ENDBRANCH  16  17
ENDBRANCH  15  16
ENDBRANCH  14  15
ENDBRANCH  11  14
ENDBRANCH   6   8
ENDBRANCH   5   6
ENDBRANCH   2   5
BRANCH   3  24
ATOM     24  C   UNL d   1      25.817 -16.073  -2.213  0.00  0.00     0.037 A 
ATOM     25  C   UNL d   1      27.001 -16.491  -1.613  0.00  0.00     0.029 A 
ATOM     26  C   UNL d   1      26.947 -17.284  -0.458  0.00  0.00     0.005 A 
ATOM     27  C   UNL d   1      25.714 -17.621   0.120  0.00  0.00     0.037 A 
ATOM     28  C   UNL d   1      24.528 -17.235  -0.497  0.00  0.00     0.070 A 
ATOM     29  C   UNL d   1      24.607 -16.505  -1.676  0.00  0.00     0.066 A 
BRANCH  28  30
ATOM     30  O   UNL d   1      23.349 -17.634   0.075  0.00  0.00    -0.349 OA
BRANCH  30  31
ATOM     31  C   UNL d   1      22.184 -17.551  -0.767  0.00  0.00     0.202 C 
BRANCH  31  32
ATOM     32  C   UNL d   1      21.809 -18.937  -1.269  0.00  0.00     0.202 C 
BRANCH  32  33
ATOM     33  O   UNL d   1      20.389 -19.095  -1.174  0.00  0.00    -0.349 OA
BRANCH  33  34
ATOM     34  C   UNL d   1      19.936 -19.687  -0.025  0.00  0.00     0.068 A 
ATOM     35  C   UNL d   1      18.767 -20.445  -0.140  0.00  0.00     0.037 A 
ATOM     36  C   UNL d   1      18.160 -20.985   0.997  0.00  0.00     0.003 A 
ATOM     37  C   UNL d   1      18.748 -20.815   2.249  0.00  0.00     0.000 A 
ATOM     38  C   UNL d   1      19.918 -20.069   2.366  0.00  0.00     0.003 A 
ATOM     39  C   UNL d   1      20.503 -19.494   1.235  0.00  0.00     0.037 A 
ENDBRANCH  33  34
ENDBRANCH  32  33
ENDBRANCH  31  32
ENDBRANCH  30  31
ENDBRANCH  28  30
ENDBRANCH   3  24
TORSDOF 14
ENDMDL
MODEL 6
REMARK VINA RESULT:    -9.270      2.875     10.608
REMARK INTER + INTRA:         -15.344
REMARK INTER:                 -13.446
REMARK INTRA:                  -1.898
REMARK CONF_INDEPENDENT:        4.176
REMARK UNBOUND:                -1.898
REMARK  14 active torsions:
REMARK  status: ('A' for Active; 'I' for Inactive)
REMARK    1  A    between atoms: C_2  and  C_3 
REMARK       I    between atoms: C_2  and  N_21 
REMARK    2  A    between atoms: C_3  and  N_4 
REMARK    3  A    between atoms: N_4  and  C_5 
REMARK    4  A    between atoms: C_8  and  O_9 
REMARK    5  A    between atoms: O_9  and  C_10 
REMARK    6  A    between atoms: C_10  and  C_11 
REMARK    7  A    between atoms: C_11  and  O_12 
REMARK    8  A    between atoms: O_12  and  C_13 
REMARK    9  A    between atoms: N_21  and  C_22 
REMARK   10  A    between atoms: C_26  and  O_27 
REMARK   11  A    between atoms: O_27  and  C_28 
REMARK   12  A    between atoms: C_28  and  C_29 
REMARK   13  A    between atoms: C_29  and  O_30 
REMARK   14  A    between atoms: O_30  and  C_31 
ROOT
ATOM      1  O   UNL d   1      29.272 -13.035  -0.467  0.00  0.00    -0.271 OA
ATOM      2  C   UNL d   1      28.454 -13.839   0.006  0.00  0.00     0.239 C 
ATOM      3  N   UNL d   1      28.265 -15.059  -0.622  0.00  0.00    -0.326 N 
ATOM      4  H   UNL d   1      28.914 -15.246  -1.378  0.00  0.00     0.169 HD
ENDROOT
BRANCH   2   5
ATOM      5  C   UNL d   1      27.730 -13.587   1.336  0.00  0.00     0.223 C 
BRANCH   5   6
ATOM      6  N   UNL d   1      28.313 -14.273   2.480  0.00  0.00    -0.381 N 
ATOM      7  H   UNL d   1      28.612 -15.237   2.369  0.00  0.00     0.160 HD
BRANCH   6   8
ATOM      8  C   UNL d   1      28.386 -13.619   3.696  0.00  0.00     0.028 A 
ATOM      9  C   UNL d   1      29.008 -12.375   3.825  0.00  0.00     0.032 A 
ATOM     10  C   UNL d   1      29.063 -11.721   5.072  0.00  0.00     0.039 A 
ATOM     11  C   UNL d   1      28.437 -12.270   6.196  0.00  0.00     0.069 A 
ATOM     12  C   UNL d   1      27.810 -13.503   6.067  0.00  0.00     0.039 A 
ATOM     13  C   UNL d   1      27.779 -14.155   4.835  0.00  0.00     0.032 A 
BRANCH  11  14
ATOM     14  O   UNL d   1      28.473 -11.534   7.352  0.00  0.00    -0.349 OA
BRANCH  14  15
ATOM     15  C   UNL d   1      29.575 -10.621   7.482  0.00  0.00     0.202 C 
BRANCH  15  16
ATOM     16  C   UNL d   1      29.570  -9.996   8.876  0.00  0.00     0.202 C 
BRANCH  16  17
ATOM     17  O   UNL d   1      30.208 -10.883   9.809  0.00  0.00    -0.349 OA
BRANCH  17  18
ATOM     18  C   UNL d   1      29.694 -12.156   9.827  0.00  0.00     0.068 A 
ATOM     19  C   UNL d   1      28.463 -12.344  10.463  0.00  0.00     0.037 A 
ATOM     20  C   UNL d   1      27.919 -13.629  10.580  0.00  0.00     0.003 A 
ATOM     21  C   UNL d   1      28.580 -14.721  10.021  0.00  0.00     0.000 A 
ATOM     22  C   UNL d   1      29.812 -14.539   9.402  0.00  0.00     0.003 A 
ATOM     23  C   UNL d   1      30.376 -13.264   9.326  0.00  0.00     0.037 A 
ENDBRANCH  17  18
ENDBRANCH  16  17
ENDBRANCH  15  16
ENDBRANCH  14  15
ENDBRANCH  11  14
ENDBRANCH   6   8
ENDBRANCH   5   6
ENDBRANCH   2   5
BRANCH   3  24
ATOM     24  C   UNL d   1      27.308 -16.045  -0.319  0.00  0.00     0.037 A 
ATOM     25  C   UNL d   1      27.677 -17.230   0.310  0.00  0.00     0.029 A 
ATOM     26  C   UNL d   1      26.703 -18.206   0.568  0.00  0.00     0.005 A 
ATOM     27  C   UNL d   1      25.359 -17.978   0.240  0.00  0.00     0.037 A 
ATOM     28  C   UNL d   1      24.993 -16.809  -0.420  0.00  0.00     0.070 A 
ATOM     29  C   UNL d   1      25.985 -15.886  -0.724  0.00  0.00     0.066 A 
BRANCH  28  30
ATOM     30  O   UNL d   1      23.677 -16.655  -0.769  0.00  0.00    -0.349 OA
BRANCH  30  31
ATOM     31  C   UNL d   1      23.024 -17.829  -1.286  0.00  0.00     0.202 C 
BRANCH  31  32
ATOM     32  C   UNL d   1      22.104 -18.419  -0.226  0.00  0.00     0.202 C 
BRANCH  32  33
ATOM     33  O   UNL d   1      20.835 -18.705  -0.823  0.00  0.00    -0.349 OA
BRANCH  33  34
ATOM     34  C   UNL d   1      19.955 -19.400  -0.036  0.00  0.00     0.068 A 
ATOM     35  C   UNL d   1      20.289 -19.509   1.317  0.00  0.00     0.037 A 
ATOM     36  C   UNL d   1      19.520 -20.302   2.173  0.00  0.00     0.003 A 
ATOM     37  C   UNL d   1      18.381 -20.945   1.692  0.00  0.00     0.000 A 
ATOM     38  C   UNL d   1      18.039 -20.830   0.348  0.00  0.00     0.003 A 
ATOM     39  C   UNL d   1      18.832 -20.072  -0.518  0.00  0.00     0.037 A 
ENDBRANCH  33  34
ENDBRANCH  32  33
ENDBRANCH  31  32
ENDBRANCH  30  31
ENDBRANCH  28  30
ENDBRANCH   3  24
TORSDOF 14
ENDMDL
MODEL 7
REMARK VINA RESULT:    -8.872      2.718      4.663
REMARK INTER + INTRA:         -16.116
REMARK INTER:                 -13.048
REMARK INTRA:                  -3.068
REMARK CONF_INDEPENDENT:        4.176
REMARK UNBOUND:                -3.068
REMARK  14 active torsions:
REMARK  status: ('A' for Active; 'I' for Inactive)
REMARK    1  A    between atoms: C_2  and  C_3 
REMARK       I    between atoms: C_2  and  N_21 
REMARK    2  A    between atoms: C_3  and  N_4 
REMARK    3  A    between atoms: N_4  and  C_5 
REMARK    4  A    between atoms: C_8  and  O_9 
REMARK    5  A    between atoms: O_9  and  C_10 
REMARK    6  A    between atoms: C_10  and  C_11 
REMARK    7  A    between atoms: C_11  and  O_12 
REMARK    8  A    between atoms: O_12  and  C_13 
REMARK    9  A    between atoms: N_21  and  C_22 
REMARK   10  A    between atoms: C_26  and  O_27 
REMARK   11  A    between atoms: O_27  and  C_28 
REMARK   12  A    between atoms: C_28  and  C_29 
REMARK   13  A    between atoms: C_29  and  O_30 
REMARK   14  A    between atoms: O_30  and  C_31 
ROOT
ATOM      1  O   UNL d   1      31.720 -16.439  -0.650  0.00  0.00    -0.271 OA
ATOM      2  C   UNL d   1      31.056 -16.537  -1.693  0.00  0.00     0.239 C 
ATOM      3  N   UNL d   1      31.510 -15.916  -2.844  0.00  0.00    -0.326 N 
ATOM      4  H   UNL d   1      32.436 -15.511  -2.765  0.00  0.00     0.169 HD
ENDROOT
BRANCH   2   5
ATOM      5  C   UNL d   1      29.810 -17.428  -1.791  0.00  0.00     0.223 C 
BRANCH   5   6
ATOM      6  N   UNL d   1      29.098 -17.612  -0.534  0.00  0.00    -0.381 N 
ATOM      7  H   UNL d   1      29.625 -17.899   0.284  0.00  0.00     0.160 HD
BRANCH   6   8
ATOM      8  C   UNL d   1      27.725 -17.452  -0.505  0.00  0.00     0.028 A 
ATOM      9  C   UNL d   1      27.038 -16.804  -1.534  0.00  0.00     0.032 A 
ATOM     10  C   UNL d   1      25.637 -16.660  -1.488  0.00  0.00     0.039 A 
ATOM     11  C   UNL d   1      24.895 -17.223  -0.444  0.00  0.00     0.069 A 
ATOM     12  C   UNL d   1      25.575 -17.875   0.575  0.00  0.00     0.039 A 
ATOM     13  C   UNL d   1      26.964 -17.993   0.535  0.00  0.00     0.032 A 
BRANCH  11  14
ATOM     14  O   UNL d   1      23.530 -17.102  -0.514  0.00  0.00    -0.349 OA
BRANCH  14  15
ATOM     15  C   UNL d   1      22.773 -18.204   0.012  0.00  0.00     0.202 C 
BRANCH  15  16
ATOM     16  C   UNL d   1      21.930 -18.832  -1.096  0.00  0.00     0.202 C 
BRANCH  16  17
ATOM     17  O   UNL d   1      20.543 -18.518  -0.887  0.00  0.00    -0.349 OA
BRANCH  17  18
ATOM     18  C   UNL d   1      19.888 -19.370  -0.033  0.00  0.00     0.068 A 
ATOM     19  C   UNL d   1      18.793 -20.075  -0.541  0.00  0.00     0.037 A 
ATOM     20  C   UNL d   1      18.038 -20.904   0.297  0.00  0.00     0.003 A 
ATOM     21  C   UNL d   1      18.404 -21.067   1.633  0.00  0.00     0.000 A 
ATOM     22  C   UNL d   1      19.484 -20.355   2.144  0.00  0.00     0.003 A 
ATOM     23  C   UNL d   1      20.208 -19.493   1.319  0.00  0.00     0.037 A 
ENDBRANCH  17  18
ENDBRANCH  16  17
ENDBRANCH  15  16
ENDBRANCH  14  15
ENDBRANCH  11  14
ENDBRANCH   6   8
ENDBRANCH   5   6
ENDBRANCH   2   5
BRANCH   3  24
ATOM     24  C   UNL d   1      30.849 -15.807  -4.081  0.00  0.00     0.037 A 
ATOM     25  C   UNL d   1      31.565 -15.770  -5.274  0.00  0.00     0.029 A 
ATOM     26  C   UNL d   1      30.877 -15.628  -6.487  0.00  0.00     0.005 A 
ATOM     27  C   UNL d   1      29.476 -15.567  -6.511  0.00  0.00     0.037 A 
ATOM     28  C   UNL d   1      28.759 -15.567  -5.319  0.00  0.00     0.070 A 
ATOM     29  C   UNL d   1      29.466 -15.644  -4.126  0.00  0.00     0.066 A 
BRANCH  28  30
ATOM     30  O   UNL d   1      27.396 -15.451  -5.390  0.00  0.00    -0.349 OA
BRANCH  30  31
ATOM     31  C   UNL d   1      26.736 -15.062  -4.172  0.00  0.00     0.202 C 
BRANCH  31  32
ATOM     32  C   UNL d   1      26.665 -13.544  -4.083  0.00  0.00     0.202 C 
BRANCH  32  33
ATOM     33  O   UNL d   1      27.773 -13.074  -3.309  0.00  0.00    -0.349 OA
BRANCH  33  34
ATOM     34  C   UNL d   1      27.750 -13.407  -1.981  0.00  0.00     0.068 A 
ATOM     35  C   UNL d   1      26.694 -12.882  -1.230  0.00  0.00     0.037 A 
ATOM     36  C   UNL d   1      26.653 -13.064   0.155  0.00  0.00     0.003 A 
ATOM     37  C   UNL d   1      27.639 -13.817   0.789  0.00  0.00     0.000 A 
ATOM     38  C   UNL d   1      28.686 -14.351   0.043  0.00  0.00     0.003 A 
ATOM     39  C   UNL d   1      28.750 -14.134  -1.336  0.00  0.00     0.037 A 
ENDBRANCH  33  34
ENDBRANCH  32  33
ENDBRANCH  31  32
ENDBRANCH  30  31
ENDBRANCH  28  30
ENDBRANCH   3  24
TORSDOF 14
ENDMDL
MODEL 8
REMARK VINA RESULT:    -8.349      2.610      5.598
REMARK INTER + INTRA:         -15.704
REMARK INTER:                 -12.525
REMARK INTRA:                  -3.179
REMARK CONF_INDEPENDENT:        4.176
REMARK UNBOUND:                -3.179
REMARK  14 active torsions:
REMARK  status: ('A' for Active; 'I' for Inactive)
REMARK    1  A    between atoms: C_2  and  C_3 
REMARK       I    between atoms: C_2  and  N_21 
REMARK    2  A    between atoms: C_3  and  N_4 
REMARK    3  A    between atoms: N_4  and  C_5 
REMARK    4  A    between atoms: C_8  and  O_9 
REMARK    5  A    between atoms: O_9  and  C_10 
REMARK    6  A    between atoms: C_10  and  C_11 
REMARK    7  A    between atoms: C_11  and  O_12 
REMARK    8  A    between atoms: O_12  and  C_13 
REMARK    9  A    between atoms: N_21  and  C_22 
REMARK   10  A    between atoms: C_26  and  O_27 
REMARK   11  A    between atoms: O_27  and  C_28 
REMARK   12  A    between atoms: C_28  and  C_29 
REMARK   13  A    between atoms: C_29  and  O_30 
REMARK   14  A    between atoms: O_30  and  C_31 
ROOT
ATOM      1  O   UNL d   1      32.350 -15.762  -0.695  0.00  0.00    -0.271 OA
ATOM      2  C   UNL d   1      31.115 -15.680  -0.616  0.00  0.00     0.239 C 
ATOM      3  N   UNL d   1      30.518 -14.431  -0.641  0.00  0.00    -0.326 N 
ATOM      4  H   UNL d   1      31.152 -13.666  -0.840  0.00  0.00     0.169 HD
ENDROOT
BRANCH   2   5
ATOM      5  C   UNL d   1      30.208 -16.919  -0.617  0.00  0.00     0.223 C 
BRANCH   5   6
ATOM      6  N   UNL d   1      29.102 -16.856  -1.562  0.00  0.00    -0.381 N 
ATOM      7  H   UNL d   1      29.300 -16.607  -2.526  0.00  0.00     0.160 HD
BRANCH   6   8
ATOM      8  C   UNL d   1      27.813 -17.074  -1.110  0.00  0.00     0.028 A 
ATOM      9  C   UNL d   1      26.699 -16.631  -1.826  0.00  0.00     0.032 A 
ATOM     10  C   UNL d   1      25.394 -16.871  -1.352  0.00  0.00     0.039 A 
ATOM     11  C   UNL d   1      25.183 -17.619  -0.189  0.00  0.00     0.069 A 
ATOM     12  C   UNL d   1      26.290 -18.069   0.519  0.00  0.00     0.039 A 
ATOM     13  C   UNL d   1      27.578 -17.807   0.056  0.00  0.00     0.032 A 
BRANCH  11  14
ATOM     14  O   UNL d   1      23.881 -17.872   0.163  0.00  0.00    -0.349 OA
BRANCH  14  15
ATOM     15  C   UNL d   1      23.149 -18.740  -0.717  0.00  0.00     0.202 C 
BRANCH  15  16
ATOM     16  C   UNL d   1      21.724 -18.219  -0.894  0.00  0.00     0.202 C 
BRANCH  16  17
ATOM     17  O   UNL d   1      20.842 -19.312  -1.201  0.00  0.00    -0.349 OA
BRANCH  17  18
ATOM     18  C   UNL d   1      20.085 -19.748  -0.143  0.00  0.00     0.068 A 
ATOM     19  C   UNL d   1      20.598 -19.548   1.142  0.00  0.00     0.037 A 
ATOM     20  C   UNL d   1      19.910 -20.034   2.260  0.00  0.00     0.003 A 
ATOM     21  C   UNL d   1      18.684 -20.679   2.100  0.00  0.00     0.000 A 
ATOM     22  C   UNL d   1      18.179 -20.892   0.822  0.00  0.00     0.003 A 
ATOM     23  C   UNL d   1      18.888 -20.448  -0.295  0.00  0.00     0.037 A 
ENDBRANCH  17  18
ENDBRANCH  16  17
ENDBRANCH  15  16
ENDBRANCH  14  15
ENDBRANCH  11  14
ENDBRANCH   6   8
ENDBRANCH   5   6
ENDBRANCH   2   5
BRANCH   3  24
ATOM     24  C   UNL d   1      29.160 -14.122  -0.442  0.00  0.00     0.037 A 
ATOM     25  C   UNL d   1      28.545 -14.355   0.785  0.00  0.00     0.029 A 
ATOM     26  C   UNL d   1      27.182 -14.066   0.939  0.00  0.00     0.005 A 
ATOM     27  C   UNL d   1      26.447 -13.505  -0.116  0.00  0.00     0.037 A 
ATOM     28  C   UNL d   1      27.049 -13.304  -1.354  0.00  0.00     0.070 A 
ATOM     29  C   UNL d   1      28.384 -13.658  -1.502  0.00  0.00     0.066 A 
BRANCH  28  30
ATOM     30  O   UNL d   1      26.277 -12.805  -2.370  0.00  0.00    -0.349 OA
BRANCH  30  31
ATOM     31  C   UNL d   1      25.343 -13.728  -2.959  0.00  0.00     0.202 C 
BRANCH  31  32
ATOM     32  C   UNL d   1      25.766 -14.053  -4.384  0.00  0.00     0.202 C 
BRANCH  32  33
ATOM     33  O   UNL d   1      26.539 -15.257  -4.374  0.00  0.00    -0.349 OA
BRANCH  33  34
ATOM     34  C   UNL d   1      27.750 -15.188  -5.012  0.00  0.00     0.068 A 
ATOM     35  C   UNL d   1      27.806 -14.369  -6.143  0.00  0.00     0.037 A 
ATOM     36  C   UNL d   1      28.960 -14.330  -6.931  0.00  0.00     0.003 A 
ATOM     37  C   UNL d   1      30.082 -15.068  -6.560  0.00  0.00     0.000 A 
ATOM     38  C   UNL d   1      30.034 -15.877  -5.427  0.00  0.00     0.003 A 
ATOM     39  C   UNL d   1      28.866 -15.948  -4.664  0.00  0.00     0.037 A 
ENDBRANCH  33  34
ENDBRANCH  32  33
ENDBRANCH  31  32
ENDBRANCH  30  31
ENDBRANCH  28  30
ENDBRANCH   3  24
TORSDOF 14
ENDMDL
MODEL 9
REMARK VINA RESULT:    -8.049      3.649      7.740
REMARK INTER + INTRA:         -15.877
REMARK INTER:                 -12.225
REMARK INTRA:                  -3.652
REMARK CONF_INDEPENDENT:        4.176
REMARK UNBOUND:                -3.652
REMARK  14 active torsions:
REMARK  status: ('A' for Active; 'I' for Inactive)
REMARK    1  A    between atoms: C_2  and  C_3 
REMARK       I    between atoms: C_2  and  N_21 
REMARK    2  A    between atoms: C_3  and  N_4 
REMARK    3  A    between atoms: N_4  and  C_5 
REMARK    4  A    between atoms: C_8  and  O_9 
REMARK    5  A    between atoms: O_9  and  C_10 
REMARK    6  A    between atoms: C_10  and  C_11 
REMARK    7  A    between atoms: C_11  and  O_12 
REMARK    8  A    between atoms: O_12  and  C_13 
REMARK    9  A    between atoms: N_21  and  C_22 
REMARK   10  A    between atoms: C_26  and  O_27 
REMARK   11  A    between atoms: O_27  and  C_28 
REMARK   12  A    between atoms: C_28  and  C_29 
REMARK   13  A    between atoms: C_29  and  O_30 
REMARK   14  A    between atoms: O_30  and  C_31 
ROOT
ATOM      1  O   UNL d   1      33.071 -14.573   2.305  0.00  0.00    -0.271 OA
ATOM      2  C   UNL d   1      31.845 -14.386   2.344  0.00  0.00     0.239 C 
ATOM      3  N   UNL d   1      31.231 -14.183   3.568  0.00  0.00    -0.326 N 
ATOM      4  H   UNL d   1      31.871 -14.089   4.349  0.00  0.00     0.169 HD
ENDROOT
BRANCH   2   5
ATOM      5  C   UNL d   1      30.995 -14.246   1.073  0.00  0.00     0.223 C 
BRANCH   5   6
ATOM      6  N   UNL d   1      30.301 -15.463   0.675  0.00  0.00    -0.381 N 
ATOM      7  H   UNL d   1      30.097 -16.160   1.384  0.00  0.00     0.160 HD
BRANCH   6   8
ATOM      8  C   UNL d   1      29.996 -15.662  -0.659  0.00  0.00     0.028 A 
ATOM      9  C   UNL d   1      30.145 -16.910  -1.268  0.00  0.00     0.032 A 
ATOM     10  C   UNL d   1      29.820 -17.094  -2.627  0.00  0.00     0.039 A 
ATOM     11  C   UNL d   1      29.276 -16.047  -3.379  0.00  0.00     0.069 A 
ATOM     12  C   UNL d   1      29.118 -14.808  -2.772  0.00  0.00     0.039 A 
ATOM     13  C   UNL d   1      29.464 -14.628  -1.434  0.00  0.00     0.032 A 
BRANCH  11  14
ATOM     14  O   UNL d   1      28.918 -16.330  -4.673  0.00  0.00    -0.349 OA
BRANCH  14  15
ATOM     15  C   UNL d   1      29.584 -15.566  -5.692  0.00  0.00     0.202 C 
BRANCH  15  16
ATOM     16  C   UNL d   1      28.557 -14.794  -6.518  0.00  0.00     0.202 C 
BRANCH  16  17
ATOM     17  O   UNL d   1      27.230 -15.200  -6.144  0.00  0.00    -0.349 OA
BRANCH  17  18
ATOM     18  C   UNL d   1      26.679 -14.474  -5.117  0.00  0.00     0.068 A 
ATOM     19  C   UNL d   1      25.807 -15.143  -4.253  0.00  0.00     0.037 A 
ATOM     20  C   UNL d   1      25.156 -14.444  -3.229  0.00  0.00     0.003 A 
ATOM     21  C   UNL d   1      25.412 -13.087  -3.037  0.00  0.00     0.000 A 
ATOM     22  C   UNL d   1      26.268 -12.417  -3.906  0.00  0.00     0.003 A 
ATOM     23  C   UNL d   1      26.880 -13.104  -4.954  0.00  0.00     0.037 A 
ENDBRANCH  17  18
ENDBRANCH  16  17
ENDBRANCH  15  16
ENDBRANCH  14  15
ENDBRANCH  11  14
ENDBRANCH   6   8
ENDBRANCH   5   6
ENDBRANCH   2   5
BRANCH   3  24
ATOM     24  C   UNL d   1      29.853 -14.077   3.833  0.00  0.00     0.037 A 
ATOM     25  C   UNL d   1      29.256 -14.840   4.832  0.00  0.00     0.029 A 
ATOM     26  C   UNL d   1      27.875 -14.734   5.048  0.00  0.00     0.005 A 
ATOM     27  C   UNL d   1      27.101 -13.836   4.299  0.00  0.00     0.037 A 
ATOM     28  C   UNL d   1      27.688 -13.097   3.276  0.00  0.00     0.070 A 
ATOM     29  C   UNL d   1      29.046 -13.267   3.038  0.00  0.00     0.066 A 
BRANCH  28  30
ATOM     30  O   UNL d   1      26.882 -12.274   2.535  0.00  0.00    -0.349 OA
BRANCH  30  31
ATOM     31  C   UNL d   1      26.280 -12.868   1.371  0.00  0.00     0.202 C 
BRANCH  31  32
ATOM     32  C   UNL d   1      27.087 -14.082   0.934  0.00  0.00     0.202 C 
BRANCH  32  33
ATOM     33  O   UNL d   1      26.520 -14.604  -0.273  0.00  0.00    -0.349 OA
BRANCH  33  34
ATOM     34  C   UNL d   1      26.026 -15.879  -0.191  0.00  0.00     0.068 A 
ATOM     35  C   UNL d   1      26.923 -16.863   0.234  0.00  0.00     0.037 A 
ATOM     36  C   UNL d   1      26.548 -18.210   0.231  0.00  0.00     0.003 A 
ATOM     37  C   UNL d   1      25.257 -18.573  -0.145  0.00  0.00     0.000 A 
ATOM     38  C   UNL d   1      24.357 -17.594  -0.558  0.00  0.00     0.003 A 
ATOM     39  C   UNL d   1      24.744 -16.253  -0.595  0.00  0.00     0.037 A 
ENDBRANCH  33  34
ENDBRANCH  32  33
ENDBRANCH  31  32
ENDBRANCH  30  31
ENDBRANCH  28  30
ENDBRANCH   3  24
TORSDOF 14
ENDMDL
