MODEL 1
REMARK VINA RESULT:    -8.489      0.000      0.000
REMARK INTER + INTRA:         -11.894
REMARK INTER:                 -10.577
REMARK INTRA:                  -1.317
REMARK CONF_INDEPENDENT:        2.088
REMARK UNBOUND:                -1.317
REMARK  7 active torsions:
REMARK  status: ('A' for Active; 'I' for Inactive)
REMARK    1  A    between atoms: C_2  and  C_3 
REMARK    2  A    between atoms: C_6  and  N_7 
REMARK    3  A    between atoms: C_11  and  S_12 
REMARK    4  A    between atoms: S_12  and  N_15 
REMARK    5  A    between atoms: N_15  and  C_16 
REMARK    6  A    between atoms: C_18  and  N_19 
REMARK       I    between atoms: N_19  and  C_20 
REMARK    7  A    between atoms: C_25  and  O_26 
ROOT
ATOM      1  N   UNL d   1      27.139 -15.241  -3.289  0.00  0.00    -0.278 N 
ATOM      2  H   UNL d   1      28.061 -15.319  -2.854  0.00  0.00     0.179 HD
ENDROOT
BRANCH   1   3
ATOM      3  S   UNL d   1      25.711 -14.979  -2.277  0.00  0.00     0.263 S 
ATOM      4  O   UNL d   1      24.611 -14.654  -3.113  0.00  0.00    -0.200 OA
ATOM      5  O   UNL d   1      26.016 -14.119  -1.119  0.00  0.00    -0.200 OA
BRANCH   3   6
ATOM      6  C   UNL d   1      25.233 -16.471  -1.269  0.00  0.00     0.088 C 
ATOM      7  C   UNL d   1      23.865 -16.810  -1.502  0.00  0.00     0.061 C 
ATOM      8  C   UNL d   1      23.256 -17.855  -0.813  0.00  0.00     0.104 C 
ATOM      9  C   UNL d   1      23.979 -18.573   0.132  0.00  0.00     0.037 C 
ATOM     10  C   UNL d   1      25.274 -18.184   0.454  0.00  0.00     0.011 C 
ATOM     11  C   UNL d   1      25.950 -17.191  -0.273  0.00  0.00    -0.035 C 
BRANCH   8  12
ATOM     12  N   UNL d   1      21.841 -18.168  -1.039  0.00  0.00    -0.116 N 
ATOM     13  O   UNL d   1      21.024 -17.247  -0.897  0.00  0.00    -0.532 OA
ATOM     14  O   UNL d   1      21.547 -19.323  -1.376  0.00  0.00    -0.532 OA
ENDBRANCH   8  12
BRANCH  11  15
ATOM     15  C   UNL d   1      27.410 -17.120   0.134  0.00  0.00     0.035 C 
ATOM     16  C   UNL d   1      28.191 -17.063  -1.081  0.00  0.00     0.010 C 
ENDBRANCH  11  15
ENDBRANCH   3   6
ENDBRANCH   1   3
BRANCH   1  17
ATOM     17  C   UNL d   1      27.500 -14.771  -4.594  0.00  0.00     0.078 C 
ATOM     18  C   UNL d   1      28.455 -15.523  -5.383  0.00  0.00     0.062 C 
ATOM     19  C   UNL d   1      29.031 -14.932  -6.515  0.00  0.00     0.037 C 
ATOM     20  C   UNL d   1      28.455 -13.739  -6.893  0.00  0.00     0.032 C 
ATOM     21  C   UNL d   1      27.849 -12.887  -6.004  0.00  0.00     0.041 C 
ATOM     22  C   UNL d   1      27.438 -13.382  -4.807  0.00  0.00     0.095 C 
BRANCH  19  23
ATOM     23  N   UNL d   1      30.131 -15.446  -7.259  0.00  0.00    -0.327 N 
ATOM     24  C   UNL d   1      30.794 -16.658  -7.121  0.00  0.00     0.218 C 
ATOM     25  C   UNL d   1      30.428 -17.705  -6.078  0.00  0.00     0.117 C 
ATOM     26  O   UNL d   1      31.745 -16.900  -7.873  0.00  0.00    -0.274 OA
ATOM     27  H   UNL d   1      30.462 -14.937  -8.077  0.00  0.00     0.169 HD
ENDBRANCH  19  23
BRANCH  22  28
ATOM     28  O   UNL d   1      27.112 -12.354  -3.949  0.00  0.00    -0.354 OA
ATOM     29  C   UNL d   1      25.860 -11.811  -4.220  0.00  0.00     0.210 C 
ENDBRANCH  22  28
ENDBRANCH   1  17
TORSDOF 7
ENDMDL
MODEL 2
REMARK VINA RESULT:    -8.285      1.908      3.997
REMARK INTER + INTRA:         -12.031
REMARK INTER:                 -10.373
REMARK INTRA:                  -1.658
REMARK CONF_INDEPENDENT:        2.088
REMARK UNBOUND:                -1.658
REMARK  7 active torsions:
REMARK  status: ('A' for Active; 'I' for Inactive)
REMARK    1  A    between atoms: C_2  and  C_3 
REMARK    2  A    between atoms: C_6  and  N_7 
REMARK    3  A    between atoms: C_11  and  S_12 
REMARK    4  A    between atoms: S_12  and  N_15 
REMARK    5  A    between atoms: N_15  and  C_16 
REMARK    6  A    between atoms: C_18  and  N_19 
REMARK       I    between atoms: N_19  and  C_20 
REMARK    7  A    between atoms: C_25  and  O_26 
ROOT
ATOM      1  N   UNL d   1      26.351 -14.793  -3.737  0.00  0.00    -0.278 N 
ATOM      2  H   UNL d   1      27.094 -15.496  -3.749  0.00  0.00     0.179 HD
ENDROOT
BRANCH   1   3
ATOM      3  S   UNL d   1      25.267 -14.686  -2.342  0.00  0.00     0.263 S 
ATOM      4  O   UNL d   1      23.988 -14.259  -2.788  0.00  0.00    -0.200 OA
ATOM      5  O   UNL d   1      25.905 -13.990  -1.210  0.00  0.00    -0.200 OA
BRANCH   3   6
ATOM      6  C   UNL d   1      25.042 -16.306  -1.451  0.00  0.00     0.088 C 
ATOM      7  C   UNL d   1      23.691 -16.753  -1.567  0.00  0.00     0.061 C 
ATOM      8  C   UNL d   1      23.260 -17.913  -0.929  0.00  0.00     0.104 C 
ATOM      9  C   UNL d   1      24.150 -18.645  -0.150  0.00  0.00     0.037 C 
ATOM     10  C   UNL d   1      25.435 -18.163   0.066  0.00  0.00     0.011 C 
ATOM     11  C   UNL d   1      25.933 -17.044  -0.621  0.00  0.00    -0.035 C 
BRANCH   8  12
ATOM     12  N   UNL d   1      21.860 -18.340  -1.030  0.00  0.00    -0.116 N 
ATOM     13  O   UNL d   1      20.990 -17.460  -0.963  0.00  0.00    -0.532 OA
ATOM     14  O   UNL d   1      21.630 -19.546  -1.195  0.00  0.00    -0.532 OA
ENDBRANCH   8  12
BRANCH  11  15
ATOM     15  C   UNL d   1      27.419 -16.870  -0.373  0.00  0.00     0.035 C 
ATOM     16  C   UNL d   1      28.072 -16.872  -1.663  0.00  0.00     0.010 C 
ENDBRANCH  11  15
ENDBRANCH   3   6
ENDBRANCH   1   3
BRANCH   1  17
ATOM     17  C   UNL d   1      26.911 -13.800  -4.606  0.00  0.00     0.078 C 
ATOM     18  C   UNL d   1      26.173 -12.579  -4.860  0.00  0.00     0.062 C 
ATOM     19  C   UNL d   1      26.560 -11.747  -5.919  0.00  0.00     0.037 C 
ATOM     20  C   UNL d   1      27.767 -12.079  -6.494  0.00  0.00     0.032 C 
ATOM     21  C   UNL d   1      28.257 -13.361  -6.518  0.00  0.00     0.041 C 
ATOM     22  C   UNL d   1      27.770 -14.259  -5.621  0.00  0.00     0.095 C 
BRANCH  19  23
ATOM     23  N   UNL d   1      25.821 -10.643  -6.430  0.00  0.00    -0.327 N 
ATOM     24  C   UNL d   1      25.251  -9.578  -5.746  0.00  0.00     0.218 C 
ATOM     25  C   UNL d   1      25.328  -9.408  -4.235  0.00  0.00     0.117 C 
ATOM     26  O   UNL d   1      24.631  -8.725  -6.392  0.00  0.00    -0.274 OA
ATOM     27  H   UNL d   1      25.744 -10.517  -7.437  0.00  0.00     0.169 HD
ENDBRANCH  19  23
BRANCH  22  28
ATOM     28  O   UNL d   1      28.161 -15.536  -5.961  0.00  0.00    -0.354 OA
ATOM     29  C   UNL d   1      29.479 -15.590  -6.402  0.00  0.00     0.210 C 
ENDBRANCH  22  28
ENDBRANCH   1  17
TORSDOF 7
ENDMDL
MODEL 3
REMARK VINA RESULT:    -8.258      2.111      7.894
REMARK INTER + INTRA:         -12.113
REMARK INTER:                 -10.346
REMARK INTRA:                  -1.767
REMARK CONF_INDEPENDENT:        2.088
REMARK UNBOUND:                -1.767
REMARK  7 active torsions:
REMARK  status: ('A' for Active; 'I' for Inactive)
REMARK    1  A    between atoms: C_2  and  C_3 
REMARK    2  A    between atoms: C_6  and  N_7 
REMARK    3  A    between atoms: C_11  and  S_12 
REMARK    4  A    between atoms: S_12  and  N_15 
REMARK    5  A    between atoms: N_15  and  C_16 
REMARK    6  A    between atoms: C_18  and  N_19 
REMARK       I    between atoms: N_19  and  C_20 
REMARK    7  A    between atoms: C_25  and  O_26 
ROOT
ATOM      1  N   UNL d   1      24.877 -15.472  -0.991  0.00  0.00    -0.278 N 
ATOM      2  H   UNL d   1      25.176 -15.391  -0.017  0.00  0.00     0.179 HD
ENDROOT
BRANCH   1   3
ATOM      3  S   UNL d   1      25.726 -14.560  -2.248  0.00  0.00     0.263 S 
ATOM      4  O   UNL d   1      25.912 -13.226  -1.800  0.00  0.00    -0.200 OA
ATOM      5  O   UNL d   1      25.142 -14.799  -3.580  0.00  0.00    -0.200 OA
BRANCH   3   6
ATOM      6  C   UNL d   1      27.403 -15.256  -2.663  0.00  0.00     0.088 C 
ATOM      7  C   UNL d   1      27.628 -15.203  -4.073  0.00  0.00     0.061 C 
ATOM      8  C   UNL d   1      28.790 -15.725  -4.636  0.00  0.00     0.104 C 
ATOM      9  C   UNL d   1      29.743 -16.324  -3.821  0.00  0.00     0.037 C 
ATOM     10  C   UNL d   1      29.489 -16.486  -2.465  0.00  0.00     0.011 C 
ATOM     11  C   UNL d   1      28.371 -15.905  -1.846  0.00  0.00    -0.035 C 
BRANCH   8  12
ATOM     12  N   UNL d   1      28.990 -15.693  -6.089  0.00  0.00    -0.116 N 
ATOM     13  O   UNL d   1      28.084 -15.200  -6.777  0.00  0.00    -0.532 OA
ATOM     14  O   UNL d   1      30.053 -16.140  -6.540  0.00  0.00    -0.532 OA
ENDBRANCH   8  12
BRANCH  11  15
ATOM     15  C   UNL d   1      28.452 -16.043  -0.337  0.00  0.00     0.035 C 
ATOM     16  C   UNL d   1      27.867 -14.851   0.234  0.00  0.00     0.010 C 
ENDBRANCH  11  15
ENDBRANCH   3   6
ENDBRANCH   1   3
BRANCH   1  17
ATOM     17  C   UNL d   1      24.276 -16.773  -0.979  0.00  0.00     0.078 C 
ATOM     18  C   UNL d   1      22.863 -16.908  -1.270  0.00  0.00     0.062 C 
ATOM     19  C   UNL d   1      22.210 -18.112  -0.975  0.00  0.00     0.037 C 
ATOM     20  C   UNL d   1      23.050 -19.146  -0.625  0.00  0.00     0.032 C 
ATOM     21  C   UNL d   1      24.265 -18.950  -0.019  0.00  0.00     0.041 C 
ATOM     22  C   UNL d   1      24.853 -17.729  -0.123  0.00  0.00     0.095 C 
BRANCH  19  23
ATOM     23  N   UNL d   1      20.803 -18.329  -0.996  0.00  0.00    -0.327 N 
ATOM     24  C   UNL d   1      20.052 -19.284  -0.324  0.00  0.00     0.218 C 
ATOM     25  C   UNL d   1      20.654 -20.329   0.605  0.00  0.00     0.117 C 
ATOM     26  O   UNL d   1      18.828 -19.303  -0.499  0.00  0.00    -0.274 OA
ATOM     27  H   UNL d   1      20.203 -17.665  -1.483  0.00  0.00     0.169 HD
ENDBRANCH  19  23
BRANCH  22  28
ATOM     28  O   UNL d   1      25.909 -17.628   0.757  0.00  0.00    -0.354 OA
ATOM     29  C   UNL d   1      26.829 -18.660   0.605  0.00  0.00     0.210 C 
ENDBRANCH  22  28
ENDBRANCH   1  17
TORSDOF 7
ENDMDL
MODEL 4
REMARK VINA RESULT:    -8.118      1.636      7.910
REMARK INTER + INTRA:         -11.967
REMARK INTER:                 -10.206
REMARK INTRA:                  -1.761
REMARK CONF_INDEPENDENT:        2.088
REMARK UNBOUND:                -1.761
REMARK  7 active torsions:
REMARK  status: ('A' for Active; 'I' for Inactive)
REMARK    1  A    between atoms: C_2  and  C_3 
REMARK    2  A    between atoms: C_6  and  N_7 
REMARK    3  A    between atoms: C_11  and  S_12 
REMARK    4  A    between atoms: S_12  and  N_15 
REMARK    5  A    between atoms: N_15  and  C_16 
REMARK    6  A    between atoms: C_18  and  N_19 
REMARK       I    between atoms: N_19  and  C_20 
REMARK    7  A    between atoms: C_25  and  O_26 
ROOT
ATOM      1  N   UNL d   1      25.960 -15.146  -2.372  0.00  0.00    -0.278 N 
ATOM      2  H   UNL d   1      26.707 -14.587  -1.954  0.00  0.00     0.179 HD
ENDROOT
BRANCH   1   3
ATOM      3  S   UNL d   1      25.530 -14.908  -4.071  0.00  0.00     0.263 S 
ATOM      4  O   UNL d   1      24.393 -14.061  -4.142  0.00  0.00    -0.200 OA
ATOM      5  O   UNL d   1      25.530 -16.180  -4.815  0.00  0.00    -0.200 OA
BRANCH   3   6
ATOM      6  C   UNL d   1      26.886 -14.117  -5.075  0.00  0.00     0.088 C 
ATOM      7  C   UNL d   1      27.881 -15.083  -5.415  0.00  0.00     0.061 C 
ATOM      8  C   UNL d   1      29.029 -14.718  -6.112  0.00  0.00     0.104 C 
ATOM      9  C   UNL d   1      29.227 -13.390  -6.470  0.00  0.00     0.037 C 
ATOM     10  C   UNL d   1      28.327 -12.419  -6.048  0.00  0.00     0.011 C 
ATOM     11  C   UNL d   1      27.119 -12.754  -5.415  0.00  0.00    -0.035 C 
BRANCH   8  12
ATOM     12  N   UNL d   1      30.057 -15.718  -6.425  0.00  0.00    -0.116 N 
ATOM     13  O   UNL d   1      30.991 -15.363  -7.159  0.00  0.00    -0.532 OA
ATOM     14  O   UNL d   1      29.943 -16.846  -5.927  0.00  0.00    -0.532 OA
ENDBRANCH   8  12
BRANCH  11  15
ATOM     15  C   UNL d   1      26.228 -11.536  -5.265  0.00  0.00     0.035 C 
ATOM     16  C   UNL d   1      25.969 -11.365  -3.853  0.00  0.00     0.010 C 
ENDBRANCH  11  15
ENDBRANCH   3   6
ENDBRANCH   1   3
BRANCH   1  17
ATOM     17  C   UNL d   1      26.004 -16.313  -1.539  0.00  0.00     0.078 C 
ATOM     18  C   UNL d   1      24.844 -17.178  -1.464  0.00  0.00     0.062 C 
ATOM     19  C   UNL d   1      24.765 -18.138  -0.446  0.00  0.00     0.037 C 
ATOM     20  C   UNL d   1      25.929 -18.308   0.271  0.00  0.00     0.032 C 
ATOM     21  C   UNL d   1      26.848 -17.305   0.451  0.00  0.00     0.041 C 
ATOM     22  C   UNL d   1      26.840 -16.253  -0.409  0.00  0.00     0.095 C 
BRANCH  19  23
ATOM     23  N   UNL d   1      23.614 -18.904  -0.106  0.00  0.00    -0.327 N 
ATOM     24  C   UNL d   1      22.271 -18.594  -0.277  0.00  0.00     0.218 C 
ATOM     25  C   UNL d   1      21.779 -17.292  -0.895  0.00  0.00     0.117 C 
ATOM     26  O   UNL d   1      21.423 -19.408   0.107  0.00  0.00    -0.274 OA
ATOM     27  H   UNL d   1      23.731 -19.859   0.229  0.00  0.00     0.169 HD
ENDBRANCH  19  23
BRANCH  22  28
ATOM     28  O   UNL d   1      27.628 -15.232   0.075  0.00  0.00    -0.354 OA
ATOM     29  C   UNL d   1      28.904 -15.662   0.421  0.00  0.00     0.210 C 
ENDBRANCH  22  28
ENDBRANCH   1  17
TORSDOF 7
ENDMDL
MODEL 5
REMARK VINA RESULT:    -8.050      3.546      5.919
REMARK INTER + INTRA:         -12.084
REMARK INTER:                 -10.138
REMARK INTRA:                  -1.947
REMARK CONF_INDEPENDENT:        2.088
REMARK UNBOUND:                -1.947
REMARK  7 active torsions:
REMARK  status: ('A' for Active; 'I' for Inactive)
REMARK    1  A    between atoms: C_2  and  C_3 
REMARK    2  A    between atoms: C_6  and  N_7 
REMARK    3  A    between atoms: C_11  and  S_12 
REMARK    4  A    between atoms: S_12  and  N_15 
REMARK    5  A    between atoms: N_15  and  C_16 
REMARK    6  A    between atoms: C_18  and  N_19 
REMARK       I    between atoms: N_19  and  C_20 
REMARK    7  A    between atoms: C_25  and  O_26 
ROOT
ATOM      1  N   UNL d   1      26.255 -13.818  -1.186  0.00  0.00    -0.278 N 
ATOM      2  H   UNL d   1      26.158 -12.851  -1.503  0.00  0.00     0.179 HD
ENDROOT
BRANCH   1   3
ATOM      3  S   UNL d   1      25.795 -15.145  -2.263  0.00  0.00     0.263 S 
ATOM      4  O   UNL d   1      26.910 -15.482  -3.076  0.00  0.00    -0.200 OA
ATOM      5  O   UNL d   1      24.488 -14.902  -2.897  0.00  0.00    -0.200 OA
BRANCH   3   6
ATOM      6  C   UNL d   1      25.269 -16.686  -1.358  0.00  0.00     0.088 C 
ATOM      7  C   UNL d   1      23.876 -16.929  -1.559  0.00  0.00     0.061 C 
ATOM      8  C   UNL d   1      23.234 -17.992  -0.930  0.00  0.00     0.104 C 
ATOM      9  C   UNL d   1      23.949 -18.824  -0.077  0.00  0.00     0.037 C 
ATOM     10  C   UNL d   1      25.276 -18.535   0.219  0.00  0.00     0.011 C 
ATOM     11  C   UNL d   1      25.981 -17.523  -0.453  0.00  0.00    -0.035 C 
BRANCH   8  12
ATOM     12  N   UNL d   1      21.795 -18.207  -1.121  0.00  0.00    -0.116 N 
ATOM     13  O   UNL d   1      21.432 -19.337  -1.480  0.00  0.00    -0.532 OA
ATOM     14  O   UNL d   1      21.030 -17.261  -0.895  0.00  0.00    -0.532 OA
ENDBRANCH   8  12
BRANCH  11  15
ATOM     15  C   UNL d   1      27.457 -17.567  -0.105  0.00  0.00     0.035 C 
ATOM     16  C   UNL d   1      28.183 -17.068  -1.251  0.00  0.00     0.010 C 
ENDBRANCH  11  15
ENDBRANCH   3   6
ENDBRANCH   1   3
BRANCH   1  17
ATOM     17  C   UNL d   1      27.301 -13.677  -0.216  0.00  0.00     0.078 C 
ATOM     18  C   UNL d   1      27.344 -14.574   0.921  0.00  0.00     0.062 C 
ATOM     19  C   UNL d   1      28.168 -14.266   2.011  0.00  0.00     0.037 C 
ATOM     20  C   UNL d   1      29.038 -13.221   1.793  0.00  0.00     0.032 C 
ATOM     21  C   UNL d   1      28.768 -12.192   0.926  0.00  0.00     0.041 C 
ATOM     22  C   UNL d   1      27.832 -12.386  -0.041  0.00  0.00     0.095 C 
BRANCH  19  23
ATOM     23  N   UNL d   1      28.159 -14.918   3.277  0.00  0.00    -0.327 N 
ATOM     24  C   UNL d   1      27.995 -14.372   4.543  0.00  0.00     0.218 C 
ATOM     25  C   UNL d   1      27.786 -12.887   4.801  0.00  0.00     0.117 C 
ATOM     26  O   UNL d   1      28.036 -15.128   5.522  0.00  0.00    -0.274 OA
ATOM     27  H   UNL d   1      28.182 -15.935   3.315  0.00  0.00     0.169 HD
ENDBRANCH  19  23
BRANCH  22  28
ATOM     28  O   UNL d   1      27.497 -11.187  -0.631  0.00  0.00    -0.354 OA
ATOM     29  C   UNL d   1      27.761 -11.172  -1.996  0.00  0.00     0.210 C 
ENDBRANCH  22  28
ENDBRANCH   1  17
TORSDOF 7
ENDMDL
MODEL 6
REMARK VINA RESULT:    -8.022      1.812      3.076
REMARK INTER + INTRA:         -11.882
REMARK INTER:                 -10.110
REMARK INTRA:                  -1.773
REMARK CONF_INDEPENDENT:        2.088
REMARK UNBOUND:                -1.773
REMARK  7 active torsions:
REMARK  status: ('A' for Active; 'I' for Inactive)
REMARK    1  A    between atoms: C_2  and  C_3 
REMARK    2  A    between atoms: C_6  and  N_7 
REMARK    3  A    between atoms: C_11  and  S_12 
REMARK    4  A    between atoms: S_12  and  N_15 
REMARK    5  A    between atoms: N_15  and  C_16 
REMARK    6  A    between atoms: C_18  and  N_19 
REMARK       I    between atoms: N_19  and  C_20 
REMARK    7  A    between atoms: C_25  and  O_26 
ROOT
ATOM      1  N   UNL d   1      27.426 -15.941  -3.460  0.00  0.00    -0.278 N 
ATOM      2  H   UNL d   1      28.038 -16.664  -3.074  0.00  0.00     0.179 HD
ENDROOT
BRANCH   1   3
ATOM      3  S   UNL d   1      25.978 -15.449  -2.571  0.00  0.00     0.263 S 
ATOM      4  O   UNL d   1      24.941 -15.171  -3.501  0.00  0.00    -0.200 OA
ATOM      5  O   UNL d   1      26.293 -14.459  -1.526  0.00  0.00    -0.200 OA
BRANCH   3   6
ATOM      6  C   UNL d   1      25.350 -16.752  -1.398  0.00  0.00     0.088 C 
ATOM      7  C   UNL d   1      23.979 -17.045  -1.670  0.00  0.00     0.061 C 
ATOM      8  C   UNL d   1      23.266 -17.946  -0.882  0.00  0.00     0.104 C 
ATOM      9  C   UNL d   1      23.887 -18.560   0.199  0.00  0.00     0.037 C 
ATOM     10  C   UNL d   1      25.184 -18.200   0.547  0.00  0.00     0.011 C 
ATOM     11  C   UNL d   1      25.962 -17.359  -0.266  0.00  0.00    -0.035 C 
BRANCH   8  12
ATOM     12  N   UNL d   1      21.849 -18.211  -1.155  0.00  0.00    -0.116 N 
ATOM     13  O   UNL d   1      21.557 -19.325  -1.614  0.00  0.00    -0.532 OA
ATOM     14  O   UNL d   1      21.029 -17.320  -0.895  0.00  0.00    -0.532 OA
ENDBRANCH   8  12
BRANCH  11  15
ATOM     15  C   UNL d   1      27.398 -17.310   0.222  0.00  0.00     0.035 C 
ATOM     16  C   UNL d   1      27.577 -16.048   0.903  0.00  0.00     0.010 C 
ENDBRANCH  11  15
ENDBRANCH   3   6
ENDBRANCH   1   3
BRANCH   1  17
ATOM     17  C   UNL d   1      28.356 -15.214  -4.274  0.00  0.00     0.078 C 
ATOM     18  C   UNL d   1      27.887 -14.561  -5.480  0.00  0.00     0.062 C 
ATOM     19  C   UNL d   1      28.818 -14.107  -6.425  0.00  0.00     0.037 C 
ATOM     20  C   UNL d   1      30.127 -14.140  -5.998  0.00  0.00     0.032 C 
ATOM     21  C   UNL d   1      30.590 -15.044  -5.074  0.00  0.00     0.041 C 
ATOM     22  C   UNL d   1      29.692 -15.652  -4.255  0.00  0.00     0.095 C 
BRANCH  19  23
ATOM     23  N   UNL d   1      28.521 -13.650  -7.739  0.00  0.00    -0.327 N 
ATOM     24  C   UNL d   1      28.172 -12.376  -8.167  0.00  0.00     0.218 C 
ATOM     25  C   UNL d   1      28.040 -11.180  -7.234  0.00  0.00     0.117 C 
ATOM     26  O   UNL d   1      27.938 -12.199  -9.369  0.00  0.00    -0.274 OA
ATOM     27  H   UNL d   1      28.653 -14.279  -8.529  0.00  0.00     0.169 HD
ENDBRANCH  19  23
BRANCH  22  28
ATOM     28  O   UNL d   1      30.284 -16.708  -3.596  0.00  0.00    -0.354 OA
ATOM     29  C   UNL d   1      31.668 -16.712  -3.732  0.00  0.00     0.210 C 
ENDBRANCH  22  28
ENDBRANCH   1  17
TORSDOF 7
ENDMDL
MODEL 7
REMARK VINA RESULT:    -7.997      2.462      7.806
REMARK INTER + INTRA:         -11.798
REMARK INTER:                 -10.085
REMARK INTRA:                  -1.713
REMARK CONF_INDEPENDENT:        2.088
REMARK UNBOUND:                -1.713
REMARK  7 active torsions:
REMARK  status: ('A' for Active; 'I' for Inactive)
REMARK    1  A    between atoms: C_2  and  C_3 
REMARK    2  A    between atoms: C_6  and  N_7 
REMARK    3  A    between atoms: C_11  and  S_12 
REMARK    4  A    between atoms: S_12  and  N_15 
REMARK    5  A    between atoms: N_15  and  C_16 
REMARK    6  A    between atoms: C_18  and  N_19 
REMARK       I    between atoms: N_19  and  C_20 
REMARK    7  A    between atoms: C_25  and  O_26 
ROOT
ATOM      1  N   UNL d   1      26.091 -15.271  -2.234  0.00  0.00    -0.278 N 
ATOM      2  H   UNL d   1      27.018 -14.918  -1.986  0.00  0.00     0.179 HD
ENDROOT
BRANCH   1   3
ATOM      3  S   UNL d   1      25.358 -14.807  -3.776  0.00  0.00     0.263 S 
ATOM      4  O   UNL d   1      24.061 -14.285  -3.529  0.00  0.00    -0.200 OA
ATOM      5  O   UNL d   1      25.531 -15.856  -4.797  0.00  0.00    -0.200 OA
BRANCH   3   6
ATOM      6  C   UNL d   1      26.325 -13.506  -4.695  0.00  0.00     0.088 C 
ATOM      7  C   UNL d   1      25.756 -12.215  -4.471  0.00  0.00     0.061 C 
ATOM      8  C   UNL d   1      26.267 -11.085  -5.104  0.00  0.00     0.104 C 
ATOM      9  C   UNL d   1      27.336 -11.210  -5.983  0.00  0.00     0.037 C 
ATOM     10  C   UNL d   1      27.827 -12.471  -6.300  0.00  0.00     0.011 C 
ATOM     11  C   UNL d   1      27.395 -13.624  -5.626  0.00  0.00    -0.035 C 
BRANCH   8  12
ATOM     12  N   UNL d   1      25.651  -9.771  -4.889  0.00  0.00    -0.116 N 
ATOM     13  O   UNL d   1      25.363  -9.106  -5.894  0.00  0.00    -0.532 OA
ATOM     14  O   UNL d   1      25.437  -9.412  -3.723  0.00  0.00    -0.532 OA
ENDBRANCH   8  12
BRANCH  11  15
ATOM     15  C   UNL d   1      28.243 -14.824  -6.003  0.00  0.00     0.035 C 
ATOM     16  C   UNL d   1      28.776 -15.375  -4.777  0.00  0.00     0.010 C 
ENDBRANCH  11  15
ENDBRANCH   3   6
ENDBRANCH   1   3
BRANCH   1  17
ATOM     17  C   UNL d   1      26.058 -16.486  -1.474  0.00  0.00     0.078 C 
ATOM     18  C   UNL d   1      24.828 -17.249  -1.405  0.00  0.00     0.062 C 
ATOM     19  C   UNL d   1      24.697 -18.259  -0.442  0.00  0.00     0.037 C 
ATOM     20  C   UNL d   1      25.863 -18.574   0.218  0.00  0.00     0.032 C 
ATOM     21  C   UNL d   1      26.875 -17.669   0.422  0.00  0.00     0.041 C 
ATOM     22  C   UNL d   1      26.932 -16.569  -0.375  0.00  0.00     0.095 C 
BRANCH  19  23
ATOM     23  N   UNL d   1      23.494 -18.942  -0.104  0.00  0.00    -0.327 N 
ATOM     24  C   UNL d   1      22.177 -18.536  -0.277  0.00  0.00     0.218 C 
ATOM     25  C   UNL d   1      21.780 -17.203  -0.895  0.00  0.00     0.117 C 
ATOM     26  O   UNL d   1      21.272 -19.288   0.106  0.00  0.00    -0.274 OA
ATOM     27  H   UNL d   1      23.542 -19.902   0.231  0.00  0.00     0.169 HD
ENDBRANCH  19  23
BRANCH  22  28
ATOM     28  O   UNL d   1      27.824 -15.652   0.138  0.00  0.00    -0.354 OA
ATOM     29  C   UNL d   1      29.140 -15.936  -0.211  0.00  0.00     0.210 C 
ENDBRANCH  22  28
ENDBRANCH   1  17
TORSDOF 7
ENDMDL
MODEL 8
REMARK VINA RESULT:    -7.533      2.248      3.117
REMARK INTER + INTRA:         -11.709
REMARK INTER:                  -9.621
REMARK INTRA:                  -2.089
REMARK CONF_INDEPENDENT:        2.088
REMARK UNBOUND:                -2.089
REMARK  7 active torsions:
REMARK  status: ('A' for Active; 'I' for Inactive)
REMARK    1  A    between atoms: C_2  and  C_3 
REMARK    2  A    between atoms: C_6  and  N_7 
REMARK    3  A    between atoms: C_11  and  S_12 
REMARK    4  A    between atoms: S_12  and  N_15 
REMARK    5  A    between atoms: N_15  and  C_16 
REMARK    6  A    between atoms: C_18  and  N_19 
REMARK       I    between atoms: N_19  and  C_20 
REMARK    7  A    between atoms: C_25  and  O_26 
ROOT
ATOM      1  N   UNL d   1      26.778 -14.725  -3.611  0.00  0.00    -0.278 N 
ATOM      2  H   UNL d   1      26.566 -14.614  -4.604  0.00  0.00     0.179 HD
ENDROOT
BRANCH   1   3
ATOM      3  S   UNL d   1      25.487 -14.559  -2.413  0.00  0.00     0.263 S 
ATOM      4  O   UNL d   1      24.278 -14.236  -3.084  0.00  0.00    -0.200 OA
ATOM      5  O   UNL d   1      25.914 -13.742  -1.263  0.00  0.00    -0.200 OA
BRANCH   3   6
ATOM      6  C   UNL d   1      25.187 -16.111  -1.426  0.00  0.00     0.088 C 
ATOM      7  C   UNL d   1      23.859 -16.589  -1.643  0.00  0.00     0.061 C 
ATOM      8  C   UNL d   1      23.376 -17.704  -0.965  0.00  0.00     0.104 C 
ATOM      9  C   UNL d   1      24.188 -18.359  -0.045  0.00  0.00     0.037 C 
ATOM     10  C   UNL d   1      25.440 -17.840   0.262  0.00  0.00     0.011 C 
ATOM     11  C   UNL d   1      25.994 -16.768  -0.455  0.00  0.00    -0.035 C 
BRANCH   8  12
ATOM     12  N   UNL d   1      21.998 -18.163  -1.175  0.00  0.00    -0.116 N 
ATOM     13  O   UNL d   1      21.089 -17.348  -0.961  0.00  0.00    -0.532 OA
ATOM     14  O   UNL d   1      21.825 -19.324  -1.569  0.00  0.00    -0.532 OA
ENDBRANCH   8  12
BRANCH  11  15
ATOM     15  C   UNL d   1      27.446 -16.550  -0.071  0.00  0.00     0.035 C 
ATOM     16  C   UNL d   1      28.106 -17.833  -0.146  0.00  0.00     0.010 C 
ENDBRANCH  11  15
ENDBRANCH   3   6
ENDBRANCH   1   3
BRANCH   1  17
ATOM     17  C   UNL d   1      27.932 -15.573  -3.679  0.00  0.00     0.078 C 
ATOM     18  C   UNL d   1      28.828 -15.649  -2.542  0.00  0.00     0.062 C 
ATOM     19  C   UNL d   1      30.093 -16.230  -2.700  0.00  0.00     0.037 C 
ATOM     20  C   UNL d   1      30.279 -16.879  -3.900  0.00  0.00     0.032 C 
ATOM     21  C   UNL d   1      29.629 -16.517  -5.054  0.00  0.00     0.041 C 
ATOM     22  C   UNL d   1      28.487 -15.787  -4.954  0.00  0.00     0.095 C 
BRANCH  19  23
ATOM     23  N   UNL d   1      31.157 -16.186  -1.755  0.00  0.00    -0.327 N 
ATOM     24  C   UNL d   1      31.713 -17.219  -1.012  0.00  0.00     0.218 C 
ATOM     25  C   UNL d   1      31.241 -18.664  -1.091  0.00  0.00     0.117 C 
ATOM     26  O   UNL d   1      32.633 -16.954  -0.228  0.00  0.00    -0.274 OA
ATOM     27  H   UNL d   1      31.681 -15.322  -1.632  0.00  0.00     0.169 HD
ENDBRANCH  19  23
BRANCH  22  28
ATOM     28  O   UNL d   1      28.128 -15.287  -6.187  0.00  0.00    -0.354 OA
ATOM     29  C   UNL d   1      28.203 -13.900  -6.243  0.00  0.00     0.210 C 
ENDBRANCH  22  28
ENDBRANCH   1  17
TORSDOF 7
ENDMDL
MODEL 9
REMARK VINA RESULT:    -7.465      2.152      6.796
REMARK INTER + INTRA:         -11.764
REMARK INTER:                  -9.553
REMARK INTRA:                  -2.211
REMARK CONF_INDEPENDENT:        2.088
REMARK UNBOUND:                -2.211
REMARK  7 active torsions:
REMARK  status: ('A' for Active; 'I' for Inactive)
REMARK    1  A    between atoms: C_2  and  C_3 
REMARK    2  A    between atoms: C_6  and  N_7 
REMARK    3  A    between atoms: C_11  and  S_12 
REMARK    4  A    between atoms: S_12  and  N_15 
REMARK    5  A    between atoms: N_15  and  C_16 
REMARK    6  A    between atoms: C_18  and  N_19 
REMARK       I    between atoms: N_19  and  C_20 
REMARK    7  A    between atoms: C_25  and  O_26 
ROOT
ATOM      1  N   UNL d   1      25.169 -15.949  -2.698  0.00  0.00    -0.278 N 
ATOM      2  H   UNL d   1      24.312 -16.505  -2.752  0.00  0.00     0.179 HD
ENDROOT
BRANCH   1   3
ATOM      3  S   UNL d   1      25.191 -14.305  -3.351  0.00  0.00     0.263 S 
ATOM      4  O   UNL d   1      25.422 -13.393  -2.288  0.00  0.00    -0.200 OA
ATOM      5  O   UNL d   1      24.064 -14.071  -4.271  0.00  0.00    -0.200 OA
BRANCH   3   6
ATOM      6  C   UNL d   1      26.521 -14.032  -4.627  0.00  0.00     0.088 C 
ATOM      7  C   UNL d   1      27.384 -15.168  -4.696  0.00  0.00     0.061 C 
ATOM      8  C   UNL d   1      28.495 -15.178  -5.535  0.00  0.00     0.104 C 
ATOM      9  C   UNL d   1      28.787 -14.060  -6.307  0.00  0.00     0.037 C 
ATOM     10  C   UNL d   1      28.026 -12.906  -6.167  0.00  0.00     0.011 C 
ATOM     11  C   UNL d   1      26.853 -12.881  -5.395  0.00  0.00    -0.035 C 
BRANCH   8  12
ATOM     12  N   UNL d   1      29.390 -16.340  -5.569  0.00  0.00    -0.116 N 
ATOM     13  O   UNL d   1      30.013 -16.547  -6.620  0.00  0.00    -0.532 OA
ATOM     14  O   UNL d   1      29.484 -17.033  -4.547  0.00  0.00    -0.532 OA
ENDBRANCH   8  12
BRANCH  11  15
ATOM     15  C   UNL d   1      26.100 -11.579  -5.593  0.00  0.00     0.035 C 
ATOM     16  C   UNL d   1      25.907 -10.993  -4.285  0.00  0.00     0.010 C 
ENDBRANCH  11  15
ENDBRANCH   3   6
ENDBRANCH   1   3
BRANCH   1  17
ATOM     17  C   UNL d   1      25.802 -16.547  -1.559  0.00  0.00     0.078 C 
ATOM     18  C   UNL d   1      27.249 -16.620  -1.506  0.00  0.00     0.062 C 
ATOM     19  C   UNL d   1      27.862 -17.451  -0.559  0.00  0.00     0.037 C 
ATOM     20  C   UNL d   1      27.006 -17.965   0.390  0.00  0.00     0.032 C 
ATOM     21  C   UNL d   1      25.676 -18.198   0.149  0.00  0.00     0.041 C 
ATOM     22  C   UNL d   1      25.080 -17.548  -0.886  0.00  0.00     0.095 C 
BRANCH  19  23
ATOM     23  N   UNL d   1      29.242 -17.798  -0.520  0.00  0.00    -0.327 N 
ATOM     24  C   UNL d   1      30.327 -17.146  -1.091  0.00  0.00     0.218 C 
ATOM     25  C   UNL d   1      30.207 -15.869  -1.911  0.00  0.00     0.117 C 
ATOM     26  O   UNL d   1      31.454 -17.634  -0.944  0.00  0.00    -0.274 OA
ATOM     27  H   UNL d   1      29.547 -18.571   0.070  0.00  0.00     0.169 HD
ENDBRANCH  19  23
BRANCH  22  28
ATOM     28  O   UNL d   1      23.844 -18.099  -1.149  0.00  0.00    -0.354 OA
ATOM     29  C   UNL d   1      22.810 -17.413  -0.520  0.00  0.00     0.210 C 
ENDBRANCH  22  28
ENDBRANCH   1  17
TORSDOF 7
ENDMDL
