MODEL 1
REMARK VINA RESULT:   -12.461      0.000      0.000
REMARK INTER + INTRA:         -16.361
REMARK INTER:                 -15.146
REMARK INTRA:                  -1.215
REMARK CONF_INDEPENDENT:        2.685
REMARK UNBOUND:                -1.215
REMARK  9 active torsions:
REMARK  status: ('A' for Active; 'I' for Inactive)
REMARK    1  A    between atoms: C_2  and  O_3 
REMARK    2  A    between atoms: O_3  and  C_4 
REMARK    3  A    between atoms: C_9  and  S_10 
REMARK    4  A    between atoms: S_10  and  C_11 
REMARK    5  A    between atoms: C_11  and  C_13 
REMARK       I    between atoms: C_13  and  N_15 
REMARK    6  A    between atoms: N_15  and  C_16 
REMARK    7  A    between atoms: C_19  and  C_20 
REMARK       I    between atoms: C_20  and  N_22 
REMARK    8  A    between atoms: N_22  and  C_23 
REMARK    9  A    between atoms: C_28  and  O_29 
ROOT
ATOM      1  C   UNL d   1      24.109 -16.047  -1.447  0.00  0.00     0.236 C 
ATOM      2  O   UNL d   1      23.495 -15.075  -1.893  0.00  0.00    -0.272 OA
ATOM      3  N   UNL d   1      25.401 -15.915  -0.924  0.00  0.00    -0.326 N 
ATOM      4  H   UNL d   1      25.957 -16.733  -0.712  0.00  0.00     0.169 HD
ENDROOT
BRANCH   3   5
ATOM      5  C   UNL d   1      26.036 -14.651  -0.765  0.00  0.00     0.034 A 
ATOM      6  C   UNL d   1      26.649 -14.000  -1.838  0.00  0.00     0.030 A 
ATOM      7  C   UNL d   1      27.419 -12.837  -1.610  0.00  0.00     0.019 A 
ATOM      8  C   UNL d   1      27.578 -12.305  -0.310  0.00  0.00     0.032 A 
ATOM      9  C   UNL d   1      26.871 -12.902   0.728  0.00  0.00     0.019 A 
ATOM     10  C   UNL d   1      26.128 -14.066   0.501  0.00  0.00     0.030 A 
BRANCH   8  11
ATOM     11  C   UNL d   1      28.455 -11.100  -0.078  0.00  0.00     0.256 C 
ATOM     12  O   UNL d   1      27.962  -9.975  -0.224  0.00  0.00    -0.267 OA
ATOM     13  N   UNL d   1      29.745 -11.319   0.383  0.00  0.00    -0.321 N 
ATOM     14  H   UNL d   1      30.210 -12.204   0.230  0.00  0.00     0.169 HD
BRANCH  13  15
ATOM     15  C   UNL d   1      30.505 -10.372   1.118  0.00  0.00     0.068 A 
ATOM     16  C   UNL d   1      31.891 -10.348   0.855  0.00  0.00     0.032 A 
ATOM     17  C   UNL d   1      32.756  -9.501   1.560  0.00  0.00     0.002 A 
ATOM     18  C   UNL d   1      32.242  -8.645   2.524  0.00  0.00     0.003 A 
ATOM     19  C   UNL d   1      30.878  -8.684   2.818  0.00  0.00     0.039 A 
ATOM     20  C   UNL d   1      29.993  -9.554   2.146  0.00  0.00     0.095 A 
BRANCH  20  21
ATOM     21  O   UNL d   1      28.738  -9.499   2.699  0.00  0.00    -0.354 OA
ATOM     22  C   UNL d   1      28.560  -9.697   4.087  0.00  0.00     0.210 C 
ENDBRANCH  20  21
ENDBRANCH  13  15
ENDBRANCH   8  11
ENDBRANCH   3   5
BRANCH   1  23
ATOM     23  C   UNL d   1      23.499 -17.486  -1.473  0.00  0.00     0.143 C 
ATOM     24  C   UNL d   1      24.081 -18.270  -2.642  0.00  0.00     0.031 C 
BRANCH  23  25
ATOM     25  S   UNL d   1      21.669 -17.334  -1.633  0.00  0.00    -0.078 SA
BRANCH  25  26
ATOM     26  C   UNL d   1      20.876 -18.410  -0.542  0.00  0.00     0.168 A 
ATOM     27  N   UNL d   1      19.900 -19.216  -0.898  0.00  0.00    -0.223 NA
ATOM     28  C   UNL d   1      19.559 -19.907   0.240  0.00  0.00     0.086 A 
ATOM     29  C   UNL d   1      18.569 -20.878   0.449  0.00  0.00     0.037 A 
ATOM     30  C   UNL d   1      20.357 -19.519   1.309  0.00  0.00     0.066 A 
ATOM     31  C   UNL d   1      18.427 -21.438   1.730  0.00  0.00     0.039 A 
ATOM     32  C   UNL d   1      19.273 -21.063   2.777  0.00  0.00     0.071 A 
ATOM     33  C   UNL d   1      20.250 -20.075   2.589  0.00  0.00     0.068 A 
ATOM     34  N   UNL d   1      21.159 -18.535   0.786  0.00  0.00    -0.333 N 
ATOM     35  H   UNL d   1      21.840 -18.010   1.306  0.00  0.00     0.168 HD
BRANCH  32  36
ATOM     36  O   UNL d   1      19.158 -21.552   4.055  0.00  0.00    -0.351 OA
BRANCH  36  37
ATOM     37  C   UNL d   1      19.627 -20.671   5.083  0.00  0.00     0.171 C 
ATOM     38  C   UNL d   1      19.150 -21.197   6.427  0.00  0.00     0.034 C 
ENDBRANCH  36  37
ENDBRANCH  32  36
ENDBRANCH  25  26
ENDBRANCH  23  25
ENDBRANCH   1  23
TORSDOF 9
ENDMDL
MODEL 2
REMARK VINA RESULT:   -10.383      2.270      3.101
REMARK INTER + INTRA:         -14.284
REMARK INTER:                 -13.068
REMARK INTRA:                  -1.216
REMARK CONF_INDEPENDENT:        2.685
REMARK UNBOUND:                -1.216
REMARK  9 active torsions:
REMARK  status: ('A' for Active; 'I' for Inactive)
REMARK    1  A    between atoms: C_2  and  O_3 
REMARK    2  A    between atoms: O_3  and  C_4 
REMARK    3  A    between atoms: C_9  and  S_10 
REMARK    4  A    between atoms: S_10  and  C_11 
REMARK    5  A    between atoms: C_11  and  C_13 
REMARK       I    between atoms: C_13  and  N_15 
REMARK    6  A    between atoms: N_15  and  C_16 
REMARK    7  A    between atoms: C_19  and  C_20 
REMARK       I    between atoms: C_20  and  N_22 
REMARK    8  A    between atoms: N_22  and  C_23 
REMARK    9  A    between atoms: C_28  and  O_29 
ROOT
ATOM      1  C   UNL d   1      24.455 -16.203  -1.551  0.00  0.00     0.236 C 
ATOM      2  O   UNL d   1      23.922 -15.136  -1.861  0.00  0.00    -0.272 OA
ATOM      3  N   UNL d   1      25.803 -16.263  -1.178  0.00  0.00    -0.326 N 
ATOM      4  H   UNL d   1      26.274 -17.154  -1.084  0.00  0.00     0.169 HD
ENDROOT
BRANCH   3   5
ATOM      5  C   UNL d   1      26.605 -15.097  -1.019  0.00  0.00     0.034 A 
ATOM      6  C   UNL d   1      26.131 -13.971  -0.340  0.00  0.00     0.030 A 
ATOM      7  C   UNL d   1      26.881 -12.774  -0.352  0.00  0.00     0.019 A 
ATOM      8  C   UNL d   1      28.116 -12.688  -1.034  0.00  0.00     0.032 A 
ATOM      9  C   UNL d   1      28.623 -13.848  -1.610  0.00  0.00     0.019 A 
ATOM     10  C   UNL d   1      27.867 -15.025  -1.614  0.00  0.00     0.030 A 
BRANCH   8  11
ATOM     11  C   UNL d   1      28.872 -11.384  -1.089  0.00  0.00     0.256 C 
ATOM     12  O   UNL d   1      29.636 -11.104  -0.157  0.00  0.00    -0.267 OA
ATOM     13  N   UNL d   1      28.743 -10.610  -2.233  0.00  0.00    -0.321 N 
ATOM     14  H   UNL d   1      27.934 -10.699  -2.834  0.00  0.00     0.169 HD
BRANCH  13  15
ATOM     15  C   UNL d   1      29.710  -9.672  -2.680  0.00  0.00     0.068 A 
ATOM     16  C   UNL d   1      29.206  -8.498  -3.280  0.00  0.00     0.032 A 
ATOM     17  C   UNL d   1      30.061  -7.526  -3.816  0.00  0.00     0.002 A 
ATOM     18  C   UNL d   1      31.435  -7.703  -3.738  0.00  0.00     0.003 A 
ATOM     19  C   UNL d   1      31.944  -8.876  -3.178  0.00  0.00     0.039 A 
ATOM     20  C   UNL d   1      31.103  -9.885  -2.664  0.00  0.00     0.095 A 
BRANCH  20  21
ATOM     21  O   UNL d   1      31.832 -10.986  -2.290  0.00  0.00    -0.354 OA
ATOM     22  C   UNL d   1      32.721 -11.598  -3.203  0.00  0.00     0.210 C 
ENDBRANCH  20  21
ENDBRANCH  13  15
ENDBRANCH   8  11
ENDBRANCH   3   5
BRANCH   1  23
ATOM     23  C   UNL d   1      23.672 -17.556  -1.592  0.00  0.00     0.143 C 
ATOM     24  C   UNL d   1      24.092 -18.357  -2.818  0.00  0.00     0.031 C 
BRANCH  23  25
ATOM     25  S   UNL d   1      21.869 -17.176  -1.644  0.00  0.00    -0.078 SA
BRANCH  25  26
ATOM     26  C   UNL d   1      21.003 -18.205  -0.564  0.00  0.00     0.168 A 
ATOM     27  N   UNL d   1      19.905 -18.847  -0.895  0.00  0.00    -0.223 NA
ATOM     28  C   UNL d   1      19.542 -19.560   0.222  0.00  0.00     0.086 A 
ATOM     29  C   UNL d   1      18.443 -20.400   0.445  0.00  0.00     0.037 A 
ATOM     30  C   UNL d   1      20.452 -19.355   1.252  0.00  0.00     0.066 A 
ATOM     31  C   UNL d   1      18.304 -21.020   1.698  0.00  0.00     0.039 A 
ATOM     32  C   UNL d   1      19.257 -20.834   2.702  0.00  0.00     0.071 A 
ATOM     33  C   UNL d   1      20.348 -19.976   2.503  0.00  0.00     0.068 A 
ATOM     34  N   UNL d   1      21.349 -18.456   0.731  0.00  0.00    -0.333 N 
ATOM     35  H   UNL d   1      22.127 -18.064   1.231  0.00  0.00     0.168 HD
BRANCH  32  36
ATOM     36  O   UNL d   1      19.155 -21.386   3.955  0.00  0.00    -0.351 OA
BRANCH  36  37
ATOM     37  C   UNL d   1      19.769 -20.626   5.002  0.00  0.00     0.171 C 
ATOM     38  C   UNL d   1      18.763 -20.454   6.130  0.00  0.00     0.034 C 
ENDBRANCH  36  37
ENDBRANCH  32  36
ENDBRANCH  25  26
ENDBRANCH  23  25
ENDBRANCH   1  23
TORSDOF 9
ENDMDL
MODEL 3
REMARK VINA RESULT:   -10.307      5.157      7.182
REMARK INTER + INTRA:         -14.314
REMARK INTER:                 -12.992
REMARK INTRA:                  -1.322
REMARK CONF_INDEPENDENT:        2.685
REMARK UNBOUND:                -1.322
REMARK  9 active torsions:
REMARK  status: ('A' for Active; 'I' for Inactive)
REMARK    1  A    between atoms: C_2  and  O_3 
REMARK    2  A    between atoms: O_3  and  C_4 
REMARK    3  A    between atoms: C_9  and  S_10 
REMARK    4  A    between atoms: S_10  and  C_11 
REMARK    5  A    between atoms: C_11  and  C_13 
REMARK       I    between atoms: C_13  and  N_15 
REMARK    6  A    between atoms: N_15  and  C_16 
REMARK    7  A    between atoms: C_19  and  C_20 
REMARK       I    between atoms: C_20  and  N_22 
REMARK    8  A    between atoms: N_22  and  C_23 
REMARK    9  A    between atoms: C_28  and  O_29 
ROOT
ATOM      1  C   UNL d   1      28.272 -14.077   0.707  0.00  0.00     0.236 C 
ATOM      2  O   UNL d   1      27.815 -12.943   0.863  0.00  0.00    -0.272 OA
ATOM      3  N   UNL d   1      28.883 -14.768   1.760  0.00  0.00    -0.326 N 
ATOM      4  H   UNL d   1      29.396 -15.623   1.588  0.00  0.00     0.169 HD
ENDROOT
BRANCH   3   5
ATOM      5  C   UNL d   1      28.913 -14.262   3.091  0.00  0.00     0.034 A 
ATOM      6  C   UNL d   1      29.778 -13.229   3.461  0.00  0.00     0.030 A 
ATOM      7  C   UNL d   1      29.907 -12.872   4.823  0.00  0.00     0.019 A 
ATOM      8  C   UNL d   1      29.167 -13.536   5.828  0.00  0.00     0.032 A 
ATOM      9  C   UNL d   1      28.233 -14.484   5.430  0.00  0.00     0.019 A 
ATOM     10  C   UNL d   1      28.124 -14.849   4.083  0.00  0.00     0.030 A 
BRANCH   8  11
ATOM     11  C   UNL d   1      29.365 -13.184   7.282  0.00  0.00     0.256 C 
ATOM     12  O   UNL d   1      29.503 -11.993   7.588  0.00  0.00    -0.267 OA
ATOM     13  N   UNL d   1      29.285 -14.211   8.212  0.00  0.00    -0.321 N 
ATOM     14  H   UNL d   1      29.453 -15.171   7.944  0.00  0.00     0.169 HD
BRANCH  13  15
ATOM     15  C   UNL d   1      28.939 -14.031   9.576  0.00  0.00     0.068 A 
ATOM     16  C   UNL d   1      28.136 -12.908   9.872  0.00  0.00     0.032 A 
ATOM     17  C   UNL d   1      27.780 -12.590  11.189  0.00  0.00     0.002 A 
ATOM     18  C   UNL d   1      28.203 -13.404  12.230  0.00  0.00     0.003 A 
ATOM     19  C   UNL d   1      29.027 -14.496  11.954  0.00  0.00     0.039 A 
ATOM     20  C   UNL d   1      29.428 -14.818  10.639  0.00  0.00     0.095 A 
BRANCH  20  21
ATOM     21  O   UNL d   1      30.333 -15.849  10.642  0.00  0.00    -0.354 OA
ATOM     22  C   UNL d   1      31.721 -15.581  10.674  0.00  0.00     0.210 C 
ENDBRANCH  20  21
ENDBRANCH  13  15
ENDBRANCH   8  11
ENDBRANCH   3   5
BRANCH   1  23
ATOM     23  C   UNL d   1      28.229 -14.798  -0.680  0.00  0.00     0.143 C 
ATOM     24  C   UNL d   1      27.100 -14.220  -1.525  0.00  0.00     0.031 C 
BRANCH  23  25
ATOM     25  S   UNL d   1      27.970 -16.599  -0.386  0.00  0.00    -0.078 SA
BRANCH  25  26
ATOM     26  C   UNL d   1      26.296 -16.997  -0.509  0.00  0.00     0.168 A 
ATOM     27  N   UNL d   1      25.340 -16.098  -0.590  0.00  0.00    -0.223 NA
ATOM     28  C   UNL d   1      24.169 -16.812  -0.689  0.00  0.00     0.086 A 
ATOM     29  C   UNL d   1      22.843 -16.370  -0.779  0.00  0.00     0.037 A 
ATOM     30  C   UNL d   1      24.425 -18.178  -0.683  0.00  0.00     0.066 A 
ATOM     31  C   UNL d   1      21.814 -17.322  -0.875  0.00  0.00     0.039 A 
ATOM     32  C   UNL d   1      22.101 -18.689  -0.912  0.00  0.00     0.071 A 
ATOM     33  C   UNL d   1      23.421 -19.147  -0.797  0.00  0.00     0.068 A 
ATOM     34  N   UNL d   1      25.786 -18.262  -0.527  0.00  0.00    -0.333 N 
ATOM     35  H   UNL d   1      26.305 -19.118  -0.448  0.00  0.00     0.168 HD
BRANCH  32  36
ATOM     36  O   UNL d   1      21.135 -19.664  -0.970  0.00  0.00    -0.351 OA
BRANCH  36  37
ATOM     37  C   UNL d   1      19.825 -19.241  -0.577  0.00  0.00     0.171 C 
ATOM     38  C   UNL d   1      19.659 -19.500   0.912  0.00  0.00     0.034 C 
ENDBRANCH  36  37
ENDBRANCH  32  36
ENDBRANCH  25  26
ENDBRANCH  23  25
ENDBRANCH   1  23
TORSDOF 9
ENDMDL
