MODEL 1
REMARK VINA RESULT:    -7.337      0.000      0.000
REMARK INTER + INTRA:          -8.695
REMARK INTER:                  -8.530
REMARK INTRA:                  -0.165
REMARK CONF_INDEPENDENT:        1.193
REMARK UNBOUND:                -0.165
REMARK  4 active torsions:
REMARK  status: ('A' for Active; 'I' for Inactive)
REMARK    1  A    between atoms: C_2  and  C_3 
REMARK    2  A    between atoms: C_4  and  C_6 
REMARK       I    between atoms: C_6  and  N_8 
REMARK    3  A    between atoms: N_8  and  N_9 
REMARK       I    between atoms: N_9  and  C_10 
REMARK    4  A    between atoms: C_10  and  C_12 
ROOT
ATOM      1  N   UNL d   1      22.746 -18.474   0.275  0.00  0.00    -0.263 N 
ATOM      2  C   UNL d   1      22.763 -17.329  -0.514  0.00  0.00     0.277 C 
ATOM      3  O   UNL d   1      21.703 -16.770  -0.819  0.00  0.00    -0.265 OA
ATOM      4  H   UNL d   1      23.594 -18.906   0.641  0.00  0.00     0.190 HD
ENDROOT
BRANCH   1   5
ATOM      5  N   UNL d   1      21.516 -18.994   0.783  0.00  0.00    -0.263 N 
ATOM      6  C   UNL d   1      20.658 -19.606  -0.109  0.00  0.00     0.265 C 
ATOM      7  O   UNL d   1      20.980 -19.702  -1.295  0.00  0.00    -0.266 OA
ATOM      8  H   UNL d   1      21.346 -18.873   1.777  0.00  0.00     0.190 HD
BRANCH   6   9
ATOM      9  C   UNL d   1      19.337 -20.138   0.424  0.00  0.00     0.004 C 
ATOM     10  C   UNL d   1      19.158 -20.341   1.752  0.00  0.00    -0.015 C 
ATOM     11  C   UNL d   1      18.209 -20.450  -0.519  0.00  0.00     0.054 C 
BRANCH  10  12
ATOM     12  C   UNL d   1      20.178 -20.083   2.828  0.00  0.00     0.023 C 
ATOM     13  C   UNL d   1      19.904 -20.825   4.126  0.00  0.00     0.009 C 
ENDBRANCH  10  12
ENDBRANCH   6   9
ENDBRANCH   1   5
BRANCH   2  14
ATOM     14  C   UNL d   1      24.088 -16.855  -0.927  0.00  0.00     0.080 A 
ATOM     15  S   UNL d   1      24.190 -15.530  -2.022  0.00  0.00    -0.096 SA
ATOM     16  C   UNL d   1      25.899 -15.526  -1.993  0.00  0.00     0.051 A 
ATOM     17  C   UNL d   1      26.394 -16.549  -1.218  0.00  0.00     0.015 A 
ATOM     18  C   UNL d   1      25.356 -17.337  -0.611  0.00  0.00    -0.039 A 
ATOM     19  C   UNL d   1      25.641 -18.543   0.217  0.00  0.00     0.050 C 
ENDBRANCH   2  14
TORSDOF 4
ENDMDL
MODEL 2
REMARK VINA RESULT:    -6.547      2.000      6.891
REMARK INTER + INTRA:          -8.504
REMARK INTER:                  -7.741
REMARK INTRA:                  -0.763
REMARK CONF_INDEPENDENT:        1.193
REMARK UNBOUND:                -0.763
REMARK  4 active torsions:
REMARK  status: ('A' for Active; 'I' for Inactive)
REMARK    1  A    between atoms: C_2  and  C_3 
REMARK    2  A    between atoms: C_4  and  C_6 
REMARK       I    between atoms: C_6  and  N_8 
REMARK    3  A    between atoms: N_8  and  N_9 
REMARK       I    between atoms: N_9  and  C_10 
REMARK    4  A    between atoms: C_10  and  C_12 
ROOT
ATOM      1  N   UNL d   1      22.773 -17.821   0.312  0.00  0.00    -0.263 N 
ATOM      2  C   UNL d   1      22.416 -19.085  -0.144  0.00  0.00     0.277 C 
ATOM      3  O   UNL d   1      23.272 -19.838  -0.621  0.00  0.00    -0.265 OA
ATOM      4  H   UNL d   1      22.128 -17.209   0.810  0.00  0.00     0.190 HD
ENDROOT
BRANCH   1   5
ATOM      5  N   UNL d   1      24.136 -17.391   0.280  0.00  0.00    -0.263 N 
ATOM      6  C   UNL d   1      24.653 -16.980  -0.933  0.00  0.00     0.265 C 
ATOM      7  O   UNL d   1      23.933 -16.979  -1.933  0.00  0.00    -0.266 OA
ATOM      8  H   UNL d   1      24.643 -17.422   1.159  0.00  0.00     0.190 HD
BRANCH   6   9
ATOM      9  C   UNL d   1      26.110 -16.546  -0.974  0.00  0.00     0.004 C 
ATOM     10  C   UNL d   1      26.548 -15.679  -1.918  0.00  0.00    -0.015 C 
ATOM     11  C   UNL d   1      27.090 -17.081   0.034  0.00  0.00     0.054 C 
BRANCH  10  12
ATOM     12  C   UNL d   1      25.706 -15.052  -2.997  0.00  0.00     0.023 C 
ATOM     13  C   UNL d   1      26.321 -15.136  -4.385  0.00  0.00     0.009 C 
ENDBRANCH  10  12
ENDBRANCH   6   9
ENDBRANCH   1   5
BRANCH   2  14
ATOM     14  C   UNL d   1      20.999 -19.438  -0.006  0.00  0.00     0.080 A 
ATOM     15  S   UNL d   1      20.067 -19.700  -1.431  0.00  0.00    -0.096 SA
ATOM     16  C   UNL d   1      18.658 -20.085  -0.542  0.00  0.00     0.051 A 
ATOM     17  C   UNL d   1      18.864 -19.957   0.811  0.00  0.00     0.015 A 
ATOM     18  C   UNL d   1      20.209 -19.565   1.133  0.00  0.00    -0.039 A 
ATOM     19  C   UNL d   1      20.655 -19.296   2.530  0.00  0.00     0.050 C 
ENDBRANCH   2  14
TORSDOF 4
ENDMDL
MODEL 3
REMARK VINA RESULT:    -6.363      2.083      6.286
REMARK INTER + INTRA:          -8.582
REMARK INTER:                  -7.557
REMARK INTRA:                  -1.025
REMARK CONF_INDEPENDENT:        1.193
REMARK UNBOUND:                -1.025
REMARK  4 active torsions:
REMARK  status: ('A' for Active; 'I' for Inactive)
REMARK    1  A    between atoms: C_2  and  C_3 
REMARK    2  A    between atoms: C_4  and  C_6 
REMARK       I    between atoms: C_6  and  N_8 
REMARK    3  A    between atoms: N_8  and  N_9 
REMARK       I    between atoms: N_9  and  C_10 
REMARK    4  A    between atoms: C_10  and  C_12 
ROOT
ATOM      1  N   UNL d   1      21.828 -17.394  -0.718  0.00  0.00    -0.263 N 
ATOM      2  C   UNL d   1      21.883 -18.577   0.009  0.00  0.00     0.277 C 
ATOM      3  O   UNL d   1      22.952 -18.953   0.503  0.00  0.00    -0.265 OA
ATOM      4  H   UNL d   1      20.954 -16.988  -1.051  0.00  0.00     0.190 HD
ENDROOT
BRANCH   1   5
ATOM      5  N   UNL d   1      22.989 -16.572  -0.865  0.00  0.00    -0.263 N 
ATOM      6  C   UNL d   1      24.053 -17.083  -1.583  0.00  0.00     0.265 C 
ATOM      7  O   UNL d   1      23.967 -18.207  -2.082  0.00  0.00    -0.266 OA
ATOM      8  H   UNL d   1      22.959 -15.658  -0.424  0.00  0.00     0.190 HD
BRANCH   6   9
ATOM      9  C   UNL d   1      25.298 -16.221  -1.719  0.00  0.00     0.004 C 
ATOM     10  C   UNL d   1      26.264 -16.245  -0.770  0.00  0.00    -0.015 C 
ATOM     11  C   UNL d   1      25.472 -15.324  -2.914  0.00  0.00     0.054 C 
BRANCH  10  12
ATOM     12  C   UNL d   1      26.248 -17.080   0.483  0.00  0.00     0.023 C 
ATOM     13  C   UNL d   1      26.256 -18.578   0.225  0.00  0.00     0.009 C 
ENDBRANCH  10  12
ENDBRANCH   6   9
ENDBRANCH   1   5
BRANCH   2  14
ATOM     14  C   UNL d   1      20.617 -19.305   0.143  0.00  0.00     0.080 A 
ATOM     15  S   UNL d   1      19.668 -19.584  -1.267  0.00  0.00    -0.096 SA
ATOM     16  C   UNL d   1      18.478 -20.453  -0.399  0.00  0.00     0.051 A 
ATOM     17  C   UNL d   1      18.756 -20.482   0.947  0.00  0.00     0.015 A 
ATOM     18  C   UNL d   1      19.981 -19.805   1.276  0.00  0.00    -0.039 A 
ATOM     19  C   UNL d   1      20.458 -19.642   2.679  0.00  0.00     0.050 C 
ENDBRANCH   2  14
TORSDOF 4
ENDMDL
MODEL 4
REMARK VINA RESULT:    -5.947      3.935      8.142
REMARK INTER + INTRA:          -8.885
REMARK INTER:                  -7.140
REMARK INTRA:                  -1.746
REMARK CONF_INDEPENDENT:        1.193
REMARK UNBOUND:                -1.746
REMARK  4 active torsions:
REMARK  status: ('A' for Active; 'I' for Inactive)
REMARK    1  A    between atoms: C_2  and  C_3 
REMARK    2  A    between atoms: C_4  and  C_6 
REMARK       I    between atoms: C_6  and  N_8 
REMARK    3  A    between atoms: N_8  and  N_9 
REMARK       I    between atoms: N_9  and  C_10 
REMARK    4  A    between atoms: C_10  and  C_12 
ROOT
ATOM      1  N   UNL d   1      25.666 -15.846  -2.827  0.00  0.00    -0.263 N 
ATOM      2  C   UNL d   1      25.413 -15.689  -1.469  0.00  0.00     0.277 C 
ATOM      3  O   UNL d   1      25.911 -14.742  -0.851  0.00  0.00    -0.265 OA
ATOM      4  H   UNL d   1      25.194 -16.544  -3.400  0.00  0.00     0.190 HD
ENDROOT
BRANCH   1   5
ATOM      5  N   UNL d   1      26.461 -14.895  -3.537  0.00  0.00    -0.263 N 
ATOM      6  C   UNL d   1      26.549 -15.026  -4.910  0.00  0.00     0.265 C 
ATOM      7  O   UNL d   1      25.935 -15.933  -5.475  0.00  0.00    -0.266 OA
ATOM      8  H   UNL d   1      26.921 -14.180  -2.982  0.00  0.00     0.190 HD
BRANCH   6   9
ATOM      9  C   UNL d   1      27.415 -14.030  -5.665  0.00  0.00     0.004 C 
ATOM     10  C   UNL d   1      27.093 -12.714  -5.694  0.00  0.00    -0.015 C 
ATOM     11  C   UNL d   1      28.644 -14.495  -6.397  0.00  0.00     0.054 C 
BRANCH  10  12
ATOM     12  C   UNL d   1      25.904 -12.083  -5.021  0.00  0.00     0.023 C 
ATOM     13  C   UNL d   1      26.147 -11.705  -3.569  0.00  0.00     0.009 C 
ENDBRANCH  10  12
ENDBRANCH   6   9
ENDBRANCH   1   5
BRANCH   2  14
ATOM     14  C   UNL d   1      24.535 -16.693  -0.861  0.00  0.00     0.080 A 
ATOM     15  S   UNL d   1      22.832 -16.436  -0.895  0.00  0.00    -0.096 SA
ATOM     16  C   UNL d   1      22.505 -17.919  -0.111  0.00  0.00     0.051 A 
ATOM     17  C   UNL d   1      23.663 -18.576   0.231  0.00  0.00     0.015 A 
ATOM     18  C   UNL d   1      24.845 -17.868  -0.180  0.00  0.00    -0.039 A 
ATOM     19  C   UNL d   1      26.220 -18.345   0.139  0.00  0.00     0.050 C 
ENDBRANCH   2  14
TORSDOF 4
ENDMDL
MODEL 5
REMARK VINA RESULT:    -5.888     12.314     14.301
REMARK INTER + INTRA:          -8.724
REMARK INTER:                  -7.081
REMARK INTRA:                  -1.643
REMARK CONF_INDEPENDENT:        1.193
REMARK UNBOUND:                -1.643
REMARK  4 active torsions:
REMARK  status: ('A' for Active; 'I' for Inactive)
REMARK    1  A    between atoms: C_2  and  C_3 
REMARK    2  A    between atoms: C_4  and  C_6 
REMARK       I    between atoms: C_6  and  N_8 
REMARK    3  A    between atoms: N_8  and  N_9 
REMARK       I    between atoms: N_9  and  C_10 
REMARK    4  A    between atoms: C_10  and  C_12 
ROOT
ATOM      1  N   UNL d   1      33.445 -21.961   7.105  0.00  0.00    -0.263 N 
ATOM      2  C   UNL d   1      34.827 -22.096   7.163  0.00  0.00     0.277 C 
ATOM      3  O   UNL d   1      35.480 -22.252   6.125  0.00  0.00    -0.265 OA
ATOM      4  H   UNL d   1      32.877 -21.723   7.917  0.00  0.00     0.190 HD
ENDROOT
BRANCH   1   5
ATOM      5  N   UNL d   1      32.764 -21.952   5.849  0.00  0.00    -0.263 N 
ATOM      6  C   UNL d   1      31.439 -21.561   5.837  0.00  0.00     0.265 C 
ATOM      7  O   UNL d   1      30.896 -21.219   6.889  0.00  0.00    -0.266 OA
ATOM      8  H   UNL d   1      33.301 -22.243   5.037  0.00  0.00     0.190 HD
BRANCH   6   9
ATOM      9  C   UNL d   1      30.705 -21.575   4.505  0.00  0.00     0.004 C 
ATOM     10  C   UNL d   1      31.315 -21.148   3.373  0.00  0.00    -0.015 C 
ATOM     11  C   UNL d   1      29.284 -22.061   4.428  0.00  0.00     0.054 C 
BRANCH  10  12
ATOM     12  C   UNL d   1      32.725 -20.632   3.274  0.00  0.00     0.023 C 
ATOM     13  C   UNL d   1      32.822 -19.116   3.195  0.00  0.00     0.009 C 
ENDBRANCH  10  12
ENDBRANCH   6   9
ENDBRANCH   1   5
BRANCH   2  14
ATOM     14  C   UNL d   1      35.421 -22.029   8.502  0.00  0.00     0.080 A 
ATOM     15  S   UNL d   1      35.654 -23.493   9.379  0.00  0.00    -0.096 SA
ATOM     16  C   UNL d   1      36.370 -22.686  10.705  0.00  0.00     0.051 A 
ATOM     17  C   UNL d   1      36.379 -21.323  10.522  0.00  0.00     0.015 A 
ATOM     18  C   UNL d   1      35.815 -20.930   9.260  0.00  0.00    -0.039 A 
ATOM     19  C   UNL d   1      35.651 -19.502   8.863  0.00  0.00     0.050 C 
ENDBRANCH   2  14
TORSDOF 4
ENDMDL
MODEL 6
REMARK VINA RESULT:    -5.870      3.852      6.236
REMARK INTER + INTRA:          -8.774
REMARK INTER:                  -7.063
REMARK INTRA:                  -1.711
REMARK CONF_INDEPENDENT:        1.193
REMARK UNBOUND:                -1.711
REMARK  4 active torsions:
REMARK  status: ('A' for Active; 'I' for Inactive)
REMARK    1  A    between atoms: C_2  and  C_3 
REMARK    2  A    between atoms: C_4  and  C_6 
REMARK       I    between atoms: C_6  and  N_8 
REMARK    3  A    between atoms: N_8  and  N_9 
REMARK       I    between atoms: N_9  and  C_10 
REMARK    4  A    between atoms: C_10  and  C_12 
ROOT
ATOM      1  N   UNL d   1      26.169 -15.185  -2.830  0.00  0.00    -0.263 N 
ATOM      2  C   UNL d   1      25.992 -15.016  -4.198  0.00  0.00     0.277 C 
ATOM      3  O   UNL d   1      25.530 -15.935  -4.883  0.00  0.00    -0.265 OA
ATOM      4  H   UNL d   1      26.443 -14.425  -2.208  0.00  0.00     0.190 HD
ENDROOT
BRANCH   1   5
ATOM      5  N   UNL d   1      25.777 -16.400  -2.187  0.00  0.00    -0.263 N 
ATOM      6  C   UNL d   1      25.907 -16.474  -0.814  0.00  0.00     0.265 C 
ATOM      7  O   UNL d   1      26.334 -15.500  -0.190  0.00  0.00    -0.266 OA
ATOM      8  H   UNL d   1      25.430 -17.142  -2.788  0.00  0.00     0.190 HD
BRANCH   6   9
ATOM      9  C   UNL d   1      25.514 -17.774  -0.131  0.00  0.00     0.004 C 
ATOM     10  C   UNL d   1      24.239 -18.229  -0.187  0.00  0.00    -0.015 C 
ATOM     11  C   UNL d   1      26.540 -18.575   0.623  0.00  0.00     0.054 C 
BRANCH  10  12
ATOM     12  C   UNL d   1      23.094 -17.555  -0.894  0.00  0.00     0.023 C 
ATOM     13  C   UNL d   1      21.783 -18.319  -0.810  0.00  0.00     0.009 C 
ENDBRANCH  10  12
ENDBRANCH   6   9
ENDBRANCH   1   5
BRANCH   2  14
ATOM     14  C   UNL d   1      26.375 -13.706  -4.735  0.00  0.00     0.080 A 
ATOM     15  S   UNL d   1      25.530 -12.308  -4.190  0.00  0.00    -0.096 SA
ATOM     16  C   UNL d   1      26.486 -11.254  -5.138  0.00  0.00     0.051 A 
ATOM     17  C   UNL d   1      27.391 -11.948  -5.906  0.00  0.00     0.015 A 
ATOM     18  C   UNL d   1      27.323 -13.368  -5.697  0.00  0.00    -0.039 A 
ATOM     19  C   UNL d   1      28.157 -14.335  -6.466  0.00  0.00     0.050 C 
ENDBRANCH   2  14
TORSDOF 4
ENDMDL
MODEL 7
REMARK VINA RESULT:    -5.863      3.958      8.305
REMARK INTER + INTRA:          -8.731
REMARK INTER:                  -7.056
REMARK INTRA:                  -1.675
REMARK CONF_INDEPENDENT:        1.193
REMARK UNBOUND:                -1.675
REMARK  4 active torsions:
REMARK  status: ('A' for Active; 'I' for Inactive)
REMARK    1  A    between atoms: C_2  and  C_3 
REMARK    2  A    between atoms: C_4  and  C_6 
REMARK       I    between atoms: C_6  and  N_8 
REMARK    3  A    between atoms: N_8  and  N_9 
REMARK       I    between atoms: N_9  and  C_10 
REMARK    4  A    between atoms: C_10  and  C_12 
ROOT
ATOM      1  N   UNL d   1      25.604 -15.704  -2.778  0.00  0.00    -0.263 N 
ATOM      2  C   UNL d   1      25.408 -15.629  -1.404  0.00  0.00     0.277 C 
ATOM      3  O   UNL d   1      25.942 -14.728  -0.748  0.00  0.00    -0.265 OA
ATOM      4  H   UNL d   1      25.101 -16.360  -3.375  0.00  0.00     0.190 HD
ENDROOT
BRANCH   1   5
ATOM      5  N   UNL d   1      26.383 -14.718  -3.459  0.00  0.00    -0.263 N 
ATOM      6  C   UNL d   1      26.568 -14.870  -4.820  0.00  0.00     0.265 C 
ATOM      7  O   UNL d   1      26.051 -15.826  -5.401  0.00  0.00    -0.266 OA
ATOM      8  H   UNL d   1      26.759 -13.964  -2.893  0.00  0.00     0.190 HD
BRANCH   6   9
ATOM      9  C   UNL d   1      27.418 -13.837  -5.542  0.00  0.00     0.004 C 
ATOM     10  C   UNL d   1      28.589 -14.189  -6.126  0.00  0.00    -0.015 C 
ATOM     11  C   UNL d   1      26.969 -12.403  -5.615  0.00  0.00     0.054 C 
BRANCH  10  12
ATOM     12  C   UNL d   1      29.183 -15.571  -6.145  0.00  0.00     0.023 C 
ATOM     13  C   UNL d   1      29.716 -16.032  -4.798  0.00  0.00     0.009 C 
ENDBRANCH  10  12
ENDBRANCH   6   9
ENDBRANCH   1   5
BRANCH   2  14
ATOM     14  C   UNL d   1      24.541 -16.661  -0.825  0.00  0.00     0.080 A 
ATOM     15  S   UNL d   1      22.834 -16.445  -0.895  0.00  0.00    -0.096 SA
ATOM     16  C   UNL d   1      22.526 -17.944  -0.132  0.00  0.00     0.051 A 
ATOM     17  C   UNL d   1      23.693 -18.575   0.230  0.00  0.00     0.015 A 
ATOM     18  C   UNL d   1      24.865 -17.834  -0.148  0.00  0.00    -0.039 A 
ATOM     19  C   UNL d   1      26.244 -18.280   0.198  0.00  0.00     0.050 C 
ENDBRANCH   2  14
TORSDOF 4
ENDMDL
MODEL 8
REMARK VINA RESULT:    -5.778      3.850      8.116
REMARK INTER + INTRA:          -8.737
REMARK INTER:                  -6.971
REMARK INTRA:                  -1.766
REMARK CONF_INDEPENDENT:        1.193
REMARK UNBOUND:                -1.766
REMARK  4 active torsions:
REMARK  status: ('A' for Active; 'I' for Inactive)
REMARK    1  A    between atoms: C_2  and  C_3 
REMARK    2  A    between atoms: C_4  and  C_6 
REMARK       I    between atoms: C_6  and  N_8 
REMARK    3  A    between atoms: N_8  and  N_9 
REMARK       I    between atoms: N_9  and  C_10 
REMARK    4  A    between atoms: C_10  and  C_12 
ROOT
ATOM      1  N   UNL d   1      25.153 -15.292  -2.359  0.00  0.00    -0.263 N 
ATOM      2  C   UNL d   1      25.355 -15.771  -1.070  0.00  0.00     0.277 C 
ATOM      3  O   UNL d   1      26.212 -15.256  -0.343  0.00  0.00    -0.265 OA
ATOM      4  H   UNL d   1      24.390 -15.610  -2.955  0.00  0.00     0.190 HD
ENDROOT
BRANCH   1   5
ATOM      5  N   UNL d   1      25.896 -14.173  -2.847  0.00  0.00    -0.263 N 
ATOM      6  C   UNL d   1      25.502 -13.613  -4.048  0.00  0.00     0.265 C 
ATOM      7  O   UNL d   1      24.529 -14.076  -4.645  0.00  0.00    -0.266 OA
ATOM      8  H   UNL d   1      26.676 -13.860  -2.278  0.00  0.00     0.190 HD
BRANCH   6   9
ATOM      9  C   UNL d   1      26.306 -12.438  -4.582  0.00  0.00     0.004 C 
ATOM     10  C   UNL d   1      27.324 -12.634  -5.453  0.00  0.00    -0.015 C 
ATOM     11  C   UNL d   1      25.982 -11.036  -4.144  0.00  0.00     0.054 C 
BRANCH  10  12
ATOM     12  C   UNL d   1      27.780 -13.964  -5.991  0.00  0.00     0.023 C 
ATOM     13  C   UNL d   1      28.348 -14.895  -4.931  0.00  0.00     0.009 C 
ENDBRANCH  10  12
ENDBRANCH   6   9
ENDBRANCH   1   5
BRANCH   2  14
ATOM     14  C   UNL d   1      24.494 -16.885  -0.659  0.00  0.00     0.080 A 
ATOM     15  S   UNL d   1      22.786 -16.702  -0.784  0.00  0.00    -0.096 SA
ATOM     16  C   UNL d   1      22.488 -18.288  -0.220  0.00  0.00     0.051 A 
ATOM     17  C   UNL d   1      23.655 -18.931   0.120  0.00  0.00     0.015 A 
ATOM     18  C   UNL d   1      24.821 -18.122  -0.112  0.00  0.00    -0.039 A 
ATOM     19  C   UNL d   1      26.196 -18.575   0.243  0.00  0.00     0.050 C 
ENDBRANCH   2  14
TORSDOF 4
ENDMDL
MODEL 9
REMARK VINA RESULT:    -5.726      4.017      6.353
REMARK INTER + INTRA:          -8.533
REMARK INTER:                  -6.919
REMARK INTRA:                  -1.613
REMARK CONF_INDEPENDENT:        1.193
REMARK UNBOUND:                -1.613
REMARK  4 active torsions:
REMARK  status: ('A' for Active; 'I' for Inactive)
REMARK    1  A    between atoms: C_2  and  C_3 
REMARK    2  A    between atoms: C_4  and  C_6 
REMARK       I    between atoms: C_6  and  N_8 
REMARK    3  A    between atoms: N_8  and  N_9 
REMARK       I    between atoms: N_9  and  C_10 
REMARK    4  A    between atoms: C_10  and  C_12 
ROOT
ATOM      1  N   UNL d   1      26.488 -15.542  -2.898  0.00  0.00    -0.263 N 
ATOM      2  C   UNL d   1      25.791 -14.636  -3.689  0.00  0.00     0.277 C 
ATOM      3  O   UNL d   1      24.587 -14.437  -3.491  0.00  0.00    -0.265 OA
ATOM      4  H   UNL d   1      27.499 -15.659  -2.951  0.00  0.00     0.190 HD
ENDROOT
BRANCH   1   5
ATOM      5  N   UNL d   1      25.841 -16.220  -1.819  0.00  0.00    -0.263 N 
ATOM      6  C   UNL d   1      26.579 -17.140  -1.101  0.00  0.00     0.265 C 
ATOM      7  O   UNL d   1      27.760 -17.334  -1.394  0.00  0.00    -0.266 OA
ATOM      8  H   UNL d   1      24.867 -15.984  -1.652  0.00  0.00     0.190 HD
BRANCH   6   9
ATOM      9  C   UNL d   1      25.885 -17.881   0.031  0.00  0.00     0.004 C 
ATOM     10  C   UNL d   1      24.568 -18.187  -0.047  0.00  0.00    -0.015 C 
ATOM     11  C   UNL d   1      26.655 -18.281   1.260  0.00  0.00     0.054 C 
BRANCH  10  12
ATOM     12  C   UNL d   1      23.654 -17.862  -1.198  0.00  0.00     0.023 C 
ATOM     13  C   UNL d   1      22.181 -18.090  -0.899  0.00  0.00     0.009 C 
ENDBRANCH  10  12
ENDBRANCH   6   9
ENDBRANCH   1   5
BRANCH   2  14
ATOM     14  C   UNL d   1      26.574 -13.956  -4.726  0.00  0.00     0.080 A 
ATOM     15  S   UNL d   1      27.704 -14.874  -5.647  0.00  0.00    -0.096 SA
ATOM     16  C   UNL d   1      28.152 -13.528  -6.600  0.00  0.00     0.051 A 
ATOM     17  C   UNL d   1      27.508 -12.384  -6.193  0.00  0.00     0.015 A 
ATOM     18  C   UNL d   1      26.607 -12.615  -5.097  0.00  0.00    -0.039 A 
ATOM     19  C   UNL d   1      25.847 -11.516  -4.436  0.00  0.00     0.050 C 
ENDBRANCH   2  14
TORSDOF 4
ENDMDL
