MODEL 1
REMARK VINA RESULT:   -32.045      0.000      0.000
REMARK INTER + INTRA:         -33.836
REMARK INTER:                 -33.238
REMARK INTRA:                  -0.597
REMARK CONF_INDEPENDENT:        1.193
REMARK UNBOUND:                -0.597
REMARK  4 active torsions:
REMARK  status: ('A' for Active; 'I' for Inactive)
REMARK       I    between atoms: C_2  and  N_3 
REMARK    1  A    between atoms: C_2  and  C_19 
REMARK    2  A    between atoms: N_3  and  C_4 
REMARK    3  A    between atoms: C_8  and  C_9 
REMARK       I    between atoms: C_9  and  N_11 
REMARK    4  A    between atoms: N_11  and  C_12 
ROOT
ATOM      1  C   UNL d   1      26.892 -16.199  -1.696  0.00  0.00     0.035 A 
ATOM      2  C   UNL d   1      27.673 -16.707  -0.656  0.00  0.00     0.029 A 
ATOM      3  C   UNL d   1      27.066 -17.422   0.385  0.00  0.00     0.003 A 
ATOM      4  C   UNL d   1      25.681 -17.610   0.392  0.00  0.00     0.017 A 
ATOM      5  C   UNL d   1      24.890 -17.109  -0.652  0.00  0.00     0.034 A 
ATOM      6  C   UNL d   1      25.508 -16.395  -1.679  0.00  0.00     0.046 A 
ENDROOT
BRANCH   1   7
ATOM      7  N   UNL d   1      27.486 -15.547  -2.802  0.00  0.00    -0.323 N 
ATOM      8  C   UNL d   1      26.763 -15.187  -3.933  0.00  0.00     0.256 C 
ATOM      9  O   UNL d   1      25.542 -15.303  -4.059  0.00  0.00    -0.267 OA
ATOM     10  H   UNL d   1      28.428 -15.190  -2.689  0.00  0.00     0.169 HD
BRANCH   8  11
ATOM     11  C   UNL d   1      27.510 -14.522  -5.024  0.00  0.00     0.032 A 
ATOM     12  C   UNL d   1      28.575 -15.148  -5.678  0.00  0.00     0.017 A 
ATOM     13  C   UNL d   1      29.281 -14.451  -6.664  0.00  0.00     0.001 A 
ATOM     14  C   UNL d   1      28.880 -13.168  -7.046  0.00  0.00     0.000 A 
ATOM     15  C   UNL d   1      27.786 -12.565  -6.428  0.00  0.00     0.001 A 
ATOM     16  C   UNL d   1      27.102 -13.241  -5.418  0.00  0.00     0.017 A 
ENDBRANCH   8  11
ENDBRANCH   1   7
BRANCH   5  17
ATOM     17  C   UNL d   1      23.425 -17.395  -0.650  0.00  0.00     0.256 C 
ATOM     18  O   UNL d   1      22.667 -16.511  -1.054  0.00  0.00    -0.267 OA
ATOM     19  N   UNL d   1      22.994 -18.605  -0.118  0.00  0.00    -0.322 N 
ATOM     20  H   UNL d   1      23.631 -19.189   0.406  0.00  0.00     0.169 HD
BRANCH  19  21
ATOM     21  C   UNL d   1      21.633 -18.964  -0.061  0.00  0.00     0.052 A 
ATOM     22  C   UNL d   1      21.027 -19.291   1.147  0.00  0.00     0.032 A 
ATOM     23  C   UNL d   1      19.680 -19.633   1.174  0.00  0.00     0.021 A 
ATOM     24  C   UNL d   1      18.983 -19.645  -0.022  0.00  0.00     0.116 A 
ATOM     25  N   UNL d   1      19.530 -19.324  -1.217  0.00  0.00    -0.271 NA
ATOM     26  C   UNL d   1      20.841 -18.979  -1.206  0.00  0.00     0.145 A 
ENDBRANCH  19  21
ENDBRANCH   5  17
TORSDOF 4
ENDMDL
MODEL 2
REMARK VINA RESULT:   -31.822      1.760      2.288
REMARK INTER + INTRA:         -33.765
REMARK INTER:                 -33.015
REMARK INTRA:                  -0.750
REMARK CONF_INDEPENDENT:        1.193
REMARK UNBOUND:                -0.750
REMARK  4 active torsions:
REMARK  status: ('A' for Active; 'I' for Inactive)
REMARK       I    between atoms: C_2  and  N_3 
REMARK    1  A    between atoms: C_2  and  C_19 
REMARK    2  A    between atoms: N_3  and  C_4 
REMARK    3  A    between atoms: C_8  and  C_9 
REMARK       I    between atoms: C_9  and  N_11 
REMARK    4  A    between atoms: N_11  and  C_12 
ROOT
ATOM      1  C   UNL d   1      26.159 -15.101  -1.340  0.00  0.00     0.035 A 
ATOM      2  C   UNL d   1      27.255 -15.606  -0.637  0.00  0.00     0.029 A 
ATOM      3  C   UNL d   1      27.172 -16.865  -0.029  0.00  0.00     0.003 A 
ATOM      4  C   UNL d   1      25.988 -17.605  -0.107  0.00  0.00     0.017 A 
ATOM      5  C   UNL d   1      24.885 -17.108  -0.816  0.00  0.00     0.034 A 
ATOM      6  C   UNL d   1      24.981 -15.851  -1.414  0.00  0.00     0.046 A 
ENDROOT
BRANCH   1   7
ATOM      7  N   UNL d   1      26.243 -13.872  -2.036  0.00  0.00    -0.323 N 
ATOM      8  C   UNL d   1      25.771 -13.716  -3.334  0.00  0.00     0.256 C 
ATOM      9  O   UNL d   1      25.160 -14.575  -3.973  0.00  0.00    -0.267 OA
ATOM     10  H   UNL d   1      26.504 -13.048  -1.507  0.00  0.00     0.169 HD
BRANCH   8  11
ATOM     11  C   UNL d   1      25.933 -12.380  -3.950  0.00  0.00     0.032 A 
ATOM     12  C   UNL d   1      25.892 -11.207  -3.192  0.00  0.00     0.017 A 
ATOM     13  C   UNL d   1      25.996  -9.969  -3.836  0.00  0.00     0.001 A 
ATOM     14  C   UNL d   1      26.214  -9.906  -5.214  0.00  0.00     0.000 A 
ATOM     15  C   UNL d   1      26.303 -11.079  -5.962  0.00  0.00     0.001 A 
ATOM     16  C   UNL d   1      26.164 -12.314  -5.331  0.00  0.00     0.017 A 
ENDBRANCH   8  11
ENDBRANCH   1   7
BRANCH   5  17
ATOM     17  C   UNL d   1      23.665 -17.959  -0.943  0.00  0.00     0.256 C 
ATOM     18  O   UNL d   1      23.573 -18.687  -1.934  0.00  0.00    -0.267 OA
ATOM     19  N   UNL d   1      22.667 -17.823   0.015  0.00  0.00    -0.322 N 
ATOM     20  H   UNL d   1      22.688 -17.054   0.670  0.00  0.00     0.169 HD
BRANCH  19  21
ATOM     21  C   UNL d   1      21.474 -18.573  -0.023  0.00  0.00     0.052 A 
ATOM     22  C   UNL d   1      21.032 -19.275   1.093  0.00  0.00     0.032 A 
ATOM     23  C   UNL d   1      19.847 -19.999   1.028  0.00  0.00     0.021 A 
ATOM     24  C   UNL d   1      19.145 -20.002  -0.165  0.00  0.00     0.116 A 
ATOM     25  N   UNL d   1      19.533 -19.325  -1.270  0.00  0.00    -0.271 NA
ATOM     26  C   UNL d   1      20.684 -18.615  -1.169  0.00  0.00     0.145 A 
ENDBRANCH  19  21
ENDBRANCH   5  17
TORSDOF 4
ENDMDL
MODEL 3
REMARK VINA RESULT:   -31.207      3.312      5.750
REMARK INTER + INTRA:         -33.160
REMARK INTER:                 -32.400
REMARK INTRA:                  -0.760
REMARK CONF_INDEPENDENT:        1.193
REMARK UNBOUND:                -0.760
REMARK  4 active torsions:
REMARK  status: ('A' for Active; 'I' for Inactive)
REMARK       I    between atoms: C_2  and  N_3 
REMARK    1  A    between atoms: C_2  and  C_19 
REMARK    2  A    between atoms: N_3  and  C_4 
REMARK    3  A    between atoms: C_8  and  C_9 
REMARK       I    between atoms: C_9  and  N_11 
REMARK    4  A    between atoms: N_11  and  C_12 
ROOT
ATOM      1  C   UNL d   1      26.901 -15.738  -0.121  0.00  0.00     0.035 A 
ATOM      2  C   UNL d   1      27.237 -15.050  -1.289  0.00  0.00     0.029 A 
ATOM      3  C   UNL d   1      26.476 -15.235  -2.450  0.00  0.00     0.003 A 
ATOM      4  C   UNL d   1      25.395 -16.123  -2.446  0.00  0.00     0.017 A 
ATOM      5  C   UNL d   1      25.047 -16.813  -1.276  0.00  0.00     0.034 A 
ATOM      6  C   UNL d   1      25.816 -16.620  -0.129  0.00  0.00     0.046 A 
ENDROOT
BRANCH   1   7
ATOM      7  N   UNL d   1      27.597 -15.506   1.088  0.00  0.00    -0.323 N 
ATOM      8  C   UNL d   1      27.425 -14.349   1.838  0.00  0.00     0.256 C 
ATOM      9  O   UNL d   1      26.603 -13.463   1.596  0.00  0.00    -0.267 OA
ATOM     10  H   UNL d   1      28.108 -16.281   1.494  0.00  0.00     0.169 HD
BRANCH   8  11
ATOM     11  C   UNL d   1      28.226 -14.227   3.077  0.00  0.00     0.032 A 
ATOM     12  C   UNL d   1      29.575 -13.861   3.052  0.00  0.00     0.017 A 
ATOM     13  C   UNL d   1      30.298 -13.816   4.249  0.00  0.00     0.001 A 
ATOM     14  C   UNL d   1      29.661 -14.060   5.468  0.00  0.00     0.000 A 
ATOM     15  C   UNL d   1      28.303 -14.377   5.496  0.00  0.00     0.001 A 
ATOM     16  C   UNL d   1      27.587 -14.459   4.302  0.00  0.00     0.017 A 
ENDBRANCH   8  11
ENDBRANCH   1   7
BRANCH   5  17
ATOM     17  C   UNL d   1      23.841 -17.692  -1.289  0.00  0.00     0.256 C 
ATOM     18  O   UNL d   1      23.660 -18.405  -2.278  0.00  0.00    -0.267 OA
ATOM     19  N   UNL d   1      22.950 -17.598  -0.226  0.00  0.00    -0.322 N 
ATOM     20  H   UNL d   1      23.024 -16.840   0.438  0.00  0.00     0.169 HD
BRANCH  19  21
ATOM     21  C   UNL d   1      21.777 -18.376  -0.150  0.00  0.00     0.052 A 
ATOM     22  C   UNL d   1      21.376 -18.955   1.049  0.00  0.00     0.032 A 
ATOM     23  C   UNL d   1      20.211 -19.710   1.095  0.00  0.00     0.021 A 
ATOM     24  C   UNL d   1      19.486 -19.870  -0.073  0.00  0.00     0.116 A 
ATOM     25  N   UNL d   1      19.834 -19.316  -1.258  0.00  0.00    -0.271 NA
ATOM     26  C   UNL d   1      20.967 -18.572  -1.265  0.00  0.00     0.145 A 
ENDBRANCH  19  21
ENDBRANCH   5  17
TORSDOF 4
ENDMDL
MODEL 4
REMARK VINA RESULT:   -30.123      2.429      2.825
REMARK INTER + INTRA:         -32.109
REMARK INTER:                 -31.316
REMARK INTRA:                  -0.793
REMARK CONF_INDEPENDENT:        1.193
REMARK UNBOUND:                -0.793
REMARK  4 active torsions:
REMARK  status: ('A' for Active; 'I' for Inactive)
REMARK       I    between atoms: C_2  and  N_3 
REMARK    1  A    between atoms: C_2  and  C_19 
REMARK    2  A    between atoms: N_3  and  C_4 
REMARK    3  A    between atoms: C_8  and  C_9 
REMARK       I    between atoms: C_9  and  N_11 
REMARK    4  A    between atoms: N_11  and  C_12 
ROOT
ATOM      1  C   UNL d   1      26.883 -15.759  -0.842  0.00  0.00     0.035 A 
ATOM      2  C   UNL d   1      27.719 -16.746  -0.316  0.00  0.00     0.029 A 
ATOM      3  C   UNL d   1      27.169 -17.936   0.177  0.00  0.00     0.003 A 
ATOM      4  C   UNL d   1      25.784 -18.127   0.161  0.00  0.00     0.017 A 
ATOM      5  C   UNL d   1      24.937 -17.144  -0.371  0.00  0.00     0.034 A 
ATOM      6  C   UNL d   1      25.500 -15.963  -0.855  0.00  0.00     0.046 A 
ENDROOT
BRANCH   1   7
ATOM      7  N   UNL d   1      27.416 -14.585  -1.424  0.00  0.00    -0.323 N 
ATOM      8  C   UNL d   1      27.133 -13.315  -0.935  0.00  0.00     0.256 C 
ATOM      9  O   UNL d   1      26.483 -13.077   0.085  0.00  0.00    -0.267 OA
ATOM     10  H   UNL d   1      28.153 -14.692  -2.111  0.00  0.00     0.169 HD
BRANCH   8  11
ATOM     11  C   UNL d   1      27.746 -12.171  -1.646  0.00  0.00     0.032 A 
ATOM     12  C   UNL d   1      27.256 -10.869  -1.512  0.00  0.00     0.017 A 
ATOM     13  C   UNL d   1      27.840  -9.835  -2.251  0.00  0.00     0.001 A 
ATOM     14  C   UNL d   1      28.950 -10.085  -3.060  0.00  0.00     0.000 A 
ATOM     15  C   UNL d   1      29.469 -11.376  -3.156  0.00  0.00     0.001 A 
ATOM     16  C   UNL d   1      28.868 -12.417  -2.449  0.00  0.00     0.017 A 
ENDBRANCH   8  11
ENDBRANCH   1   7
BRANCH   5  17
ATOM     17  C   UNL d   1      23.471 -17.415  -0.442  0.00  0.00     0.256 C 
ATOM     18  O   UNL d   1      22.736 -16.504  -0.830  0.00  0.00    -0.267 OA
ATOM     19  N   UNL d   1      23.009 -18.646   0.011  0.00  0.00    -0.322 N 
ATOM     20  H   UNL d   1      23.619 -19.261   0.530  0.00  0.00     0.169 HD
BRANCH  19  21
ATOM     21  C   UNL d   1      21.643 -18.994  -0.004  0.00  0.00     0.052 A 
ATOM     22  C   UNL d   1      20.974 -19.326   1.168  0.00  0.00     0.032 A 
ATOM     23  C   UNL d   1      19.625 -19.656   1.123  0.00  0.00     0.021 A 
ATOM     24  C   UNL d   1      18.989 -19.652  -0.106  0.00  0.00     0.116 A 
ATOM     25  N   UNL d   1      19.599 -19.325  -1.269  0.00  0.00    -0.271 NA
ATOM     26  C   UNL d   1      20.910 -18.991  -1.188  0.00  0.00     0.145 A 
ENDBRANCH  19  21
ENDBRANCH   5  17
TORSDOF 4
ENDMDL
MODEL 5
REMARK VINA RESULT:   -29.801      3.034      4.837
REMARK INTER + INTRA:         -31.722
REMARK INTER:                 -30.994
REMARK INTRA:                  -0.728
REMARK CONF_INDEPENDENT:        1.193
REMARK UNBOUND:                -0.728
REMARK  4 active torsions:
REMARK  status: ('A' for Active; 'I' for Inactive)
REMARK       I    between atoms: C_2  and  N_3 
REMARK    1  A    between atoms: C_2  and  C_19 
REMARK    2  A    between atoms: N_3  and  C_4 
REMARK    3  A    between atoms: C_8  and  C_9 
REMARK       I    between atoms: C_9  and  N_11 
REMARK    4  A    between atoms: N_11  and  C_12 
ROOT
ATOM      1  C   UNL d   1      27.328 -16.978  -0.819  0.00  0.00     0.035 A 
ATOM      2  C   UNL d   1      27.255 -15.625  -1.155  0.00  0.00     0.029 A 
ATOM      3  C   UNL d   1      26.023 -15.059  -1.508  0.00  0.00     0.003 A 
ATOM      4  C   UNL d   1      24.872 -15.853  -1.544  0.00  0.00     0.017 A 
ATOM      5  C   UNL d   1      24.935 -17.211  -1.202  0.00  0.00     0.034 A 
ATOM      6  C   UNL d   1      26.169 -17.761  -0.856  0.00  0.00     0.046 A 
ENDROOT
BRANCH   1   7
ATOM      7  N   UNL d   1      28.541 -17.556  -0.376  0.00  0.00    -0.323 N 
ATOM      8  C   UNL d   1      29.742 -17.380  -1.054  0.00  0.00     0.256 C 
ATOM      9  O   UNL d   1      29.903 -16.647  -2.032  0.00  0.00    -0.267 OA
ATOM     10  H   UNL d   1      28.556 -17.969   0.548  0.00  0.00     0.169 HD
BRANCH   8  11
ATOM     11  C   UNL d   1      30.934 -18.051  -0.490  0.00  0.00     0.032 A 
ATOM     12  C   UNL d   1      31.207 -19.400  -0.733  0.00  0.00     0.017 A 
ATOM     13  C   UNL d   1      32.319 -19.997  -0.128  0.00  0.00     0.001 A 
ATOM     14  C   UNL d   1      33.192 -19.234   0.651  0.00  0.00     0.000 A 
ATOM     15  C   UNL d   1      32.946 -17.877   0.852  0.00  0.00     0.001 A 
ATOM     16  C   UNL d   1      31.819 -17.286   0.282  0.00  0.00     0.017 A 
ENDBRANCH   8  11
ENDBRANCH   1   7
BRANCH   5  17
ATOM     17  C   UNL d   1      23.673 -18.008  -1.177  0.00  0.00     0.256 C 
ATOM     18  O   UNL d   1      23.454 -18.768  -2.123  0.00  0.00    -0.267 OA
ATOM     19  N   UNL d   1      22.780 -17.789  -0.135  0.00  0.00    -0.322 N 
ATOM     20  H   UNL d   1      22.898 -16.997   0.482  0.00  0.00     0.169 HD
BRANCH  19  21
ATOM     21  C   UNL d   1      21.558 -18.483  -0.027  0.00  0.00     0.052 A 
ATOM     22  C   UNL d   1      21.128 -18.994   1.193  0.00  0.00     0.032 A 
ATOM     23  C   UNL d   1      19.913 -19.666   1.270  0.00  0.00     0.021 A 
ATOM     24  C   UNL d   1      19.170 -19.812   0.112  0.00  0.00     0.116 A 
ATOM     25  N   UNL d   1      19.545 -19.322  -1.092  0.00  0.00    -0.271 NA
ATOM     26  C   UNL d   1      20.726 -18.657  -1.130  0.00  0.00     0.145 A 
ENDBRANCH  19  21
ENDBRANCH   5  17
TORSDOF 4
ENDMDL
MODEL 6
REMARK VINA RESULT:   -29.718      3.090      4.982
REMARK INTER + INTRA:         -31.476
REMARK INTER:                 -30.911
REMARK INTRA:                  -0.566
REMARK CONF_INDEPENDENT:        1.193
REMARK UNBOUND:                -0.566
REMARK  4 active torsions:
REMARK  status: ('A' for Active; 'I' for Inactive)
REMARK       I    between atoms: C_2  and  N_3 
REMARK    1  A    between atoms: C_2  and  C_19 
REMARK    2  A    between atoms: N_3  and  C_4 
REMARK    3  A    between atoms: C_8  and  C_9 
REMARK       I    between atoms: C_9  and  N_11 
REMARK    4  A    between atoms: N_11  and  C_12 
ROOT
ATOM      1  C   UNL d   1      27.542 -16.276  -0.425  0.00  0.00     0.035 A 
ATOM      2  C   UNL d   1      27.340 -15.379  -1.476  0.00  0.00     0.029 A 
ATOM      3  C   UNL d   1      26.076 -15.276  -2.070  0.00  0.00     0.003 A 
ATOM      4  C   UNL d   1      25.024 -16.084  -1.626  0.00  0.00     0.017 A 
ATOM      5  C   UNL d   1      25.217 -16.983  -0.567  0.00  0.00     0.034 A 
ATOM      6  C   UNL d   1      26.482 -17.076   0.013  0.00  0.00     0.046 A 
ENDROOT
BRANCH   1   7
ATOM      7  N   UNL d   1      28.784 -16.340   0.251  0.00  0.00    -0.323 N 
ATOM      8  C   UNL d   1      29.997 -16.146  -0.399  0.00  0.00     0.256 C 
ATOM      9  O   UNL d   1      30.124 -15.813  -1.579  0.00  0.00    -0.267 OA
ATOM     10  H   UNL d   1      28.769 -16.364   1.263  0.00  0.00     0.169 HD
BRANCH   8  11
ATOM     11  C   UNL d   1      31.223 -16.255   0.424  0.00  0.00     0.032 A 
ATOM     12  C   UNL d   1      31.607 -15.248   1.314  0.00  0.00     0.017 A 
ATOM     13  C   UNL d   1      32.804 -15.379   2.025  0.00  0.00     0.001 A 
ATOM     14  C   UNL d   1      33.574 -16.538   1.905  0.00  0.00     0.000 A 
ATOM     15  C   UNL d   1      33.164 -17.563   1.053  0.00  0.00     0.001 A 
ATOM     16  C   UNL d   1      31.990 -17.422   0.315  0.00  0.00     0.017 A 
ENDBRANCH   8  11
ENDBRANCH   1   7
BRANCH   5  17
ATOM     17  C   UNL d   1      24.052 -17.772  -0.069  0.00  0.00     0.256 C 
ATOM     18  O   UNL d   1      24.228 -18.499   0.911  0.00  0.00    -0.267 OA
ATOM     19  N   UNL d   1      22.863 -17.709  -0.785  0.00  0.00    -0.322 N 
ATOM     20  H   UNL d   1      22.840 -17.287  -1.703  0.00  0.00     0.169 HD
BRANCH  19  21
ATOM     21  C   UNL d   1      21.710 -18.425  -0.403  0.00  0.00     0.052 A 
ATOM     22  C   UNL d   1      21.568 -18.920   0.888  0.00  0.00     0.032 A 
ATOM     23  C   UNL d   1      20.416 -19.615   1.238  0.00  0.00     0.021 A 
ATOM     24  C   UNL d   1      19.443 -19.799   0.272  0.00  0.00     0.116 A 
ATOM     25  N   UNL d   1      19.536 -19.326  -0.992  0.00  0.00    -0.271 NA
ATOM     26  C   UNL d   1      20.664 -18.639  -1.297  0.00  0.00     0.145 A 
ENDBRANCH  19  21
ENDBRANCH   5  17
TORSDOF 4
ENDMDL
MODEL 7
REMARK VINA RESULT:   -29.634      3.447      5.399
REMARK INTER + INTRA:         -31.516
REMARK INTER:                 -30.828
REMARK INTRA:                  -0.688
REMARK CONF_INDEPENDENT:        1.193
REMARK UNBOUND:                -0.688
REMARK  4 active torsions:
REMARK  status: ('A' for Active; 'I' for Inactive)
REMARK       I    between atoms: C_2  and  N_3 
REMARK    1  A    between atoms: C_2  and  C_19 
REMARK    2  A    between atoms: N_3  and  C_4 
REMARK    3  A    between atoms: C_8  and  C_9 
REMARK       I    between atoms: C_9  and  N_11 
REMARK    4  A    between atoms: N_11  and  C_12 
ROOT
ATOM      1  C   UNL d   1      27.273 -15.666  -0.223  0.00  0.00     0.035 A 
ATOM      2  C   UNL d   1      27.301 -15.300  -1.570  0.00  0.00     0.029 A 
ATOM      3  C   UNL d   1      26.298 -15.753  -2.436  0.00  0.00     0.003 A 
ATOM      4  C   UNL d   1      25.283 -16.586  -1.958  0.00  0.00     0.017 A 
ATOM      5  C   UNL d   1      25.243 -16.955  -0.606  0.00  0.00     0.034 A 
ATOM      6  C   UNL d   1      26.251 -16.498   0.244  0.00  0.00     0.046 A 
ENDROOT
BRANCH   1   7
ATOM      7  N   UNL d   1      28.224 -15.155   0.693  0.00  0.00    -0.323 N 
ATOM      8  C   UNL d   1      27.893 -14.222   1.667  0.00  0.00     0.256 C 
ATOM      9  O   UNL d   1      26.753 -13.815   1.902  0.00  0.00    -0.267 OA
ATOM     10  H   UNL d   1      29.127 -15.611   0.737  0.00  0.00     0.169 HD
BRANCH   8  11
ATOM     11  C   UNL d   1      28.986 -13.760   2.552  0.00  0.00     0.032 A 
ATOM     12  C   UNL d   1      29.199 -14.316   3.816  0.00  0.00     0.017 A 
ATOM     13  C   UNL d   1      30.214 -13.802   4.631  0.00  0.00     0.001 A 
ATOM     14  C   UNL d   1      31.056 -12.793   4.159  0.00  0.00     0.000 A 
ATOM     15  C   UNL d   1      30.873 -12.273   2.878  0.00  0.00     0.001 A 
ATOM     16  C   UNL d   1      29.841 -12.756   2.075  0.00  0.00     0.017 A 
ENDBRANCH   8  11
ENDBRANCH   1   7
BRANCH   5  17
ATOM     17  C   UNL d   1      24.102 -17.782  -0.115  0.00  0.00     0.256 C 
ATOM     18  O   UNL d   1      24.321 -18.581   0.798  0.00  0.00    -0.267 OA
ATOM     19  N   UNL d   1      22.880 -17.666  -0.768  0.00  0.00    -0.322 N 
ATOM     20  H   UNL d   1      22.815 -17.174  -1.649  0.00  0.00     0.169 HD
BRANCH  19  21
ATOM     21  C   UNL d   1      21.745 -18.410  -0.389  0.00  0.00     0.052 A 
ATOM     22  C   UNL d   1      21.634 -18.948   0.889  0.00  0.00     0.032 A 
ATOM     23  C   UNL d   1      20.499 -19.671   1.237  0.00  0.00     0.021 A 
ATOM     24  C   UNL d   1      19.511 -19.839   0.283  0.00  0.00     0.116 A 
ATOM     25  N   UNL d   1      19.573 -19.325  -0.966  0.00  0.00    -0.271 NA
ATOM     26  C   UNL d   1      20.685 -18.611  -1.269  0.00  0.00     0.145 A 
ENDBRANCH  19  21
ENDBRANCH   5  17
TORSDOF 4
ENDMDL
