MODEL 1
REMARK VINA RESULT:    -9.176      0.000      0.000
REMARK INTER + INTRA:         -16.010
REMARK INTER:                 -12.159
REMARK INTRA:                  -3.851
REMARK CONF_INDEPENDENT:        2.983
REMARK UNBOUND:                -3.851
REMARK  10 active torsions:
REMARK  status: ('A' for Active; 'I' for Inactive)
REMARK    1  A    between atoms: C_5  and  N_6 
REMARK       I    between atoms: N_6  and  C_7 
REMARK    2  A    between atoms: C_18  and  N_6 
REMARK    3  A    between atoms: C_7  and  C_9 
REMARK    4  A    between atoms: C_12  and  C_13 
REMARK       I    between atoms: C_13  and  N_14 
REMARK    5  A    between atoms: C_16  and  N_17 
REMARK    6  A    between atoms: C_18  and  C_27 
REMARK    7  A    between atoms: C_18  and  C_19 
REMARK       I    between atoms: C_19  and  N_21 
REMARK    8  A    between atoms: N_21  and  C_22 
REMARK    9  A    between atoms: C_22  and  C_23 
REMARK   10  A    between atoms: C_23  and  C_24 
ROOT
ATOM      1  N   UNL d   1      28.361 -16.259  -1.074  0.00  0.00    -0.295 N 
ATOM      2  C   UNL d   1      29.134 -15.334  -0.127  0.00  0.00     0.269 C 
ATOM      3  O   UNL d   1      30.371 -15.243  -0.173  0.00  0.00    -0.266 OA
ENDROOT
BRANCH   1   4
ATOM      4  C   UNL d   1      26.885 -16.564  -1.026  0.00  0.00     0.044 C 
ATOM      5  C   UNL d   1      25.925 -15.868  -1.778  0.00  0.00     0.031 C 
ATOM      6  C   UNL d   1      24.525 -15.940  -1.471  0.00  0.00     0.009 C 
ATOM      7  C   UNL d   1      24.021 -16.987  -0.732  0.00  0.00    -0.061 C 
ATOM      8  C   UNL d   1      22.595 -17.311  -0.485  0.00  0.00     0.048 C 
ATOM      9  C   UNL d   1      24.932 -17.846  -0.210  0.00  0.00     0.015 C 
ATOM     10  C   UNL d   1      26.286 -17.511  -0.195  0.00  0.00    -0.035 C 
ATOM     11  C   UNL d   1      27.005 -18.402   0.690  0.00  0.00     0.050 C 
ENDBRANCH   1   4
BRANCH   1  12
ATOM     12  C   UNL d   1      29.137 -17.064  -2.174  0.00  0.00     0.218 C 
BRANCH  12  13
ATOM     13  C   UNL d   1      29.293 -16.325  -3.616  0.00  0.00    -0.026 A 
ATOM     14  C   UNL d   1      28.720 -15.109  -4.019  0.00  0.00     0.013 A 
ATOM     15  C   UNL d   1      28.854 -14.501  -5.268  0.00  0.00     0.043 A 
ATOM     16  C   UNL d   1      29.505 -15.175  -6.257  0.00  0.00     0.116 A 
ATOM     17  F   UNL d   1      29.641 -14.612  -7.460  0.00  0.00    -0.206 F 
ATOM     18  C   UNL d   1      30.044 -16.410  -5.979  0.00  0.00     0.043 A 
ATOM     19  C   UNL d   1      29.993 -16.927  -4.674  0.00  0.00     0.013 A 
ENDBRANCH  12  13
BRANCH  12  20
ATOM     20  C   UNL d   1      30.584 -17.657  -1.839  0.00  0.00     0.245 C 
ATOM     21  O   UNL d   1      31.329 -18.271  -2.597  0.00  0.00    -0.271 OA
ATOM     22  N   UNL d   1      30.867 -17.755  -0.473  0.00  0.00    -0.359 N 
ATOM     23  H   UNL d   1      30.115 -17.538   0.169  0.00  0.00     0.162 HD
BRANCH  22  24
ATOM     24  C   UNL d   1      31.683 -18.910  -0.153  0.00  0.00     0.123 C 
BRANCH  24  25
ATOM     25  C   UNL d   1      30.992 -20.199  -0.531  0.00  0.00     0.023 C 
BRANCH  25  26
ATOM     26  C   UNL d   1      31.370 -21.325   0.432  0.00  0.00    -0.021 C 
ATOM     27  C   UNL d   1      32.239 -20.789   1.568  0.00  0.00     0.009 C 
ATOM     28  C   UNL d   1      30.097 -21.945   0.994  0.00  0.00     0.009 C 
ENDBRANCH  25  26
ENDBRANCH  24  25
ENDBRANCH  22  24
ENDBRANCH  12  20
ENDBRANCH   1  12
BRANCH   2  29
ATOM     29  C   UNL d   1      28.543 -14.522   0.962  0.00  0.00     0.115 C 
ATOM     30  S   UNL d   1      26.917 -13.885   0.845  0.00  0.00     0.019 SA
ATOM     31  N   UNL d   1      26.677 -13.697   2.509  0.00  0.00    -0.203 NA
ATOM     32  C   UNL d   1      27.846 -13.918   3.140  0.00  0.00     0.155 C 
ATOM     33  C   UNL d   1      28.965 -14.301   2.254  0.00  0.00     0.065 C 
BRANCH  32  34
ATOM     34  C   UNL d   1      27.917 -14.157   4.616  0.00  0.00     0.270 C 
ATOM     35  N   UNL d   1      28.661 -15.197   5.101  0.00  0.00    -0.365 N 
ATOM     36  H   UNL d   1      29.214 -15.802   4.514  0.00  0.00     0.159 HD
ATOM     37  H   UNL d   1      28.612 -15.362   6.100  0.00  0.00     0.159 HD
ATOM     38  O   UNL d   1      27.398 -13.391   5.433  0.00  0.00    -0.266 OA
ENDBRANCH  32  34
BRANCH  33  39
ATOM     39  N   UNL d   1      30.142 -14.825   2.694  0.00  0.00    -0.299 NA
ATOM     40  H   UNL d   1      30.081 -15.276   3.616  0.00  0.00     0.124 HD
ATOM     41  H   UNL d   1      30.604 -15.486   2.071  0.00  0.00     0.124 HD
ENDBRANCH  33  39
ENDBRANCH   2  29
TORSDOF 10
ENDMDL
MODEL 2
REMARK VINA RESULT:    -9.113      1.682      2.375
REMARK INTER + INTRA:         -15.732
REMARK INTER:                 -12.096
REMARK INTRA:                  -3.636
REMARK CONF_INDEPENDENT:        2.983
REMARK UNBOUND:                -3.636
REMARK  10 active torsions:
REMARK  status: ('A' for Active; 'I' for Inactive)
REMARK    1  A    between atoms: C_5  and  N_6 
REMARK       I    between atoms: N_6  and  C_7 
REMARK    2  A    between atoms: C_18  and  N_6 
REMARK    3  A    between atoms: C_7  and  C_9 
REMARK    4  A    between atoms: C_12  and  C_13 
REMARK       I    between atoms: C_13  and  N_14 
REMARK    5  A    between atoms: C_16  and  N_17 
REMARK    6  A    between atoms: C_18  and  C_27 
REMARK    7  A    between atoms: C_18  and  C_19 
REMARK       I    between atoms: C_19  and  N_21 
REMARK    8  A    between atoms: N_21  and  C_22 
REMARK    9  A    between atoms: C_22  and  C_23 
REMARK   10  A    between atoms: C_23  and  C_24 
ROOT
ATOM      1  N   UNL d   1      28.242 -16.000  -1.376  0.00  0.00    -0.295 N 
ATOM      2  C   UNL d   1      29.021 -15.081  -0.430  0.00  0.00     0.269 C 
ATOM      3  O   UNL d   1      30.245 -14.915  -0.546  0.00  0.00    -0.266 OA
ENDROOT
BRANCH   1   4
ATOM      4  C   UNL d   1      26.791 -16.394  -1.256  0.00  0.00     0.044 C 
ATOM      5  C   UNL d   1      25.766 -15.824  -2.028  0.00  0.00     0.031 C 
ATOM      6  C   UNL d   1      24.383 -15.959  -1.670  0.00  0.00     0.009 C 
ATOM      7  C   UNL d   1      23.971 -16.973  -0.834  0.00  0.00    -0.061 C 
ATOM      8  C   UNL d   1      22.577 -17.365  -0.515  0.00  0.00     0.048 C 
ATOM      9  C   UNL d   1      24.951 -17.727  -0.277  0.00  0.00     0.015 C 
ATOM     10  C   UNL d   1      26.279 -17.307  -0.333  0.00  0.00    -0.035 C 
ATOM     11  C   UNL d   1      27.080 -18.075   0.595  0.00  0.00     0.050 C 
ENDBRANCH   1   4
BRANCH   1  12
ATOM     12  C   UNL d   1      28.990 -16.702  -2.564  0.00  0.00     0.218 C 
BRANCH  12  13
ATOM     13  C   UNL d   1      28.855 -15.976  -4.015  0.00  0.00    -0.026 A 
ATOM     14  C   UNL d   1      29.714 -16.105  -5.117  0.00  0.00     0.013 A 
ATOM     15  C   UNL d   1      29.587 -15.460  -6.348  0.00  0.00     0.043 A 
ATOM     16  C   UNL d   1      28.611 -14.521  -6.497  0.00  0.00     0.116 A 
ATOM     17  F   UNL d   1      28.475 -13.890  -7.666  0.00  0.00    -0.206 F 
ATOM     18  C   UNL d   1      27.759 -14.272  -5.446  0.00  0.00     0.043 A 
ATOM     19  C   UNL d   1      27.845 -15.034  -4.269  0.00  0.00     0.013 A 
ENDBRANCH  12  13
BRANCH  12  20
ATOM     20  C   UNL d   1      30.539 -17.066  -2.409  0.00  0.00     0.245 C 
ATOM     21  O   UNL d   1      31.500 -16.329  -2.613  0.00  0.00    -0.271 OA
ATOM     22  N   UNL d   1      30.809 -18.437  -2.350  0.00  0.00    -0.359 N 
ATOM     23  H   UNL d   1      30.030 -19.065  -2.501  0.00  0.00     0.162 HD
BRANCH  22  24
ATOM     24  C   UNL d   1      32.062 -18.788  -2.986  0.00  0.00     0.123 C 
BRANCH  24  25
ATOM     25  C   UNL d   1      31.971 -18.676  -4.490  0.00  0.00     0.023 C 
BRANCH  25  26
ATOM     26  C   UNL d   1      30.720 -19.380  -5.017  0.00  0.00    -0.021 C 
ATOM     27  C   UNL d   1      30.635 -19.252  -6.537  0.00  0.00     0.009 C 
ATOM     28  C   UNL d   1      30.772 -20.848  -4.616  0.00  0.00     0.009 C 
ENDBRANCH  25  26
ENDBRANCH  24  25
ENDBRANCH  22  24
ENDBRANCH  12  20
ENDBRANCH   1  12
BRANCH   2  29
ATOM     29  C   UNL d   1      28.457 -14.361   0.735  0.00  0.00     0.115 C 
ATOM     30  S   UNL d   1      26.835 -13.703   0.702  0.00  0.00     0.019 SA
ATOM     31  N   UNL d   1      26.625 -13.657   2.380  0.00  0.00    -0.203 NA
ATOM     32  C   UNL d   1      27.802 -13.941   2.969  0.00  0.00     0.155 C 
ATOM     33  C   UNL d   1      28.902 -14.255   2.034  0.00  0.00     0.065 C 
BRANCH  32  34
ATOM     34  C   UNL d   1      27.895 -14.307   4.417  0.00  0.00     0.270 C 
ATOM     35  N   UNL d   1      28.684 -15.356   4.805  0.00  0.00    -0.365 N 
ATOM     36  H   UNL d   1      29.255 -15.883   4.163  0.00  0.00     0.159 HD
ATOM     37  H   UNL d   1      28.650 -15.611   5.785  0.00  0.00     0.159 HD
ATOM     38  O   UNL d   1      27.355 -13.638   5.302  0.00  0.00    -0.266 OA
ENDBRANCH  32  34
BRANCH  33  39
ATOM     39  N   UNL d   1      30.081 -14.825   2.406  0.00  0.00    -0.299 NA
ATOM     40  H   UNL d   1      30.078 -15.206   3.361  0.00  0.00     0.124 HD
ATOM     41  H   UNL d   1      30.443 -15.557   1.797  0.00  0.00     0.124 HD
ENDBRANCH  33  39
ENDBRANCH   2  29
TORSDOF 10
ENDMDL
MODEL 3
REMARK VINA RESULT:    -8.930      3.040      6.807
REMARK INTER + INTRA:         -15.588
REMARK INTER:                 -11.913
REMARK INTRA:                  -3.675
REMARK CONF_INDEPENDENT:        2.983
REMARK UNBOUND:                -3.675
REMARK  10 active torsions:
REMARK  status: ('A' for Active; 'I' for Inactive)
REMARK    1  A    between atoms: C_5  and  N_6 
REMARK       I    between atoms: N_6  and  C_7 
REMARK    2  A    between atoms: C_18  and  N_6 
REMARK    3  A    between atoms: C_7  and  C_9 
REMARK    4  A    between atoms: C_12  and  C_13 
REMARK       I    between atoms: C_13  and  N_14 
REMARK    5  A    between atoms: C_16  and  N_17 
REMARK    6  A    between atoms: C_18  and  C_27 
REMARK    7  A    between atoms: C_18  and  C_19 
REMARK       I    between atoms: C_19  and  N_21 
REMARK    8  A    between atoms: N_21  and  C_22 
REMARK    9  A    between atoms: C_22  and  C_23 
REMARK   10  A    between atoms: C_23  and  C_24 
ROOT
ATOM      1  N   UNL d   1      27.708 -15.802  -0.662  0.00  0.00    -0.295 N 
ATOM      2  C   UNL d   1      28.525 -15.323  -1.867  0.00  0.00     0.269 C 
ATOM      3  O   UNL d   1      29.575 -14.678  -1.725  0.00  0.00    -0.266 OA
ENDROOT
BRANCH   1   4
ATOM      4  C   UNL d   1      26.353 -16.465  -0.700  0.00  0.00     0.044 C 
ATOM      5  C   UNL d   1      25.213 -15.868  -1.262  0.00  0.00     0.031 C 
ATOM      6  C   UNL d   1      23.891 -16.355  -0.990  0.00  0.00     0.009 C 
ATOM      7  C   UNL d   1      23.697 -17.641  -0.537  0.00  0.00    -0.061 C 
ATOM      8  C   UNL d   1      22.407 -18.357  -0.386  0.00  0.00     0.048 C 
ATOM      9  C   UNL d   1      24.816 -18.348  -0.240  0.00  0.00     0.015 C 
ATOM     10  C   UNL d   1      26.047 -17.703  -0.134  0.00  0.00    -0.035 C 
ATOM     11  C   UNL d   1      27.008 -18.574   0.506  0.00  0.00     0.050 C 
ENDBRANCH   1   4
BRANCH   1  12
ATOM     12  C   UNL d   1      28.238 -15.531   0.790  0.00  0.00     0.218 C 
BRANCH  12  13
ATOM     13  C   UNL d   1      29.827 -15.203   0.915  0.00  0.00    -0.026 A 
ATOM     14  C   UNL d   1      30.901 -16.045   0.590  0.00  0.00     0.013 A 
ATOM     15  C   UNL d   1      32.258 -15.747   0.721  0.00  0.00     0.043 A 
ATOM     16  C   UNL d   1      32.617 -14.578   1.321  0.00  0.00     0.116 A 
ATOM     17  F   UNL d   1      33.910 -14.276   1.459  0.00  0.00    -0.206 F 
ATOM     18  C   UNL d   1      31.632 -13.713   1.739  0.00  0.00     0.043 A 
ATOM     19  C   UNL d   1      30.282 -13.998   1.474  0.00  0.00     0.013 A 
ENDBRANCH  12  13
BRANCH  12  20
ATOM     20  C   UNL d   1      27.502 -14.445   1.704  0.00  0.00     0.245 C 
ATOM     21  O   UNL d   1      27.054 -13.358   1.350  0.00  0.00    -0.271 OA
ATOM     22  N   UNL d   1      27.684 -14.626   3.078  0.00  0.00    -0.359 N 
ATOM     23  H   UNL d   1      28.326 -15.354   3.365  0.00  0.00     0.162 HD
BRANCH  22  24
ATOM     24  C   UNL d   1      27.754 -13.373   3.803  0.00  0.00     0.123 C 
BRANCH  24  25
ATOM     25  C   UNL d   1      27.665 -13.590   5.295  0.00  0.00     0.023 C 
BRANCH  25  26
ATOM     26  C   UNL d   1      28.813 -14.471   5.790  0.00  0.00    -0.021 C 
ATOM     27  C   UNL d   1      30.030 -14.328   4.877  0.00  0.00     0.009 C 
ATOM     28  C   UNL d   1      29.174 -14.064   7.212  0.00  0.00     0.009 C 
ENDBRANCH  25  26
ENDBRANCH  24  25
ENDBRANCH  22  24
ENDBRANCH  12  20
ENDBRANCH   1  12
BRANCH   2  29
ATOM     29  C   UNL d   1      28.150 -15.496  -3.289  0.00  0.00     0.115 C 
ATOM     30  S   UNL d   1      26.527 -15.160  -3.852  0.00  0.00     0.019 SA
ATOM     31  N   UNL d   1      26.946 -14.914  -5.473  0.00  0.00    -0.203 NA
ATOM     32  C   UNL d   1      28.235 -15.262  -5.641  0.00  0.00     0.155 C 
ATOM     33  C   UNL d   1      28.926 -15.697  -4.409  0.00  0.00     0.065 C 
BRANCH  32  34
ATOM     34  C   UNL d   1      29.011 -14.863  -6.858  0.00  0.00     0.270 C 
ATOM     35  N   UNL d   1      28.533 -13.878  -7.677  0.00  0.00    -0.365 N 
ATOM     36  H   UNL d   1      27.689 -13.360  -7.483  0.00  0.00     0.159 HD
ATOM     37  H   UNL d   1      29.055 -13.701  -8.527  0.00  0.00     0.159 HD
ATOM     38  O   UNL d   1      30.126 -15.328  -7.110  0.00  0.00    -0.266 OA
ENDBRANCH  32  34
BRANCH  33  39
ATOM     39  N   UNL d   1      30.276 -15.830  -4.297  0.00  0.00    -0.299 NA
ATOM     40  H   UNL d   1      30.804 -15.394  -5.064  0.00  0.00     0.124 HD
ATOM     41  H   UNL d   1      30.693 -15.501  -3.427  0.00  0.00     0.124 HD
ENDBRANCH  33  39
ENDBRANCH   2  29
TORSDOF 10
ENDMDL
MODEL 4
REMARK VINA RESULT:    -8.903      1.292      2.129
REMARK INTER + INTRA:         -16.024
REMARK INTER:                 -11.886
REMARK INTRA:                  -4.138
REMARK CONF_INDEPENDENT:        2.983
REMARK UNBOUND:                -4.138
REMARK  10 active torsions:
REMARK  status: ('A' for Active; 'I' for Inactive)
REMARK    1  A    between atoms: C_5  and  N_6 
REMARK       I    between atoms: N_6  and  C_7 
REMARK    2  A    between atoms: C_18  and  N_6 
REMARK    3  A    between atoms: C_7  and  C_9 
REMARK    4  A    between atoms: C_12  and  C_13 
REMARK       I    between atoms: C_13  and  N_14 
REMARK    5  A    between atoms: C_16  and  N_17 
REMARK    6  A    between atoms: C_18  and  C_27 
REMARK    7  A    between atoms: C_18  and  C_19 
REMARK       I    between atoms: C_19  and  N_21 
REMARK    8  A    between atoms: N_21  and  C_22 
REMARK    9  A    between atoms: C_22  and  C_23 
REMARK   10  A    between atoms: C_23  and  C_24 
ROOT
ATOM      1  N   UNL d   1      27.900 -15.983  -1.148  0.00  0.00    -0.295 N 
ATOM      2  C   UNL d   1      28.715 -14.924  -0.399  0.00  0.00     0.269 C 
ATOM      3  O   UNL d   1      29.881 -14.651  -0.722  0.00  0.00    -0.266 OA
ENDROOT
BRANCH   1   4
ATOM      4  C   UNL d   1      26.535 -16.502  -0.769  0.00  0.00     0.044 C 
ATOM      5  C   UNL d   1      26.329 -17.539   0.155  0.00  0.00     0.031 C 
ATOM      6  C   UNL d   1      25.078 -18.236   0.245  0.00  0.00     0.009 C 
ATOM      7  C   UNL d   1      23.921 -17.666  -0.241  0.00  0.00    -0.061 C 
ATOM      8  C   UNL d   1      22.533 -18.158  -0.066  0.00  0.00     0.048 C 
ATOM      9  C   UNL d   1      24.066 -16.499  -0.917  0.00  0.00     0.015 C 
ATOM     10  C   UNL d   1      25.329 -16.074  -1.325  0.00  0.00    -0.035 C 
ATOM     11  C   UNL d   1      25.202 -15.008  -2.294  0.00  0.00     0.050 C 
ENDBRANCH   1   4
BRANCH   1  12
ATOM     12  C   UNL d   1      28.524 -16.700  -2.396  0.00  0.00     0.218 C 
BRANCH  12  13
ATOM     13  C   UNL d   1      28.537 -15.838  -3.777  0.00  0.00    -0.026 A 
ATOM     14  C   UNL d   1      27.453 -15.192  -4.391  0.00  0.00     0.013 A 
ATOM     15  C   UNL d   1      27.485 -14.471  -5.585  0.00  0.00     0.043 A 
ATOM     16  C   UNL d   1      28.636 -14.460  -6.313  0.00  0.00     0.116 A 
ATOM     17  F   UNL d   1      28.686 -13.778  -7.460  0.00  0.00    -0.206 F 
ATOM     18  C   UNL d   1      29.739 -15.124  -5.826  0.00  0.00     0.043 A 
ATOM     19  C   UNL d   1      29.697 -15.732  -4.560  0.00  0.00     0.013 A 
ENDBRANCH  12  13
BRANCH  12  20
ATOM     20  C   UNL d   1      29.982 -17.348  -2.281  0.00  0.00     0.245 C 
ATOM     21  O   UNL d   1      30.489 -18.172  -3.036  0.00  0.00    -0.271 OA
ATOM     22  N   UNL d   1      30.587 -17.192  -1.031  0.00  0.00    -0.359 N 
ATOM     23  H   UNL d   1      30.027 -16.777  -0.297  0.00  0.00     0.162 HD
BRANCH  22  24
ATOM     24  C   UNL d   1      31.406 -18.330  -0.661  0.00  0.00     0.123 C 
BRANCH  24  25
ATOM     25  C   UNL d   1      32.558 -17.919   0.225  0.00  0.00     0.023 C 
BRANCH  25  26
ATOM     26  C   UNL d   1      32.217 -16.655   1.015  0.00  0.00    -0.021 C 
ATOM     27  C   UNL d   1      32.623 -16.814   2.480  0.00  0.00     0.009 C 
ATOM     28  C   UNL d   1      32.947 -15.470   0.395  0.00  0.00     0.009 C 
ENDBRANCH  25  26
ENDBRANCH  24  25
ENDBRANCH  22  24
ENDBRANCH  12  20
ENDBRANCH   1  12
BRANCH   2  29
ATOM     29  C   UNL d   1      28.266 -14.172   0.796  0.00  0.00     0.115 C 
ATOM     30  S   UNL d   1      26.714 -13.363   0.834  0.00  0.00     0.019 SA
ATOM     31  N   UNL d   1      26.572 -13.325   2.520  0.00  0.00    -0.203 NA
ATOM     32  C   UNL d   1      27.738 -13.729   3.059  0.00  0.00     0.155 C 
ATOM     33  C   UNL d   1      28.767 -14.130   2.078  0.00  0.00     0.065 C 
BRANCH  32  34
ATOM     34  C   UNL d   1      27.850 -14.126   4.498  0.00  0.00     0.270 C 
ATOM     35  N   UNL d   1      28.553 -15.247   4.841  0.00  0.00    -0.365 N 
ATOM     36  H   UNL d   1      29.051 -15.814   4.171  0.00  0.00     0.159 HD
ATOM     37  H   UNL d   1      28.533 -15.514   5.818  0.00  0.00     0.159 HD
ATOM     38  O   UNL d   1      27.405 -13.425   5.411  0.00  0.00    -0.266 OA
ENDBRANCH  32  34
BRANCH  33  39
ATOM     39  N   UNL d   1      29.900 -14.815   2.397  0.00  0.00    -0.299 NA
ATOM     40  H   UNL d   1      29.902 -15.200   3.350  0.00  0.00     0.124 HD
ATOM     41  H   UNL d   1      30.162 -15.575   1.771  0.00  0.00     0.124 HD
ENDBRANCH  33  39
ENDBRANCH   2  29
TORSDOF 10
ENDMDL
MODEL 5
REMARK VINA RESULT:    -7.833      3.490      6.951
REMARK INTER + INTRA:         -15.451
REMARK INTER:                 -10.816
REMARK INTRA:                  -4.634
REMARK CONF_INDEPENDENT:        2.983
REMARK UNBOUND:                -4.634
REMARK  10 active torsions:
REMARK  status: ('A' for Active; 'I' for Inactive)
REMARK    1  A    between atoms: C_5  and  N_6 
REMARK       I    between atoms: N_6  and  C_7 
REMARK    2  A    between atoms: C_18  and  N_6 
REMARK    3  A    between atoms: C_7  and  C_9 
REMARK    4  A    between atoms: C_12  and  C_13 
REMARK       I    between atoms: C_13  and  N_14 
REMARK    5  A    between atoms: C_16  and  N_17 
REMARK    6  A    between atoms: C_18  and  C_27 
REMARK    7  A    between atoms: C_18  and  C_19 
REMARK       I    between atoms: C_19  and  N_21 
REMARK    8  A    between atoms: N_21  and  C_22 
REMARK    9  A    between atoms: C_22  and  C_23 
REMARK   10  A    between atoms: C_23  and  C_24 
ROOT
ATOM      1  N   UNL d   1      27.866 -15.306  -2.507  0.00  0.00    -0.295 N 
ATOM      2  C   UNL d   1      28.216 -14.572  -1.208  0.00  0.00     0.269 C 
ATOM      3  O   UNL d   1      27.336 -14.137  -0.450  0.00  0.00    -0.266 OA
ENDROOT
BRANCH   1   4
ATOM      4  C   UNL d   1      28.832 -15.755  -3.574  0.00  0.00     0.044 C 
ATOM      5  C   UNL d   1      28.809 -15.273  -4.893  0.00  0.00     0.031 C 
ATOM      6  C   UNL d   1      29.497 -15.946  -5.958  0.00  0.00     0.009 C 
ATOM      7  C   UNL d   1      30.530 -16.816  -5.686  0.00  0.00    -0.061 C 
ATOM      8  C   UNL d   1      31.457 -17.444  -6.658  0.00  0.00     0.048 C 
ATOM      9  C   UNL d   1      30.753 -17.092  -4.377  0.00  0.00     0.015 C 
ATOM     10  C   UNL d   1      29.810 -16.737  -3.413  0.00  0.00    -0.035 C 
ATOM     11  C   UNL d   1      30.098 -17.415  -2.168  0.00  0.00     0.050 C 
ENDBRANCH   1   4
BRANCH   1  12
ATOM     12  C   UNL d   1      26.362 -15.576  -2.862  0.00  0.00     0.218 C 
BRANCH  12  13
ATOM     13  C   UNL d   1      25.506 -16.397  -1.747  0.00  0.00    -0.026 A 
ATOM     14  C   UNL d   1      25.980 -17.362  -0.846  0.00  0.00     0.013 A 
ATOM     15  C   UNL d   1      25.224 -18.065   0.092  0.00  0.00     0.043 A 
ATOM     16  C   UNL d   1      23.871 -17.909   0.091  0.00  0.00     0.116 A 
ATOM     17  F   UNL d   1      23.128 -18.575   0.979  0.00  0.00    -0.206 F 
ATOM     18  C   UNL d   1      23.301 -17.033  -0.804  0.00  0.00     0.043 A 
ATOM     19  C   UNL d   1      24.113 -16.254  -1.645  0.00  0.00     0.013 A 
ENDBRANCH  12  13
BRANCH  12  20
ATOM     20  C   UNL d   1      25.429 -14.356  -3.306  0.00  0.00     0.245 C 
ATOM     21  O   UNL d   1      24.696 -14.300  -4.289  0.00  0.00    -0.271 OA
ATOM     22  N   UNL d   1      25.735 -13.139  -2.688  0.00  0.00    -0.359 N 
ATOM     23  H   UNL d   1      26.559 -13.116  -2.100  0.00  0.00     0.162 HD
BRANCH  22  24
ATOM     24  C   UNL d   1      25.525 -12.001  -3.560  0.00  0.00     0.123 C 
BRANCH  24  25
ATOM     25  C   UNL d   1      26.828 -11.322  -3.909  0.00  0.00     0.023 C 
BRANCH  25  26
ATOM     26  C   UNL d   1      27.649 -12.176  -4.876  0.00  0.00    -0.021 C 
ATOM     27  C   UNL d   1      27.349 -11.784  -6.322  0.00  0.00     0.009 C 
ATOM     28  C   UNL d   1      29.129 -11.981  -4.576  0.00  0.00     0.009 C 
ENDBRANCH  25  26
ENDBRANCH  24  25
ENDBRANCH  22  24
ENDBRANCH  12  20
ENDBRANCH   1  12
BRANCH   2  29
ATOM     29  C   UNL d   1      29.582 -14.238  -0.745  0.00  0.00     0.115 C 
ATOM     30  S   UNL d   1      30.352 -12.728  -1.185  0.00  0.00     0.019 SA
ATOM     31  N   UNL d   1      31.451 -12.704   0.101  0.00  0.00    -0.203 NA
ATOM     32  C   UNL d   1      31.388 -13.886   0.742  0.00  0.00     0.155 C 
ATOM     33  C   UNL d   1      30.382 -14.828   0.208  0.00  0.00     0.065 C 
BRANCH  32  34
ATOM     34  C   UNL d   1      31.977 -14.081   2.104  0.00  0.00     0.270 C 
ATOM     35  N   UNL d   1      31.288 -14.792   3.048  0.00  0.00    -0.365 N 
ATOM     36  H   UNL d   1      30.404 -15.241   2.864  0.00  0.00     0.159 HD
ATOM     37  H   UNL d   1      31.694 -14.827   3.976  0.00  0.00     0.159 HD
ATOM     38  O   UNL d   1      33.115 -13.699   2.391  0.00  0.00    -0.266 OA
ENDBRANCH  32  34
BRANCH  33  39
ATOM     39  N   UNL d   1      29.966 -15.950   0.857  0.00  0.00    -0.299 NA
ATOM     40  H   UNL d   1      30.686 -16.380   1.453  0.00  0.00     0.124 HD
ATOM     41  H   UNL d   1      29.127 -15.858   1.427  0.00  0.00     0.124 HD
ENDBRANCH  33  39
ENDBRANCH   2  29
TORSDOF 10
ENDMDL
MODEL 6
REMARK VINA RESULT:    -7.544      3.502      7.201
REMARK INTER + INTRA:         -15.168
REMARK INTER:                 -10.527
REMARK INTRA:                  -4.642
REMARK CONF_INDEPENDENT:        2.983
REMARK UNBOUND:                -4.642
REMARK  10 active torsions:
REMARK  status: ('A' for Active; 'I' for Inactive)
REMARK    1  A    between atoms: C_5  and  N_6 
REMARK       I    between atoms: N_6  and  C_7 
REMARK    2  A    between atoms: C_18  and  N_6 
REMARK    3  A    between atoms: C_7  and  C_9 
REMARK    4  A    between atoms: C_12  and  C_13 
REMARK       I    between atoms: C_13  and  N_14 
REMARK    5  A    between atoms: C_16  and  N_17 
REMARK    6  A    between atoms: C_18  and  C_27 
REMARK    7  A    between atoms: C_18  and  C_19 
REMARK       I    between atoms: C_19  and  N_21 
REMARK    8  A    between atoms: N_21  and  C_22 
REMARK    9  A    between atoms: C_22  and  C_23 
REMARK   10  A    between atoms: C_23  and  C_24 
ROOT
ATOM      1  N   UNL d   1      27.372 -15.131  -0.739  0.00  0.00    -0.295 N 
ATOM      2  C   UNL d   1      28.791 -15.329  -1.283  0.00  0.00     0.269 C 
ATOM      3  O   UNL d   1      29.634 -14.419  -1.248  0.00  0.00    -0.266 OA
ENDROOT
BRANCH   1   4
ATOM      4  C   UNL d   1      26.224 -16.103  -0.849  0.00  0.00     0.044 C 
ATOM      5  C   UNL d   1      25.128 -15.913  -1.707  0.00  0.00     0.031 C 
ATOM      6  C   UNL d   1      23.909 -16.655  -1.553  0.00  0.00     0.009 C 
ATOM      7  C   UNL d   1      23.895 -17.847  -0.865  0.00  0.00    -0.061 C 
ATOM      8  C   UNL d   1      22.779 -18.820  -0.771  0.00  0.00     0.048 C 
ATOM      9  C   UNL d   1      25.048 -18.193  -0.241  0.00  0.00     0.015 C 
ATOM     10  C   UNL d   1      26.069 -17.257  -0.081  0.00  0.00    -0.035 C 
ATOM     11  C   UNL d   1      27.034 -17.738   0.884  0.00  0.00     0.050 C 
ENDBRANCH   1   4
BRANCH   1  12
ATOM     12  C   UNL d   1      26.985 -13.770  -0.061  0.00  0.00     0.218 C 
BRANCH  12  13
ATOM     13  C   UNL d   1      27.410 -13.611   1.502  0.00  0.00    -0.026 A 
ATOM     14  C   UNL d   1      27.931 -14.599   2.351  0.00  0.00     0.013 A 
ATOM     15  C   UNL d   1      28.274 -14.443   3.694  0.00  0.00     0.043 A 
ATOM     16  C   UNL d   1      27.986 -13.263   4.311  0.00  0.00     0.116 A 
ATOM     17  F   UNL d   1      28.302 -13.095   5.597  0.00  0.00    -0.206 F 
ATOM     18  C   UNL d   1      27.408 -12.252   3.578  0.00  0.00     0.043 A 
ATOM     19  C   UNL d   1      27.195 -12.410   2.198  0.00  0.00     0.013 A 
ENDBRANCH  12  13
BRANCH  12  20
ATOM     20  C   UNL d   1      27.408 -12.397  -0.762  0.00  0.00     0.245 C 
ATOM     21  O   UNL d   1      27.027 -11.266  -0.471  0.00  0.00    -0.271 OA
ATOM     22  N   UNL d   1      28.011 -12.547  -2.015  0.00  0.00    -0.359 N 
ATOM     23  H   UNL d   1      28.040 -13.483  -2.401  0.00  0.00     0.162 HD
BRANCH  22  24
ATOM     24  C   UNL d   1      27.674 -11.475  -2.930  0.00  0.00     0.123 C 
BRANCH  24  25
ATOM     25  C   UNL d   1      26.938 -11.992  -4.143  0.00  0.00     0.023 C 
BRANCH  25  26
ATOM     26  C   UNL d   1      26.352 -13.379  -3.878  0.00  0.00    -0.021 C 
ATOM     27  C   UNL d   1      24.825 -13.327  -3.891  0.00  0.00     0.009 C 
ATOM     28  C   UNL d   1      26.853 -14.342  -4.947  0.00  0.00     0.009 C 
ENDBRANCH  25  26
ENDBRANCH  24  25
ENDBRANCH  22  24
ENDBRANCH  12  20
ENDBRANCH   1  12
BRANCH   2  29
ATOM     29  C   UNL d   1      29.298 -16.548  -1.953  0.00  0.00     0.115 C 
ATOM     30  S   UNL d   1      29.283 -16.704  -3.697  0.00  0.00     0.019 SA
ATOM     31  N   UNL d   1      30.498 -17.878  -3.784  0.00  0.00    -0.203 NA
ATOM     32  C   UNL d   1      30.782 -18.296  -2.536  0.00  0.00     0.155 C 
ATOM     33  C   UNL d   1      30.028 -17.609  -1.466  0.00  0.00     0.065 C 
BRANCH  32  34
ATOM     34  C   UNL d   1      32.021 -19.076  -2.224  0.00  0.00     0.270 C 
ATOM     35  N   UNL d   1      32.932 -19.328  -3.213  0.00  0.00    -0.365 N 
ATOM     36  H   UNL d   1      32.839 -18.975  -4.153  0.00  0.00     0.159 HD
ATOM     37  H   UNL d   1      33.713 -19.926  -2.968  0.00  0.00     0.159 HD
ATOM     38  O   UNL d   1      32.306 -19.429  -1.077  0.00  0.00    -0.266 OA
ENDBRANCH  32  34
BRANCH  33  39
ATOM     39  N   UNL d   1      30.345 -17.678  -0.144  0.00  0.00    -0.299 NA
ATOM     40  H   UNL d   1      29.560 -17.470   0.486  0.00  0.00     0.124 HD
ATOM     41  H   UNL d   1      30.759 -18.552   0.178  0.00  0.00     0.124 HD
ENDBRANCH  33  39
ENDBRANCH   2  29
TORSDOF 10
ENDMDL
MODEL 7
REMARK VINA RESULT:    -7.487      2.996      4.314
REMARK INTER + INTRA:         -15.672
REMARK INTER:                 -10.470
REMARK INTRA:                  -5.202
REMARK CONF_INDEPENDENT:        2.983
REMARK UNBOUND:                -5.202
REMARK  10 active torsions:
REMARK  status: ('A' for Active; 'I' for Inactive)
REMARK    1  A    between atoms: C_5  and  N_6 
REMARK       I    between atoms: N_6  and  C_7 
REMARK    2  A    between atoms: C_18  and  N_6 
REMARK    3  A    between atoms: C_7  and  C_9 
REMARK    4  A    between atoms: C_12  and  C_13 
REMARK       I    between atoms: C_13  and  N_14 
REMARK    5  A    between atoms: C_16  and  N_17 
REMARK    6  A    between atoms: C_18  and  C_27 
REMARK    7  A    between atoms: C_18  and  C_19 
REMARK       I    between atoms: C_19  and  N_21 
REMARK    8  A    between atoms: N_21  and  C_22 
REMARK    9  A    between atoms: C_22  and  C_23 
REMARK   10  A    between atoms: C_23  and  C_24 
ROOT
ATOM      1  N   UNL d   1      26.604 -14.381  -2.393  0.00  0.00    -0.295 N 
ATOM      2  C   UNL d   1      27.602 -13.506  -1.626  0.00  0.00     0.269 C 
ATOM      3  O   UNL d   1      28.312 -12.669  -2.205  0.00  0.00    -0.266 OA
ENDROOT
BRANCH   1   4
ATOM      4  C   UNL d   1      25.792 -15.521  -1.832  0.00  0.00     0.044 C 
ATOM      5  C   UNL d   1      24.389 -15.523  -1.783  0.00  0.00     0.031 C 
ATOM      6  C   UNL d   1      23.661 -16.442  -0.955  0.00  0.00     0.009 C 
ATOM      7  C   UNL d   1      24.248 -17.607  -0.515  0.00  0.00    -0.061 C 
ATOM      8  C   UNL d   1      23.591 -18.739   0.183  0.00  0.00     0.048 C 
ATOM      9  C   UNL d   1      25.568 -17.755  -0.792  0.00  0.00     0.015 C 
ATOM     10  C   UNL d   1      26.319 -16.669  -1.237  0.00  0.00    -0.035 C 
ATOM     11  C   UNL d   1      27.730 -16.973  -1.145  0.00  0.00     0.050 C 
ENDBRANCH   1   4
BRANCH   1  12
ATOM     12  C   UNL d   1      26.424 -14.177  -3.938  0.00  0.00     0.218 C 
BRANCH  12  13
ATOM     13  C   UNL d   1      26.156 -12.647  -4.425  0.00  0.00    -0.026 A 
ATOM     14  C   UNL d   1      26.444 -12.088  -5.679  0.00  0.00     0.013 A 
ATOM     15  C   UNL d   1      26.219 -10.768  -6.071  0.00  0.00     0.043 A 
ATOM     16  C   UNL d   1      25.783  -9.874  -5.140  0.00  0.00     0.116 A 
ATOM     17  F   UNL d   1      25.565  -8.605  -5.493  0.00  0.00    -0.206 F 
ATOM     18  C   UNL d   1      25.537 -10.313  -3.859  0.00  0.00     0.043 A 
ATOM     19  C   UNL d   1      25.657 -11.677  -3.542  0.00  0.00     0.013 A 
ENDBRANCH  12  13
BRANCH  12  20
ATOM     20  C   UNL d   1      27.526 -14.760  -4.940  0.00  0.00     0.245 C 
ATOM     21  O   UNL d   1      27.353 -15.574  -5.842  0.00  0.00    -0.271 OA
ATOM     22  N   UNL d   1      28.847 -14.557  -4.529  0.00  0.00    -0.359 N 
ATOM     23  H   UNL d   1      28.986 -14.154  -3.611  0.00  0.00     0.162 HD
BRANCH  22  24
ATOM     24  C   UNL d   1      29.722 -15.651  -4.899  0.00  0.00     0.123 C 
BRANCH  24  25
ATOM     25  C   UNL d   1      29.650 -16.781  -3.899  0.00  0.00     0.023 C 
BRANCH  25  26
ATOM     26  C   UNL d   1      30.761 -16.660  -2.856  0.00  0.00    -0.021 C 
ATOM     27  C   UNL d   1      30.546 -15.423  -1.986  0.00  0.00     0.009 C 
ATOM     28  C   UNL d   1      30.767 -17.914  -1.991  0.00  0.00     0.009 C 
ENDBRANCH  25  26
ENDBRANCH  24  25
ENDBRANCH  22  24
ENDBRANCH  12  20
ENDBRANCH   1  12
BRANCH   2  29
ATOM     29  C   UNL d   1      27.886 -13.587  -0.175  0.00  0.00     0.115 C 
ATOM     30  S   UNL d   1      26.969 -14.645   0.876  0.00  0.00     0.019 SA
ATOM     31  N   UNL d   1      28.142 -14.752   2.092  0.00  0.00    -0.203 NA
ATOM     32  C   UNL d   1      29.121 -13.867   1.823  0.00  0.00     0.155 C 
ATOM     33  C   UNL d   1      28.944 -13.111   0.566  0.00  0.00     0.065 C 
BRANCH  32  34
ATOM     34  C   UNL d   1      30.453 -13.930   2.503  0.00  0.00     0.270 C 
ATOM     35  N   UNL d   1      30.660 -14.829   3.513  0.00  0.00    -0.365 N 
ATOM     36  H   UNL d   1      29.965 -15.499   3.807  0.00  0.00     0.159 HD
ATOM     37  H   UNL d   1      31.551 -14.777   3.992  0.00  0.00     0.159 HD
ATOM     38  O   UNL d   1      31.417 -13.259   2.126  0.00  0.00    -0.266 OA
ENDBRANCH  32  34
BRANCH  33  39
ATOM     39  N   UNL d   1      29.926 -12.378  -0.028  0.00  0.00    -0.299 NA
ATOM     40  H   UNL d   1      30.869 -12.567   0.337  0.00  0.00     0.124 HD
ATOM     41  H   UNL d   1      29.985 -12.437  -1.043  0.00  0.00     0.124 HD
ENDBRANCH  33  39
ENDBRANCH   2  29
TORSDOF 10
ENDMDL
MODEL 8
REMARK VINA RESULT:    -7.414      3.419      7.279
REMARK INTER + INTRA:         -15.732
REMARK INTER:                 -10.397
REMARK INTRA:                  -5.335
REMARK CONF_INDEPENDENT:        2.983
REMARK UNBOUND:                -5.335
REMARK  10 active torsions:
REMARK  status: ('A' for Active; 'I' for Inactive)
REMARK    1  A    between atoms: C_5  and  N_6 
REMARK       I    between atoms: N_6  and  C_7 
REMARK    2  A    between atoms: C_18  and  N_6 
REMARK    3  A    between atoms: C_7  and  C_9 
REMARK    4  A    between atoms: C_12  and  C_13 
REMARK       I    between atoms: C_13  and  N_14 
REMARK    5  A    between atoms: C_16  and  N_17 
REMARK    6  A    between atoms: C_18  and  C_27 
REMARK    7  A    between atoms: C_18  and  C_19 
REMARK       I    between atoms: C_19  and  N_21 
REMARK    8  A    between atoms: N_21  and  C_22 
REMARK    9  A    between atoms: C_22  and  C_23 
REMARK   10  A    between atoms: C_23  and  C_24 
ROOT
ATOM      1  N   UNL d   1      27.322 -15.208  -0.673  0.00  0.00    -0.295 N 
ATOM      2  C   UNL d   1      28.223 -14.786  -1.839  0.00  0.00     0.269 C 
ATOM      3  O   UNL d   1      29.144 -13.970  -1.687  0.00  0.00    -0.266 OA
ENDROOT
BRANCH   1   4
ATOM      4  C   UNL d   1      26.091 -16.076  -0.756  0.00  0.00     0.044 C 
ATOM      5  C   UNL d   1      24.893 -15.666  -1.365  0.00  0.00     0.031 C 
ATOM      6  C   UNL d   1      23.655 -16.355  -1.138  0.00  0.00     0.009 C 
ATOM      7  C   UNL d   1      23.648 -17.655  -0.682  0.00  0.00    -0.061 C 
ATOM      8  C   UNL d   1      22.482 -18.565  -0.573  0.00  0.00     0.048 C 
ATOM      9  C   UNL d   1      24.852 -18.176  -0.338  0.00  0.00     0.015 C 
ATOM     10  C   UNL d   1      25.962 -17.345  -0.191  0.00  0.00    -0.035 C 
ATOM     11  C   UNL d   1      27.023 -18.053   0.491  0.00  0.00     0.050 C 
ENDBRANCH   1   4
BRANCH   1  12
ATOM     12  C   UNL d   1      27.604 -14.647   0.765  0.00  0.00     0.218 C 
BRANCH  12  13
ATOM     13  C   UNL d   1      29.127 -14.826   1.309  0.00  0.00    -0.026 A 
ATOM     14  C   UNL d   1      29.710 -14.216   2.431  0.00  0.00     0.013 A 
ATOM     15  C   UNL d   1      31.025 -14.372   2.870  0.00  0.00     0.043 A 
ATOM     16  C   UNL d   1      31.892 -15.089   2.103  0.00  0.00     0.116 A 
ATOM     17  F   UNL d   1      33.155 -15.247   2.504  0.00  0.00    -0.206 F 
ATOM     18  C   UNL d   1      31.431 -15.671   0.944  0.00  0.00     0.043 A 
ATOM     19  C   UNL d   1      30.069 -15.592   0.605  0.00  0.00     0.013 A 
ENDBRANCH  12  13
BRANCH  12  20
ATOM     20  C   UNL d   1      27.198 -13.140   1.113  0.00  0.00     0.245 C 
ATOM     21  O   UNL d   1      26.157 -12.754   1.636  0.00  0.00    -0.271 OA
ATOM     22  N   UNL d   1      27.967 -12.169   0.466  0.00  0.00    -0.359 N 
ATOM     23  H   UNL d   1      28.635 -12.495  -0.222  0.00  0.00     0.162 HD
BRANCH  22  24
ATOM     24  C   UNL d   1      27.202 -10.987   0.123  0.00  0.00     0.123 C 
BRANCH  24  25
ATOM     25  C   UNL d   1      27.406 -10.595  -1.322  0.00  0.00     0.023 C 
BRANCH  25  26
ATOM     26  C   UNL d   1      27.325 -11.817  -2.238  0.00  0.00    -0.021 C 
ATOM     27  C   UNL d   1      25.905 -11.991  -2.774  0.00  0.00     0.009 C 
ATOM     28  C   UNL d   1      28.303 -11.637  -3.392  0.00  0.00     0.009 C 
ENDBRANCH  25  26
ENDBRANCH  24  25
ENDBRANCH  22  24
ENDBRANCH  12  20
ENDBRANCH   1  12
BRANCH   2  29
ATOM     29  C   UNL d   1      28.075 -15.222  -3.247  0.00  0.00     0.115 C 
ATOM     30  S   UNL d   1      26.506 -15.306  -4.017  0.00  0.00     0.019 SA
ATOM     31  N   UNL d   1      27.078 -15.200  -5.606  0.00  0.00    -0.203 NA
ATOM     32  C   UNL d   1      28.421 -15.296  -5.586  0.00  0.00     0.155 C 
ATOM     33  C   UNL d   1      29.014 -15.409  -4.237  0.00  0.00     0.065 C 
BRANCH  32  34
ATOM     34  C   UNL d   1      29.259 -14.914  -6.765  0.00  0.00     0.270 C 
ATOM     35  N   UNL d   1      28.786 -14.004  -7.671  0.00  0.00    -0.365 N 
ATOM     36  H   UNL d   1      27.902 -13.531  -7.567  0.00  0.00     0.159 HD
ATOM     37  H   UNL d   1      29.358 -13.840  -8.491  0.00  0.00     0.159 HD
ATOM     38  O   UNL d   1      30.415 -15.321  -6.912  0.00  0.00    -0.266 OA
ENDBRANCH  32  34
BRANCH  33  39
ATOM     39  N   UNL d   1      30.339 -15.247  -3.970  0.00  0.00    -0.299 NA
ATOM     40  H   UNL d   1      30.909 -15.029  -4.798  0.00  0.00     0.124 HD
ATOM     41  H   UNL d   1      30.576 -14.557  -3.258  0.00  0.00     0.124 HD
ENDBRANCH  33  39
ENDBRANCH   2  29
TORSDOF 10
ENDMDL
MODEL 9
REMARK VINA RESULT:    -7.152      3.750      7.065
REMARK INTER + INTRA:         -15.171
REMARK INTER:                 -10.135
REMARK INTRA:                  -5.035
REMARK CONF_INDEPENDENT:        2.983
REMARK UNBOUND:                -5.035
REMARK  10 active torsions:
REMARK  status: ('A' for Active; 'I' for Inactive)
REMARK    1  A    between atoms: C_5  and  N_6 
REMARK       I    between atoms: N_6  and  C_7 
REMARK    2  A    between atoms: C_18  and  N_6 
REMARK    3  A    between atoms: C_7  and  C_9 
REMARK    4  A    between atoms: C_12  and  C_13 
REMARK       I    between atoms: C_13  and  N_14 
REMARK    5  A    between atoms: C_16  and  N_17 
REMARK    6  A    between atoms: C_18  and  C_27 
REMARK    7  A    between atoms: C_18  and  C_19 
REMARK       I    between atoms: C_19  and  N_21 
REMARK    8  A    between atoms: N_21  and  C_22 
REMARK    9  A    between atoms: C_22  and  C_23 
REMARK   10  A    between atoms: C_23  and  C_24 
ROOT
ATOM      1  N   UNL d   1      26.465 -14.770  -0.495  0.00  0.00    -0.295 N 
ATOM      2  C   UNL d   1      26.094 -14.344  -1.919  0.00  0.00     0.269 C 
ATOM      3  O   UNL d   1      25.820 -15.177  -2.797  0.00  0.00    -0.266 OA
ENDROOT
BRANCH   1   4
ATOM      4  C   UNL d   1      26.950 -13.872   0.616  0.00  0.00     0.044 C 
ATOM      5  C   UNL d   1      26.120 -12.974   1.306  0.00  0.00     0.031 C 
ATOM      6  C   UNL d   1      26.654 -11.908   2.104  0.00  0.00     0.009 C 
ATOM      7  C   UNL d   1      27.948 -11.964   2.572  0.00  0.00    -0.061 C 
ATOM      8  C   UNL d   1      28.592 -11.053   3.550  0.00  0.00     0.048 C 
ATOM      9  C   UNL d   1      28.705 -12.997   2.124  0.00  0.00     0.015 C 
ATOM     10  C   UNL d   1      28.273 -13.768   1.046  0.00  0.00    -0.035 C 
ATOM     11  C   UNL d   1      29.367 -14.571   0.544  0.00  0.00     0.050 C 
ENDBRANCH   1   4
BRANCH   1  12
ATOM     12  C   UNL d   1      26.438 -16.291  -0.110  0.00  0.00     0.218 C 
BRANCH  12  13
ATOM     13  C   UNL d   1      25.008 -17.046  -0.299  0.00  0.00    -0.026 A 
ATOM     14  C   UNL d   1      24.765 -18.428  -0.294  0.00  0.00     0.013 A 
ATOM     15  C   UNL d   1      23.531 -19.054  -0.474  0.00  0.00     0.043 A 
ATOM     16  C   UNL d   1      22.451 -18.291  -0.798  0.00  0.00     0.116 A 
ATOM     17  F   UNL d   1      21.262 -18.871  -0.978  0.00  0.00    -0.206 F 
ATOM     18  C   UNL d   1      22.603 -16.926  -0.895  0.00  0.00     0.043 A 
ATOM     19  C   UNL d   1      23.836 -16.328  -0.583  0.00  0.00     0.013 A 
ENDBRANCH  12  13
BRANCH  12  20
ATOM     20  C   UNL d   1      27.529 -17.278  -0.737  0.00  0.00     0.245 C 
ATOM     21  O   UNL d   1      28.183 -18.134  -0.147  0.00  0.00    -0.271 OA
ATOM     22  N   UNL d   1      27.996 -16.898  -1.999  0.00  0.00    -0.359 N 
ATOM     23  H   UNL d   1      27.682 -16.004  -2.356  0.00  0.00     0.162 HD
BRANCH  22  24
ATOM     24  C   UNL d   1      29.395 -17.224  -2.199  0.00  0.00     0.123 C 
BRANCH  24  25
ATOM     25  C   UNL d   1      29.810 -17.024  -3.637  0.00  0.00     0.023 C 
BRANCH  25  26
ATOM     26  C   UNL d   1      29.649 -15.562  -4.056  0.00  0.00    -0.021 C 
ATOM     27  C   UNL d   1      28.287 -15.340  -4.712  0.00  0.00     0.009 C 
ATOM     28  C   UNL d   1      29.788 -14.676  -2.825  0.00  0.00     0.009 C 
ENDBRANCH  25  26
ENDBRANCH  24  25
ENDBRANCH  22  24
ENDBRANCH  12  20
ENDBRANCH   1  12
BRANCH   2  29
ATOM     29  C   UNL d   1      26.082 -12.954  -2.430  0.00  0.00     0.115 C 
ATOM     30  S   UNL d   1      27.033 -11.695  -1.671  0.00  0.00     0.019 SA
ATOM     31  N   UNL d   1      27.091 -10.675  -3.020  0.00  0.00    -0.203 NA
ATOM     32  C   UNL d   1      26.260 -11.160  -3.961  0.00  0.00     0.155 C 
ATOM     33  C   UNL d   1      25.588 -12.427  -3.602  0.00  0.00     0.065 C 
BRANCH  32  34
ATOM     34  C   UNL d   1      26.317 -10.696  -5.383  0.00  0.00     0.270 C 
ATOM     35  N   UNL d   1      25.375 -11.125  -6.277  0.00  0.00    -0.365 N 
ATOM     36  H   UNL d   1      24.599 -11.716  -6.021  0.00  0.00     0.159 HD
ATOM     37  H   UNL d   1      25.504 -10.845  -7.242  0.00  0.00     0.159 HD
ATOM     38  O   UNL d   1      27.136  -9.859  -5.771  0.00  0.00    -0.266 OA
ENDBRANCH  32  34
BRANCH  33  39
ATOM     39  N   UNL d   1      24.930 -13.221  -4.491  0.00  0.00    -0.299 NA
ATOM     40  H   UNL d   1      24.705 -14.156  -4.129  0.00  0.00     0.124 HD
ATOM     41  H   UNL d   1      24.072 -12.842  -4.887  0.00  0.00     0.124 HD
ENDBRANCH  33  39
ENDBRANCH   2  29
TORSDOF 10
ENDMDL
