MODEL 1
REMARK VINA RESULT:    -5.792      0.000      0.000
REMARK INTER + INTRA:         -10.063
REMARK INTER:                  -8.476
REMARK INTRA:                  -1.586
REMARK CONF_INDEPENDENT:        2.685
REMARK UNBOUND:                -1.586
REMARK  9 active torsions:
REMARK  status: ('A' for Active; 'I' for Inactive)
REMARK    1  A    between atoms: C_2  and  O_3 
REMARK    2  A    between atoms: O_3  and  C_4 
REMARK    3  A    between atoms: C_4  and  C_6 
REMARK    4  A    between atoms: C_7  and  C_8 
REMARK    5  A    between atoms: C_11  and  O_12 
REMARK    6  A    between atoms: C_13  and  O_14 
REMARK    7  A    between atoms: O_14  and  C_15 
REMARK    8  A    between atoms: C_22  and  C_24 
REMARK    9  A    between atoms: C_22  and  O_23 
ROOT
ATOM      1  C   UNL d   1      26.398 -16.264   0.199  0.00  0.00     0.177 C 
ATOM      2  C   UNL d   1      26.611 -16.403  -1.380  0.00  0.00     0.136 C 
ATOM      3  N   UNL d   1      27.872 -17.109  -1.538  0.00  0.00    -0.358 N 
ATOM      4  C   UNL d   1      29.015 -16.651  -0.961  0.00  0.00     0.170 C 
ATOM      5  S   UNL d   1      30.476 -16.712  -1.745  0.00  0.00    -0.041 SA
ATOM      6  N   UNL d   1      28.873 -16.172   0.307  0.00  0.00    -0.328 N 
ATOM      7  C   UNL d   1      27.643 -15.540   0.800  0.00  0.00     0.249 C 
ATOM      8  H   UNL d   1      27.929 -17.825  -2.253  0.00  0.00     0.162 HD
ATOM      9  H   UNL d   1      29.726 -16.053   0.843  0.00  0.00     0.165 HD
ENDROOT
BRANCH   2  10
ATOM     10  C   UNL d   1      26.563 -15.255  -2.402  0.00  0.00    -0.032 C 
ATOM     11  C   UNL d   1      25.857 -14.064  -2.130  0.00  0.00     0.012 C 
ATOM     12  C   UNL d   1      25.351 -13.288  -3.157  0.00  0.00     0.040 C 
ATOM     13  C   UNL d   1      25.825 -13.470  -4.434  0.00  0.00     0.099 C 
ATOM     14  C   UNL d   1      26.773 -14.475  -4.697  0.00  0.00     0.102 C 
ATOM     15  C   UNL d   1      27.090 -15.408  -3.693  0.00  0.00     0.049 C 
BRANCH  13  16
ATOM     16  O   UNL d   1      25.308 -12.640  -5.388  0.00  0.00    -0.358 OA
ATOM     17  H   UNL d   1      24.423 -12.353  -5.112  0.00  0.00     0.217 HD
ENDBRANCH  13  16
BRANCH  14  18
ATOM     18  O   UNL d   1      27.426 -14.671  -5.888  0.00  0.00    -0.349 OA
BRANCH  18  19
ATOM     19  C   UNL d   1      28.827 -14.420  -5.813  0.00  0.00     0.171 C 
ATOM     20  C   UNL d   1      29.588 -15.695  -6.038  0.00  0.00     0.034 C 
ENDBRANCH  18  19
ENDBRANCH  14  18
ENDBRANCH   2  10
BRANCH   1  21
ATOM     21  C   UNL d   1      26.087 -17.728   0.542  0.00  0.00     0.270 C 
ATOM     22  O   UNL d   1      26.655 -18.284   1.508  0.00  0.00    -0.265 OA
BRANCH  21  23
ATOM     23  O   UNL d   1      25.220 -18.428  -0.222  0.00  0.00    -0.321 OA
BRANCH  23  24
ATOM     24  C   UNL d   1      23.896 -17.823  -0.145  0.00  0.00     0.174 C 
ATOM     25  C   UNL d   1      22.888 -18.664  -0.885  0.00  0.00     0.034 C 
ENDBRANCH  23  24
ENDBRANCH  21  23
ENDBRANCH   1  21
BRANCH   7  26
ATOM     26  C   UNL d   1      27.487 -13.969   0.478  0.00  0.00     0.438 C 
ATOM     27  F   UNL d   1      28.084 -13.609  -0.682  0.00  0.00    -0.166 F 
ATOM     28  F   UNL d   1      26.221 -13.567   0.435  0.00  0.00    -0.166 F 
ATOM     29  F   UNL d   1      27.981 -13.175   1.459  0.00  0.00    -0.166 F 
ENDBRANCH   7  26
BRANCH   7  30
ATOM     30  O   UNL d   1      27.780 -15.550   2.231  0.00  0.00    -0.363 OA
ATOM     31  H   UNL d   1      27.780 -16.450   2.577  0.00  0.00     0.213 HD
ENDBRANCH   7  30
TORSDOF 9
ENDMDL
MODEL 2
REMARK VINA RESULT:    -5.619      2.424      6.114
REMARK INTER + INTRA:         -10.156
REMARK INTER:                  -8.304
REMARK INTRA:                  -1.852
REMARK CONF_INDEPENDENT:        2.685
REMARK UNBOUND:                -1.852
REMARK  9 active torsions:
REMARK  status: ('A' for Active; 'I' for Inactive)
REMARK    1  A    between atoms: C_2  and  O_3 
REMARK    2  A    between atoms: O_3  and  C_4 
REMARK    3  A    between atoms: C_4  and  C_6 
REMARK    4  A    between atoms: C_7  and  C_8 
REMARK    5  A    between atoms: C_11  and  O_12 
REMARK    6  A    between atoms: C_13  and  O_14 
REMARK    7  A    between atoms: O_14  and  C_15 
REMARK    8  A    between atoms: C_22  and  C_24 
REMARK    9  A    between atoms: C_22  and  O_23 
ROOT
ATOM      1  C   UNL d   1      26.675 -14.994  -3.689  0.00  0.00     0.177 C 
ATOM      2  C   UNL d   1      25.811 -14.834  -2.353  0.00  0.00     0.136 C 
ATOM      3  N   UNL d   1      26.114 -13.501  -1.857  0.00  0.00    -0.358 N 
ATOM      4  C   UNL d   1      27.395 -13.107  -1.624  0.00  0.00     0.170 C 
ATOM      5  S   UNL d   1      27.800 -12.181  -0.308  0.00  0.00    -0.041 SA
ATOM      6  N   UNL d   1      28.302 -13.503  -2.561  0.00  0.00    -0.328 N 
ATOM      7  C   UNL d   1      28.175 -14.742  -3.338  0.00  0.00     0.249 C 
ATOM      8  H   UNL d   1      25.350 -12.946  -1.489  0.00  0.00     0.162 HD
ATOM      9  H   UNL d   1      29.200 -13.031  -2.546  0.00  0.00     0.165 HD
ENDROOT
BRANCH   2  10
ATOM     10  C   UNL d   1      25.801 -15.807  -1.162  0.00  0.00    -0.032 C 
ATOM     11  C   UNL d   1      26.746 -15.695  -0.119  0.00  0.00     0.012 C 
ATOM     12  C   UNL d   1      27.107 -16.798   0.632  0.00  0.00     0.040 C 
ATOM     13  C   UNL d   1      26.308 -17.916   0.613  0.00  0.00     0.099 C 
ATOM     14  C   UNL d   1      25.167 -17.953  -0.208  0.00  0.00     0.102 C 
ATOM     15  C   UNL d   1      24.953 -16.924  -1.142  0.00  0.00     0.049 C 
BRANCH  13  16
ATOM     16  O   UNL d   1      26.707 -18.950   1.411  0.00  0.00    -0.358 OA
ATOM     17  H   UNL d   1      27.632 -19.168   1.209  0.00  0.00     0.217 HD
ENDBRANCH  13  16
BRANCH  14  18
ATOM     18  O   UNL d   1      24.216 -18.942  -0.218  0.00  0.00    -0.349 OA
BRANCH  18  19
ATOM     19  C   UNL d   1      22.933 -18.498   0.217  0.00  0.00     0.171 C 
ATOM     20  C   UNL d   1      21.935 -18.654  -0.894  0.00  0.00     0.034 C 
ENDBRANCH  18  19
ENDBRANCH  14  18
ENDBRANCH   2  10
BRANCH   1  21
ATOM     21  C   UNL d   1      25.901 -14.037  -4.606  0.00  0.00     0.270 C 
ATOM     22  O   UNL d   1      24.651 -14.074  -4.645  0.00  0.00    -0.265 OA
BRANCH  21  23
ATOM     23  O   UNL d   1      26.573 -13.173  -5.398  0.00  0.00    -0.321 OA
BRANCH  23  24
ATOM     24  C   UNL d   1      25.902 -11.879  -5.396  0.00  0.00     0.174 C 
ATOM     25  C   UNL d   1      26.044 -11.213  -4.052  0.00  0.00     0.034 C 
ENDBRANCH  23  24
ENDBRANCH  21  23
ENDBRANCH   1  21
BRANCH   7  26
ATOM     26  C   UNL d   1      28.732 -16.075  -2.626  0.00  0.00     0.438 C 
ATOM     27  F   UNL d   1      29.367 -15.820  -1.457  0.00  0.00    -0.166 F 
ATOM     28  F   UNL d   1      27.787 -16.980  -2.396  0.00  0.00    -0.166 F 
ATOM     29  F   UNL d   1      29.584 -16.779  -3.410  0.00  0.00    -0.166 F 
ENDBRANCH   7  26
BRANCH   7  30
ATOM     30  O   UNL d   1      29.086 -14.574  -4.436  0.00  0.00    -0.363 OA
ATOM     31  H   UNL d   1      28.655 -14.155  -5.191  0.00  0.00     0.213 HD
ENDBRANCH   7  30
TORSDOF 9
ENDMDL
MODEL 3
REMARK VINA RESULT:    -5.450      2.600      3.815
REMARK INTER + INTRA:         -10.384
REMARK INTER:                  -8.135
REMARK INTRA:                  -2.249
REMARK CONF_INDEPENDENT:        2.685
REMARK UNBOUND:                -2.249
REMARK  9 active torsions:
REMARK  status: ('A' for Active; 'I' for Inactive)
REMARK    1  A    between atoms: C_2  and  O_3 
REMARK    2  A    between atoms: O_3  and  C_4 
REMARK    3  A    between atoms: C_4  and  C_6 
REMARK    4  A    between atoms: C_7  and  C_8 
REMARK    5  A    between atoms: C_11  and  O_12 
REMARK    6  A    between atoms: C_13  and  O_14 
REMARK    7  A    between atoms: O_14  and  C_15 
REMARK    8  A    between atoms: C_22  and  C_24 
REMARK    9  A    between atoms: C_22  and  O_23 
ROOT
ATOM      1  C   UNL d   1      28.318 -13.964   0.724  0.00  0.00     0.177 C 
ATOM      2  C   UNL d   1      26.949 -13.788  -0.084  0.00  0.00     0.136 C 
ATOM      3  N   UNL d   1      26.216 -15.026   0.125  0.00  0.00    -0.358 N 
ATOM      4  C   UNL d   1      26.769 -16.233  -0.169  0.00  0.00     0.170 C 
ATOM      5  S   UNL d   1      25.888 -17.453  -0.868  0.00  0.00    -0.041 SA
ATOM      6  N   UNL d   1      28.080 -16.370   0.178  0.00  0.00    -0.328 N 
ATOM      7  C   UNL d   1      29.031 -15.252   0.206  0.00  0.00     0.249 C 
ATOM      8  H   UNL d   1      25.219 -14.965   0.294  0.00  0.00     0.162 HD
ATOM      9  H   UNL d   1      28.445 -17.317   0.196  0.00  0.00     0.165 HD
ENDROOT
BRANCH   2  10
ATOM     10  C   UNL d   1      26.818 -13.388  -1.563  0.00  0.00    -0.032 C 
ATOM     11  C   UNL d   1      27.326 -12.159  -2.035  0.00  0.00     0.012 C 
ATOM     12  C   UNL d   1      26.782 -11.548  -3.150  0.00  0.00     0.040 C 
ATOM     13  C   UNL d   1      25.998 -12.284  -4.005  0.00  0.00     0.099 C 
ATOM     14  C   UNL d   1      25.708 -13.628  -3.715  0.00  0.00     0.102 C 
ATOM     15  C   UNL d   1      26.064 -14.158  -2.462  0.00  0.00     0.049 C 
BRANCH  13  16
ATOM     16  O   UNL d   1      25.530 -11.622  -5.106  0.00  0.00    -0.358 OA
ATOM     17  H   UNL d   1      24.762 -12.100  -5.459  0.00  0.00     0.217 HD
ENDBRANCH  13  16
BRANCH  14  18
ATOM     18  O   UNL d   1      25.059 -14.508  -4.545  0.00  0.00    -0.349 OA
BRANCH  18  19
ATOM     19  C   UNL d   1      25.902 -15.545  -5.040  0.00  0.00     0.171 C 
ATOM     20  C   UNL d   1      27.245 -14.981  -5.407  0.00  0.00     0.034 C 
ENDBRANCH  18  19
ENDBRANCH  14  18
ENDBRANCH   2  10
BRANCH   1  21
ATOM     21  C   UNL d   1      27.778 -13.875   2.158  0.00  0.00     0.270 C 
ATOM     22  O   UNL d   1      26.765 -13.185   2.409  0.00  0.00    -0.265 OA
BRANCH  21  23
ATOM     23  O   UNL d   1      28.416 -14.520   3.158  0.00  0.00    -0.321 OA
BRANCH  23  24
ATOM     24  C   UNL d   1      27.915 -14.053   4.445  0.00  0.00     0.174 C 
ATOM     25  C   UNL d   1      28.535 -14.841   5.571  0.00  0.00     0.034 C 
ENDBRANCH  23  24
ENDBRANCH  21  23
ENDBRANCH   1  21
BRANCH   7  26
ATOM     26  C   UNL d   1      29.722 -14.886  -1.202  0.00  0.00     0.438 C 
ATOM     27  F   UNL d   1      28.968 -15.248  -2.267  0.00  0.00    -0.166 F 
ATOM     28  F   UNL d   1      30.015 -13.596  -1.321  0.00  0.00    -0.166 F 
ATOM     29  F   UNL d   1      30.946 -15.449  -1.355  0.00  0.00    -0.166 F 
ENDBRANCH   7  26
BRANCH   7  30
ATOM     30  O   UNL d   1      30.141 -15.742   0.977  0.00  0.00    -0.363 OA
ATOM     31  H   UNL d   1      29.975 -15.659   1.924  0.00  0.00     0.213 HD
ENDBRANCH   7  30
TORSDOF 9
ENDMDL
MODEL 4
REMARK VINA RESULT:    -5.262      2.682      6.552
REMARK INTER + INTRA:          -9.845
REMARK INTER:                  -7.946
REMARK INTRA:                  -1.898
REMARK CONF_INDEPENDENT:        2.685
REMARK UNBOUND:                -1.898
REMARK  9 active torsions:
REMARK  status: ('A' for Active; 'I' for Inactive)
REMARK    1  A    between atoms: C_2  and  O_3 
REMARK    2  A    between atoms: O_3  and  C_4 
REMARK    3  A    between atoms: C_4  and  C_6 
REMARK    4  A    between atoms: C_7  and  C_8 
REMARK    5  A    between atoms: C_11  and  O_12 
REMARK    6  A    between atoms: C_13  and  O_14 
REMARK    7  A    between atoms: O_14  and  C_15 
REMARK    8  A    between atoms: C_22  and  C_24 
REMARK    9  A    between atoms: C_22  and  O_23 
ROOT
ATOM      1  C   UNL d   1      27.659 -13.839  -4.415  0.00  0.00     0.177 C 
ATOM      2  C   UNL d   1      26.892 -15.172  -3.974  0.00  0.00     0.136 C 
ATOM      3  N   UNL d   1      25.543 -15.031  -4.498  0.00  0.00    -0.358 N 
ATOM      4  C   UNL d   1      24.779 -13.945  -4.204  0.00  0.00     0.170 C 
ATOM      5  S   UNL d   1      23.155 -14.075  -3.894  0.00  0.00    -0.041 SA
ATOM      6  N   UNL d   1      25.440 -12.752  -4.213  0.00  0.00    -0.328 N 
ATOM      7  C   UNL d   1      26.861 -12.612  -3.873  0.00  0.00     0.249 C 
ATOM      8  H   UNL d   1      25.107 -15.847  -4.912  0.00  0.00     0.162 HD
ATOM      9  H   UNL d   1      24.864 -11.918  -4.238  0.00  0.00     0.165 HD
ENDROOT
BRANCH   2  10
ATOM     10  C   UNL d   1      26.802 -15.732  -2.544  0.00  0.00    -0.032 C 
ATOM     11  C   UNL d   1      27.965 -15.990  -1.787  0.00  0.00     0.012 C 
ATOM     12  C   UNL d   1      27.963 -16.946  -0.787  0.00  0.00     0.040 C 
ATOM     13  C   UNL d   1      26.764 -17.392  -0.286  0.00  0.00     0.099 C 
ATOM     14  C   UNL d   1      25.555 -16.922  -0.828  0.00  0.00     0.102 C 
ATOM     15  C   UNL d   1      25.577 -16.143  -1.999  0.00  0.00     0.049 C 
BRANCH  13  16
ATOM     16  O   UNL d   1      26.842 -18.305   0.727  0.00  0.00    -0.358 OA
ATOM     17  H   UNL d   1      27.774 -18.431   0.969  0.00  0.00     0.217 HD
ENDBRANCH  13  16
BRANCH  14  18
ATOM     18  O   UNL d   1      24.300 -17.177  -0.334  0.00  0.00    -0.349 OA
BRANCH  18  19
ATOM     19  C   UNL d   1      23.963 -18.562  -0.335  0.00  0.00     0.171 C 
ATOM     20  C   UNL d   1      22.487 -18.729  -0.551  0.00  0.00     0.034 C 
ENDBRANCH  18  19
ENDBRANCH  14  18
ENDBRANCH   2  10
BRANCH   1  21
ATOM     21  C   UNL d   1      27.783 -14.106  -5.921  0.00  0.00     0.270 C 
ATOM     22  O   UNL d   1      27.853 -15.279  -6.350  0.00  0.00    -0.265 OA
BRANCH  21  23
ATOM     23  O   UNL d   1      27.848 -13.070  -6.784  0.00  0.00    -0.321 OA
BRANCH  23  24
ATOM     24  C   UNL d   1      29.155 -13.045  -7.428  0.00  0.00     0.174 C 
ATOM     25  C   UNL d   1      29.363 -11.741  -8.154  0.00  0.00     0.034 C 
ENDBRANCH  23  24
ENDBRANCH  21  23
ENDBRANCH   1  21
BRANCH   7  26
ATOM     26  C   UNL d   1      27.194 -12.477  -2.303  0.00  0.00     0.438 C 
ATOM     27  F   UNL d   1      28.414 -12.968  -1.981  0.00  0.00    -0.166 F 
ATOM     28  F   UNL d   1      27.118 -11.228  -1.857  0.00  0.00    -0.166 F 
ATOM     29  F   UNL d   1      26.281 -13.094  -1.512  0.00  0.00    -0.166 F 
ENDBRANCH   7  26
BRANCH   7  30
ATOM     30  O   UNL d   1      27.227 -11.318  -4.379  0.00  0.00    -0.363 OA
ATOM     31  H   UNL d   1      27.556 -11.374  -5.284  0.00  0.00     0.213 HD
ENDBRANCH   7  30
TORSDOF 9
ENDMDL
MODEL 5
REMARK VINA RESULT:    -5.191      2.569      6.097
REMARK INTER + INTRA:          -9.665
REMARK INTER:                  -7.875
REMARK INTRA:                  -1.790
REMARK CONF_INDEPENDENT:        2.685
REMARK UNBOUND:                -1.790
REMARK  9 active torsions:
REMARK  status: ('A' for Active; 'I' for Inactive)
REMARK    1  A    between atoms: C_2  and  O_3 
REMARK    2  A    between atoms: O_3  and  C_4 
REMARK    3  A    between atoms: C_4  and  C_6 
REMARK    4  A    between atoms: C_7  and  C_8 
REMARK    5  A    between atoms: C_11  and  O_12 
REMARK    6  A    between atoms: C_13  and  O_14 
REMARK    7  A    between atoms: O_14  and  C_15 
REMARK    8  A    between atoms: C_22  and  C_24 
REMARK    9  A    between atoms: C_22  and  O_23 
ROOT
ATOM      1  C   UNL d   1      27.050 -14.207  -4.227  0.00  0.00     0.177 C 
ATOM      2  C   UNL d   1      27.461 -15.250  -3.087  0.00  0.00     0.136 C 
ATOM      3  N   UNL d   1      26.247 -15.993  -2.789  0.00  0.00    -0.358 N 
ATOM      4  C   UNL d   1      25.098 -15.357  -2.436  0.00  0.00     0.170 C 
ATOM      5  S   UNL d   1      24.096 -15.952  -1.255  0.00  0.00    -0.041 SA
ATOM      6  N   UNL d   1      24.823 -14.222  -3.139  0.00  0.00    -0.328 N 
ATOM      7  C   UNL d   1      25.860 -13.347  -3.700  0.00  0.00     0.249 C 
ATOM      8  H   UNL d   1      26.325 -16.993  -2.645  0.00  0.00     0.162 HD
ATOM      9  H   UNL d   1      23.875 -13.867  -3.071  0.00  0.00     0.165 HD
ENDROOT
BRANCH   2  10
ATOM     10  C   UNL d   1      28.162 -14.910  -1.761  0.00  0.00    -0.032 C 
ATOM     11  C   UNL d   1      29.532 -14.576  -1.724  0.00  0.00     0.012 C 
ATOM     12  C   UNL d   1      30.285 -14.792  -0.584  0.00  0.00     0.040 C 
ATOM     13  C   UNL d   1      29.646 -14.997   0.615  0.00  0.00     0.099 C 
ATOM     14  C   UNL d   1      28.242 -15.041   0.667  0.00  0.00     0.102 C 
ATOM     15  C   UNL d   1      27.505 -15.063  -0.530  0.00  0.00     0.049 C 
BRANCH  13  16
ATOM     16  O   UNL d   1      30.456 -15.164   1.703  0.00  0.00    -0.358 OA
ATOM     17  H   UNL d   1      29.944 -15.575   2.419  0.00  0.00     0.217 HD
ENDBRANCH  13  16
BRANCH  14  18
ATOM     18  O   UNL d   1      27.481 -15.098   1.808  0.00  0.00    -0.349 OA
BRANCH  18  19
ATOM     19  C   UNL d   1      27.788 -14.069   2.745  0.00  0.00     0.171 C 
ATOM     20  C   UNL d   1      26.915 -12.873   2.494  0.00  0.00     0.034 C 
ENDBRANCH  18  19
ENDBRANCH  14  18
ENDBRANCH   2  10
BRANCH   1  21
ATOM     21  C   UNL d   1      26.872 -15.176  -5.404  0.00  0.00     0.270 C 
ATOM     22  O   UNL d   1      25.889 -15.949  -5.441  0.00  0.00    -0.265 OA
BRANCH  21  23
ATOM     23  O   UNL d   1      27.796 -15.216  -6.388  0.00  0.00    -0.321 OA
BRANCH  23  24
ATOM     24  C   UNL d   1      29.124 -15.001  -5.827  0.00  0.00     0.174 C 
ATOM     25  C   UNL d   1      29.726 -16.308  -5.379  0.00  0.00     0.034 C 
ENDBRANCH  23  24
ENDBRANCH  21  23
ENDBRANCH   1  21
BRANCH   7  26
ATOM     26  C   UNL d   1      26.469 -12.250  -2.690  0.00  0.00     0.438 C 
ATOM     27  F   UNL d   1      25.939 -11.017  -2.871  0.00  0.00    -0.166 F 
ATOM     28  F   UNL d   1      26.327 -12.580  -1.411  0.00  0.00    -0.166 F 
ATOM     29  F   UNL d   1      27.817 -12.135  -2.783  0.00  0.00    -0.166 F 
ENDBRANCH   7  26
BRANCH   7  30
ATOM     30  O   UNL d   1      25.164 -12.532  -4.658  0.00  0.00    -0.363 OA
ATOM     31  H   UNL d   1      24.694 -11.808  -4.228  0.00  0.00     0.213 HD
ENDBRANCH   7  30
TORSDOF 9
ENDMDL
MODEL 6
REMARK VINA RESULT:    -5.128      2.645      3.959
REMARK INTER + INTRA:         -10.074
REMARK INTER:                  -7.813
REMARK INTRA:                  -2.261
REMARK CONF_INDEPENDENT:        2.685
REMARK UNBOUND:                -2.261
REMARK  9 active torsions:
REMARK  status: ('A' for Active; 'I' for Inactive)
REMARK    1  A    between atoms: C_2  and  O_3 
REMARK    2  A    between atoms: O_3  and  C_4 
REMARK    3  A    between atoms: C_4  and  C_6 
REMARK    4  A    between atoms: C_7  and  C_8 
REMARK    5  A    between atoms: C_11  and  O_12 
REMARK    6  A    between atoms: C_13  and  O_14 
REMARK    7  A    between atoms: O_14  and  C_15 
REMARK    8  A    between atoms: C_22  and  C_24 
REMARK    9  A    between atoms: C_22  and  O_23 
ROOT
ATOM      1  C   UNL d   1      28.105 -14.318   0.362  0.00  0.00     0.177 C 
ATOM      2  C   UNL d   1      26.672 -14.496  -0.327  0.00  0.00     0.136 C 
ATOM      3  N   UNL d   1      26.127 -15.723   0.230  0.00  0.00    -0.358 N 
ATOM      4  C   UNL d   1      26.813 -16.895   0.167  0.00  0.00     0.170 C 
ATOM      5  S   UNL d   1      26.056 -18.337  -0.145  0.00  0.00    -0.041 SA
ATOM      6  N   UNL d   1      28.152 -16.796   0.407  0.00  0.00    -0.328 N 
ATOM      7  C   UNL d   1      28.946 -15.604   0.086  0.00  0.00     0.249 C 
ATOM      8  H   UNL d   1      25.144 -15.736   0.477  0.00  0.00     0.162 HD
ATOM      9  H   UNL d   1      28.639 -17.663   0.605  0.00  0.00     0.165 HD
ENDROOT
BRANCH   2  10
ATOM     10  C   UNL d   1      26.389 -14.479  -1.839  0.00  0.00    -0.032 C 
ATOM     11  C   UNL d   1      25.707 -15.543  -2.466  0.00  0.00     0.012 C 
ATOM     12  C   UNL d   1      25.905 -15.821  -3.806  0.00  0.00     0.040 C 
ATOM     13  C   UNL d   1      26.479 -14.869  -4.613  0.00  0.00     0.099 C 
ATOM     14  C   UNL d   1      26.911 -13.648  -4.065  0.00  0.00     0.102 C 
ATOM     15  C   UNL d   1      26.925 -13.482  -2.668  0.00  0.00     0.049 C 
BRANCH  13  16
ATOM     16  O   UNL d   1      26.605 -15.200  -5.932  0.00  0.00    -0.358 OA
ATOM     17  H   UNL d   1      27.059 -14.479  -6.398  0.00  0.00     0.217 HD
ENDBRANCH  13  16
BRANCH  14  18
ATOM     18  O   UNL d   1      27.369 -12.566  -4.774  0.00  0.00    -0.349 OA
BRANCH  18  19
ATOM     19  C   UNL d   1      26.325 -11.761  -5.315  0.00  0.00     0.171 C 
ATOM     20  C   UNL d   1      25.905 -10.726  -4.311  0.00  0.00     0.034 C 
ENDBRANCH  18  19
ENDBRANCH  14  18
ENDBRANCH   2  10
BRANCH   1  21
ATOM     21  C   UNL d   1      27.657 -13.951   1.783  0.00  0.00     0.270 C 
ATOM     22  O   UNL d   1      26.602 -13.302   1.964  0.00  0.00    -0.265 OA
BRANCH  21  23
ATOM     23  O   UNL d   1      28.420 -14.300   2.841  0.00  0.00    -0.321 OA
BRANCH  23  24
ATOM     24  C   UNL d   1      27.687 -14.064   4.078  0.00  0.00     0.174 C 
ATOM     25  C   UNL d   1      28.233 -14.924   5.189  0.00  0.00     0.034 C 
ENDBRANCH  23  24
ENDBRANCH  21  23
ENDBRANCH   1  21
BRANCH   7  26
ATOM     26  C   UNL d   1      29.483 -15.509  -1.429  0.00  0.00     0.438 C 
ATOM     27  F   UNL d   1      29.467 -14.245  -1.915  0.00  0.00    -0.166 F 
ATOM     28  F   UNL d   1      30.710 -15.997  -1.581  0.00  0.00    -0.166 F 
ATOM     29  F   UNL d   1      28.784 -16.288  -2.290  0.00  0.00    -0.166 F 
ENDBRANCH   7  26
BRANCH   7  30
ATOM     30  O   UNL d   1      30.160 -15.766   0.836  0.00  0.00    -0.363 OA
ATOM     31  H   UNL d   1      30.022 -15.583   1.773  0.00  0.00     0.213 HD
ENDBRANCH   7  30
TORSDOF 9
ENDMDL
MODEL 7
REMARK VINA RESULT:    -4.973      2.635      5.694
REMARK INTER + INTRA:          -9.294
REMARK INTER:                  -7.658
REMARK INTRA:                  -1.636
REMARK CONF_INDEPENDENT:        2.685
REMARK UNBOUND:                -1.636
REMARK  9 active torsions:
REMARK  status: ('A' for Active; 'I' for Inactive)
REMARK    1  A    between atoms: C_2  and  O_3 
REMARK    2  A    between atoms: O_3  and  C_4 
REMARK    3  A    between atoms: C_4  and  C_6 
REMARK    4  A    between atoms: C_7  and  C_8 
REMARK    5  A    between atoms: C_11  and  O_12 
REMARK    6  A    between atoms: C_13  and  O_14 
REMARK    7  A    between atoms: O_14  and  C_15 
REMARK    8  A    between atoms: C_22  and  C_24 
REMARK    9  A    between atoms: C_22  and  O_23 
ROOT
ATOM      1  C   UNL d   1      26.891 -14.503  -3.827  0.00  0.00     0.177 C 
ATOM      2  C   UNL d   1      27.014 -15.787  -2.881  0.00  0.00     0.136 C 
ATOM      3  N   UNL d   1      25.659 -16.295  -2.744  0.00  0.00    -0.358 N 
ATOM      4  C   UNL d   1      24.646 -15.500  -2.307  0.00  0.00     0.170 C 
ATOM      5  S   UNL d   1      23.478 -16.060  -1.270  0.00  0.00    -0.041 SA
ATOM      6  N   UNL d   1      24.650 -14.230  -2.804  0.00  0.00    -0.328 N 
ATOM      7  C   UNL d   1      25.873 -13.512  -3.180  0.00  0.00     0.249 C 
ATOM      8  H   UNL d   1      25.522 -17.299  -2.778  0.00  0.00     0.162 HD
ATOM      9  H   UNL d   1      23.792 -13.700  -2.693  0.00  0.00     0.165 HD
ENDROOT
BRANCH   2  10
ATOM     10  C   UNL d   1      27.693 -15.831  -1.502  0.00  0.00    -0.032 C 
ATOM     11  C   UNL d   1      26.933 -15.930  -0.317  0.00  0.00     0.012 C 
ATOM     12  C   UNL d   1      27.422 -15.446   0.883  0.00  0.00     0.040 C 
ATOM     13  C   UNL d   1      28.767 -15.191   1.007  0.00  0.00     0.099 C 
ATOM     14  C   UNL d   1      29.623 -15.370  -0.094  0.00  0.00     0.102 C 
ATOM     15  C   UNL d   1      29.074 -15.626  -1.363  0.00  0.00     0.049 C 
BRANCH  13  16
ATOM     16  O   UNL d   1      29.182 -14.753   2.233  0.00  0.00    -0.358 OA
ATOM     17  H   UNL d   1      29.962 -15.263   2.504  0.00  0.00     0.217 HD
ENDBRANCH  13  16
BRANCH  14  18
ATOM     18  O   UNL d   1      30.992 -15.287  -0.069  0.00  0.00    -0.349 OA
BRANCH  18  19
ATOM     19  C   UNL d   1      31.635 -16.556   0.011  0.00  0.00     0.171 C 
ATOM     20  C   UNL d   1      32.361 -16.681   1.319  0.00  0.00     0.034 C 
ENDBRANCH  18  19
ENDBRANCH  14  18
ENDBRANCH   2  10
BRANCH   1  21
ATOM     21  C   UNL d   1      26.585 -15.199  -5.160  0.00  0.00     0.270 C 
ATOM     22  O   UNL d   1      25.496 -15.792  -5.327  0.00  0.00    -0.265 OA
BRANCH  21  23
ATOM     23  O   UNL d   1      27.509 -15.200  -6.145  0.00  0.00    -0.321 OA
BRANCH  23  24
ATOM     24  C   UNL d   1      28.760 -14.641  -5.650  0.00  0.00     0.174 C 
ATOM     25  C   UNL d   1      29.776 -15.732  -5.430  0.00  0.00     0.034 C 
ENDBRANCH  23  24
ENDBRANCH  21  23
ENDBRANCH   1  21
BRANCH   7  26
ATOM     26  C   UNL d   1      26.636 -12.755  -1.980  0.00  0.00     0.438 C 
ATOM     27  F   UNL d   1      26.464 -11.413  -2.011  0.00  0.00    -0.166 F 
ATOM     28  F   UNL d   1      26.280 -13.191  -0.776  0.00  0.00    -0.166 F 
ATOM     29  F   UNL d   1      27.970 -12.998  -1.962  0.00  0.00    -0.166 F 
ENDBRANCH   7  26
BRANCH   7  30
ATOM     30  O   UNL d   1      25.415 -12.419  -3.993  0.00  0.00    -0.363 OA
ATOM     31  H   UNL d   1      24.561 -12.616  -4.397  0.00  0.00     0.213 HD
ENDBRANCH   7  30
TORSDOF 9
ENDMDL
MODEL 8
REMARK VINA RESULT:    -4.538      3.004      4.828
REMARK INTER + INTRA:          -9.471
REMARK INTER:                  -7.223
REMARK INTRA:                  -2.249
REMARK CONF_INDEPENDENT:        2.685
REMARK UNBOUND:                -2.249
REMARK  9 active torsions:
REMARK  status: ('A' for Active; 'I' for Inactive)
REMARK    1  A    between atoms: C_2  and  O_3 
REMARK    2  A    between atoms: O_3  and  C_4 
REMARK    3  A    between atoms: C_4  and  C_6 
REMARK    4  A    between atoms: C_7  and  C_8 
REMARK    5  A    between atoms: C_11  and  O_12 
REMARK    6  A    between atoms: C_13  and  O_14 
REMARK    7  A    between atoms: O_14  and  C_15 
REMARK    8  A    between atoms: C_22  and  C_24 
REMARK    9  A    between atoms: C_22  and  O_23 
ROOT
ATOM      1  C   UNL d   1      27.463 -16.868   0.482  0.00  0.00     0.177 C 
ATOM      2  C   UNL d   1      26.389 -15.710   0.230  0.00  0.00     0.136 C 
ATOM      3  N   UNL d   1      25.930 -15.902  -1.136  0.00  0.00    -0.358 N 
ATOM      4  C   UNL d   1      26.804 -15.949  -2.176  0.00  0.00     0.170 C 
ATOM      5  S   UNL d   1      26.469 -15.234  -3.635  0.00  0.00    -0.041 SA
ATOM      6  N   UNL d   1      27.951 -16.646  -1.938  0.00  0.00    -0.328 N 
ATOM      7  C   UNL d   1      28.571 -16.757  -0.612  0.00  0.00     0.249 C 
ATOM      8  H   UNL d   1      24.940 -15.790  -1.325  0.00  0.00     0.162 HD
ATOM      9  H   UNL d   1      28.501 -16.902  -2.752  0.00  0.00     0.165 HD
ENDROOT
BRANCH   2  10
ATOM     10  C   UNL d   1      26.610 -14.206   0.463  0.00  0.00    -0.032 C 
ATOM     11  C   UNL d   1      26.701 -13.305  -0.619  0.00  0.00     0.012 C 
ATOM     12  C   UNL d   1      27.405 -12.121  -0.499  0.00  0.00     0.040 C 
ATOM     13  C   UNL d   1      27.717 -11.647   0.753  0.00  0.00     0.099 C 
ATOM     14  C   UNL d   1      27.370 -12.391   1.894  0.00  0.00     0.102 C 
ATOM     15  C   UNL d   1      26.876 -13.700   1.744  0.00  0.00     0.049 C 
BRANCH  13  16
ATOM     16  O   UNL d   1      28.378 -10.452   0.793  0.00  0.00    -0.358 OA
ATOM     17  H   UNL d   1      28.533 -10.207   1.719  0.00  0.00     0.217 HD
ENDBRANCH  13  16
BRANCH  14  18
ATOM     18  O   UNL d   1      27.496 -11.973   3.195  0.00  0.00    -0.349 OA
BRANCH  18  19
ATOM     19  C   UNL d   1      28.431 -12.740   3.948  0.00  0.00     0.171 C 
ATOM     20  C   UNL d   1      27.702 -13.668   4.877  0.00  0.00     0.034 C 
ENDBRANCH  18  19
ENDBRANCH  14  18
ENDBRANCH   2  10
BRANCH   1  21
ATOM     21  C   UNL d   1      26.521 -18.078   0.540  0.00  0.00     0.270 C 
ATOM     22  O   UNL d   1      26.979 -19.239   0.452  0.00  0.00    -0.265 OA
BRANCH  21  23
ATOM     23  O   UNL d   1      25.189 -17.889   0.655  0.00  0.00    -0.321 OA
BRANCH  23  24
ATOM     24  C   UNL d   1      24.497 -18.575  -0.429  0.00  0.00     0.174 C 
ATOM     25  C   UNL d   1      23.061 -18.126  -0.508  0.00  0.00     0.034 C 
ENDBRANCH  23  24
ENDBRANCH  21  23
ENDBRANCH   1  21
BRANCH   7  26
ATOM     26  C   UNL d   1      29.541 -15.542  -0.190  0.00  0.00     0.438 C 
ATOM     27  F   UNL d   1      29.331 -15.117   1.078  0.00  0.00    -0.166 F 
ATOM     28  F   UNL d   1      30.831 -15.833  -0.322  0.00  0.00    -0.166 F 
ATOM     29  F   UNL d   1      29.431 -14.467  -1.008  0.00  0.00    -0.166 F 
ENDBRANCH   7  26
BRANCH   7  30
ATOM     30  O   UNL d   1      29.487 -17.858  -0.731  0.00  0.00    -0.363 OA
ATOM     31  H   UNL d   1      29.254 -18.575  -0.129  0.00  0.00     0.213 HD
ENDBRANCH   7  30
TORSDOF 9
ENDMDL
MODEL 9
REMARK VINA RESULT:    -4.470      3.910      5.867
REMARK INTER + INTRA:          -9.258
REMARK INTER:                  -7.154
REMARK INTRA:                  -2.104
REMARK CONF_INDEPENDENT:        2.685
REMARK UNBOUND:                -2.104
REMARK  9 active torsions:
REMARK  status: ('A' for Active; 'I' for Inactive)
REMARK    1  A    between atoms: C_2  and  O_3 
REMARK    2  A    between atoms: O_3  and  C_4 
REMARK    3  A    between atoms: C_4  and  C_6 
REMARK    4  A    between atoms: C_7  and  C_8 
REMARK    5  A    between atoms: C_11  and  O_12 
REMARK    6  A    between atoms: C_13  and  O_14 
REMARK    7  A    between atoms: O_14  and  C_15 
REMARK    8  A    between atoms: C_22  and  C_24 
REMARK    9  A    between atoms: C_22  and  O_23 
ROOT
ATOM      1  C   UNL d   1      29.988 -16.133  -5.180  0.00  0.00     0.177 C 
ATOM      2  C   UNL d   1      29.111 -15.327  -6.247  0.00  0.00     0.136 C 
ATOM      3  N   UNL d   1      30.064 -14.545  -7.017  0.00  0.00    -0.358 N 
ATOM      4  C   UNL d   1      30.938 -13.697  -6.410  0.00  0.00     0.170 C 
ATOM      5  S   UNL d   1      31.308 -12.214  -7.053  0.00  0.00    -0.041 SA
ATOM      6  N   UNL d   1      31.499 -14.170  -5.261  0.00  0.00    -0.328 N 
ATOM      7  C   UNL d   1      30.822 -15.105  -4.354  0.00  0.00     0.249 C 
ATOM      8  H   UNL d   1      29.928 -14.482  -8.019  0.00  0.00     0.162 HD
ATOM      9  H   UNL d   1      32.319 -13.676  -4.924  0.00  0.00     0.165 HD
ENDROOT
BRANCH   2  10
ATOM     10  C   UNL d   1      27.894 -14.441  -5.932  0.00  0.00    -0.032 C 
ATOM     11  C   UNL d   1      27.886 -13.069  -6.262  0.00  0.00     0.012 C 
ATOM     12  C   UNL d   1      27.107 -12.173  -5.552  0.00  0.00     0.040 C 
ATOM     13  C   UNL d   1      26.084 -12.646  -4.767  0.00  0.00     0.099 C 
ATOM     14  C   UNL d   1      25.871 -14.030  -4.646  0.00  0.00     0.102 C 
ATOM     15  C   UNL d   1      26.817 -14.926  -5.176  0.00  0.00     0.049 C 
BRANCH  13  16
ATOM     16  O   UNL d   1      25.334 -11.699  -4.127  0.00  0.00    -0.358 OA
ATOM     17  H   UNL d   1      24.405 -11.982  -4.120  0.00  0.00     0.217 HD
ENDBRANCH  13  16
BRANCH  14  18
ATOM     18  O   UNL d   1      24.810 -14.627  -4.012  0.00  0.00    -0.349 OA
BRANCH  18  19
ATOM     19  C   UNL d   1      25.044 -14.874  -2.628  0.00  0.00     0.171 C 
ATOM     20  C   UNL d   1      25.159 -16.351  -2.384  0.00  0.00     0.034 C 
ENDBRANCH  18  19
ENDBRANCH  14  18
ENDBRANCH   2  10
BRANCH   1  21
ATOM     21  C   UNL d   1      30.669 -17.138  -6.120  0.00  0.00     0.270 C 
ATOM     22  O   UNL d   1      30.404 -17.136  -7.343  0.00  0.00    -0.265 OA
BRANCH  21  23
ATOM     23  O   UNL d   1      31.532 -18.048  -5.620  0.00  0.00    -0.321 OA
BRANCH  23  24
ATOM     24  C   UNL d   1      30.803 -19.232  -5.183  0.00  0.00     0.174 C 
ATOM     25  C   UNL d   1      30.405 -20.074  -6.368  0.00  0.00     0.034 C 
ENDBRANCH  23  24
ENDBRANCH  21  23
ENDBRANCH   1  21
BRANCH   7  26
ATOM     26  C   UNL d   1      29.830 -14.437  -3.275  0.00  0.00     0.438 C 
ATOM     27  F   UNL d   1      28.721 -15.181  -3.050  0.00  0.00    -0.166 F 
ATOM     28  F   UNL d   1      30.413 -14.196  -2.106  0.00  0.00    -0.166 F 
ATOM     29  F   UNL d   1      29.424 -13.192  -3.627  0.00  0.00    -0.166 F 
ENDBRANCH   7  26
BRANCH   7  30
ATOM     30  O   UNL d   1      31.873 -15.628  -3.525  0.00  0.00    -0.363 OA
ATOM     31  H   UNL d   1      32.109 -16.528  -3.782  0.00  0.00     0.213 HD
ENDBRANCH   7  30
TORSDOF 9
ENDMDL
