MODEL 1
REMARK VINA RESULT:    -7.885      0.000      0.000
REMARK INTER + INTRA:         -14.453
REMARK INTER:                 -11.465
REMARK INTRA:                  -2.989
REMARK CONF_INDEPENDENT:        3.580
REMARK UNBOUND:                -2.989
REMARK  12 active torsions:
REMARK  status: ('A' for Active; 'I' for Inactive)
REMARK    1  A    between atoms: C_20  and  O_21 
REMARK    2  A    between atoms: C_20  and  C_22 
REMARK    3  A    between atoms: C_22  and  C_24 
REMARK    4  A    between atoms: C_24  and  O_25 
REMARK    5  A    between atoms: O_25  and  C_26 
REMARK    6  A    between atoms: C_26  and  C_28 
REMARK    7  A    between atoms: C_28  and  C_29 
REMARK    8  A    between atoms: C_29  and  C_30 
REMARK       I    between atoms: C_30  and  N_32 
REMARK    9  A    between atoms: N_32  and  C_33 
REMARK   10  A    between atoms: C_33  and  C_34 
REMARK   11  A    between atoms: C_34  and  C_35 
REMARK   12  A    between atoms: C_35  and  N_36 
ROOT
ATOM      1  C   UNL d   1      28.169 -13.137  -1.417  0.00  0.00     0.016 C 
ATOM      2  C   UNL d   1      27.577 -12.599  -2.714  0.00  0.00    -0.030 C 
ATOM      3  C   UNL d   1      27.733 -13.454  -3.908  0.00  0.00     0.017 C 
ATOM      4  C   UNL d   1      26.887 -13.403  -5.156  0.00  0.00     0.079 C 
ATOM      5  C   UNL d   1      26.063 -14.515  -4.812  0.00  0.00     0.132 C 
ATOM      6  O   UNL d   1      26.266 -15.588  -5.387  0.00  0.00    -0.298 OA
ATOM      7  C   UNL d   1      25.489 -14.067  -3.273  0.00  0.00     0.077 C 
ATOM      8  C   UNL d   1      26.011 -12.802  -2.896  0.00  0.00    -0.013 C 
ATOM      9  C   UNL d   1      25.479 -11.720  -3.788  0.00  0.00     0.012 C 
ATOM     10  C   UNL d   1      26.397 -10.501  -4.024  0.00  0.00     0.006 C 
ATOM     11  C   UNL d   1      28.003 -10.586  -4.140  0.00  0.00    -0.005 C 
ATOM     12  C   UNL d   1      28.540 -11.382  -2.984  0.00  0.00    -0.001 C 
ATOM     13  C   UNL d   1      30.119 -11.678  -3.181  0.00  0.00     0.007 C 
ATOM     14  C   UNL d   1      30.576 -12.585  -4.315  0.00  0.00     0.013 C 
ATOM     15  C   UNL d   1      29.788 -12.301  -5.595  0.00  0.00    -0.002 C 
ATOM     16  C   UNL d   1      31.017 -11.776  -6.429  0.00  0.00     0.019 C 
ATOM     17  C   UNL d   1      28.518 -11.201  -5.442  0.00  0.00     0.002 C 
ATOM     18  C   UNL d   1      28.591 -10.526  -6.726  0.00  0.00     0.009 C 
ATOM     19  C   UNL d   1      28.759 -11.998  -7.510  0.00  0.00     0.047 C 
ATOM     20  C   UNL d   1      29.381 -13.543  -6.525  0.00  0.00     0.128 C 
ENDROOT
BRANCH  20  21
ATOM     21  O   UNL d   1      28.178 -14.051  -7.340  0.00  0.00    -0.381 OA
ATOM     22  H   UNL d   1      27.859 -14.947  -7.122  0.00  0.00     0.211 HD
ENDBRANCH  20  21
BRANCH  20  23
ATOM     23  C   UNL d   1      29.257 -15.137  -5.281  0.00  0.00     0.185 C 
ATOM     24  O   UNL d   1      28.530 -16.016  -5.645  0.00  0.00    -0.292 OA
BRANCH  23  25
ATOM     25  C   UNL d   1      30.080 -15.647  -3.591  0.00  0.00     0.260 C 
BRANCH  25  26
ATOM     26  O   UNL d   1      29.556 -15.595  -2.149  0.00  0.00    -0.314 OA
BRANCH  26  27
ATOM     27  C   UNL d   1      28.391 -16.299  -1.781  0.00  0.00     0.259 C 
ATOM     28  O   UNL d   1      27.276 -16.229  -2.307  0.00  0.00    -0.265 OA
BRANCH  27  29
ATOM     29  C   UNL d   1      28.497 -17.125  -0.549  0.00  0.00     0.120 C 
BRANCH  29  30
ATOM     30  C   UNL d   1      27.412 -16.674   0.464  0.00  0.00     0.112 C 
BRANCH  30  31
ATOM     31  C   UNL d   1      26.406 -17.774   0.591  0.00  0.00     0.217 C 
ATOM     32  O   UNL d   1      26.409 -18.570   1.523  0.00  0.00    -0.274 OA
ATOM     33  N   UNL d   1      25.465 -17.827  -0.409  0.00  0.00    -0.361 N 
ATOM     34  H   UNL d   1      25.478 -17.147  -1.161  0.00  0.00     0.162 HD
BRANCH  33  35
ATOM     35  C   UNL d   1      24.468 -18.863  -0.323  0.00  0.00     0.124 C 
BRANCH  35  36
ATOM     36  C   UNL d   1      23.207 -18.493  -1.064  0.00  0.00     0.040 C 
BRANCH  36  37
ATOM     37  C   UNL d   1      22.158 -17.921  -0.120  0.00  0.00     0.130 C 
BRANCH  37  38
ATOM     38  N   UNL d   1      20.942 -18.747  -0.136  0.00  0.00    -0.352 N 
ATOM     39  C   UNL d   1      20.322 -19.326   0.969  0.00  0.00     0.108 A 
ATOM     40  C   UNL d   1      19.166 -19.894   0.526  0.00  0.00     0.106 A 
ATOM     41  N   UNL d   1      19.143 -19.703  -0.834  0.00  0.00    -0.361 N 
ATOM     42  C   UNL d   1      20.229 -19.036  -1.238  0.00  0.00     0.182 A 
ATOM     43  H   UNL d   1      18.405 -20.023  -1.457  0.00  0.00     0.166 HD
ENDBRANCH  37  38
ENDBRANCH  36  37
ENDBRANCH  35  36
ENDBRANCH  33  35
ENDBRANCH  30  31
ENDBRANCH  29  30
ENDBRANCH  27  29
ENDBRANCH  26  27
ENDBRANCH  25  26
ENDBRANCH  23  25
ENDBRANCH  20  23
TORSDOF 12
ENDMDL
MODEL 2
REMARK VINA RESULT:    -7.142      3.861      7.145
REMARK INTER + INTRA:         -14.741
REMARK INTER:                 -10.722
REMARK INTRA:                  -4.020
REMARK CONF_INDEPENDENT:        3.580
REMARK UNBOUND:                -4.020
REMARK  12 active torsions:
REMARK  status: ('A' for Active; 'I' for Inactive)
REMARK    1  A    between atoms: C_20  and  O_21 
REMARK    2  A    between atoms: C_20  and  C_22 
REMARK    3  A    between atoms: C_22  and  C_24 
REMARK    4  A    between atoms: C_24  and  O_25 
REMARK    5  A    between atoms: O_25  and  C_26 
REMARK    6  A    between atoms: C_26  and  C_28 
REMARK    7  A    between atoms: C_28  and  C_29 
REMARK    8  A    between atoms: C_29  and  C_30 
REMARK       I    between atoms: C_30  and  N_32 
REMARK    9  A    between atoms: N_32  and  C_33 
REMARK   10  A    between atoms: C_33  and  C_34 
REMARK   11  A    between atoms: C_34  and  C_35 
REMARK   12  A    between atoms: C_35  and  N_36 
ROOT
ATOM      1  C   UNL d   1      29.512 -11.816  -3.592  0.00  0.00     0.016 C 
ATOM      2  C   UNL d   1      29.421 -13.323  -3.375  0.00  0.00    -0.030 C 
ATOM      3  C   UNL d   1      28.098 -13.938  -3.603  0.00  0.00     0.017 C 
ATOM      4  C   UNL d   1      27.832 -15.391  -3.907  0.00  0.00     0.079 C 
ATOM      5  C   UNL d   1      27.681 -15.215  -5.313  0.00  0.00     0.132 C 
ATOM      6  O   UNL d   1      26.541 -15.247  -5.784  0.00  0.00    -0.298 OA
ATOM      7  C   UNL d   1      29.130 -14.422  -5.727  0.00  0.00     0.077 C 
ATOM      8  C   UNL d   1      29.937 -14.226  -4.577  0.00  0.00    -0.013 C 
ATOM      9  C   UNL d   1      30.410 -15.540  -4.030  0.00  0.00     0.012 C 
ATOM     10  C   UNL d   1      30.648 -15.612  -2.506  0.00  0.00     0.006 C 
ATOM     11  C   UNL d   1      29.752 -14.839  -1.411  0.00  0.00    -0.005 C 
ATOM     12  C   UNL d   1      29.616 -13.397  -1.815  0.00  0.00    -0.001 C 
ATOM     13  C   UNL d   1      28.546 -12.639  -0.866  0.00  0.00     0.007 C 
ATOM     14  C   UNL d   1      27.077 -13.033  -0.930  0.00  0.00     0.013 C 
ATOM     15  C   UNL d   1      26.920 -14.552  -1.027  0.00  0.00    -0.002 C 
ATOM     16  C   UNL d   1      26.206 -14.730   0.365  0.00  0.00     0.019 C 
ATOM     17  C   UNL d   1      28.354 -15.424  -1.201  0.00  0.00     0.002 C 
ATOM     18  C   UNL d   1      28.042 -16.612  -0.427  0.00  0.00     0.009 C 
ATOM     19  C   UNL d   1      26.533 -16.708  -1.150  0.00  0.00     0.047 C 
ATOM     20  C   UNL d   1      25.760 -15.135  -1.968  0.00  0.00     0.128 C 
ENDROOT
BRANCH  20  21
ATOM     21  O   UNL d   1      25.539 -16.263  -2.992  0.00  0.00    -0.381 OA
ATOM     22  H   UNL d   1      25.627 -16.014  -3.931  0.00  0.00     0.211 HD
ENDBRANCH  20  21
BRANCH  20  23
ATOM     23  C   UNL d   1      25.460 -13.731  -3.397  0.00  0.00     0.185 C 
ATOM     24  O   UNL d   1      24.780 -14.075  -4.320  0.00  0.00    -0.292 OA
BRANCH  23  25
ATOM     25  C   UNL d   1      25.986 -11.872  -3.649  0.00  0.00     0.260 C 
BRANCH  25  26
ATOM     26  O   UNL d   1      25.494 -10.579  -2.984  0.00  0.00    -0.314 OA
BRANCH  26  27
ATOM     27  C   UNL d   1      26.393  -9.735  -2.299  0.00  0.00     0.259 C 
ATOM     28  O   UNL d   1      27.549  -9.996  -1.953  0.00  0.00    -0.265 OA
BRANCH  27  29
ATOM     29  C   UNL d   1      25.839  -8.433  -1.844  0.00  0.00     0.120 C 
BRANCH  29  30
ATOM     30  C   UNL d   1      26.731  -7.865  -0.708  0.00  0.00     0.112 C 
BRANCH  30  31
ATOM     31  C   UNL d   1      26.275  -8.463   0.586  0.00  0.00     0.217 C 
ATOM     32  O   UNL d   1      25.517  -7.881   1.354  0.00  0.00    -0.274 OA
ATOM     33  N   UNL d   1      26.759  -9.721   0.854  0.00  0.00    -0.361 N 
ATOM     34  H   UNL d   1      27.374 -10.185   0.194  0.00  0.00     0.162 HD
BRANCH  33  35
ATOM     35  C   UNL d   1      26.338 -10.343   2.084  0.00  0.00     0.124 C 
BRANCH  35  36
ATOM     36  C   UNL d   1      26.910 -11.729   2.238  0.00  0.00     0.040 C 
BRANCH  36  37
ATOM     37  C   UNL d   1      28.122 -11.728   3.160  0.00  0.00     0.130 C 
BRANCH  37  38
ATOM     38  N   UNL d   1      28.232 -13.010   3.873  0.00  0.00    -0.352 N 
ATOM     39  C   UNL d   1      28.114 -13.203   5.247  0.00  0.00     0.108 A 
ATOM     40  C   UNL d   1      28.155 -14.547   5.466  0.00  0.00     0.106 A 
ATOM     41  N   UNL d   1      28.359 -15.128   4.238  0.00  0.00    -0.361 N 
ATOM     42  C   UNL d   1      28.434 -14.198   3.280  0.00  0.00     0.182 A 
ATOM     43  H   UNL d   1      28.443 -16.128   4.071  0.00  0.00     0.166 HD
ENDBRANCH  37  38
ENDBRANCH  36  37
ENDBRANCH  35  36
ENDBRANCH  33  35
ENDBRANCH  30  31
ENDBRANCH  29  30
ENDBRANCH  27  29
ENDBRANCH  26  27
ENDBRANCH  25  26
ENDBRANCH  23  25
ENDBRANCH  20  23
TORSDOF 12
ENDMDL
MODEL 3
REMARK VINA RESULT:    -6.635      4.246      6.972
REMARK INTER + INTRA:         -14.010
REMARK INTER:                 -10.215
REMARK INTRA:                  -3.795
REMARK CONF_INDEPENDENT:        3.580
REMARK UNBOUND:                -3.795
REMARK  12 active torsions:
REMARK  status: ('A' for Active; 'I' for Inactive)
REMARK    1  A    between atoms: C_20  and  O_21 
REMARK    2  A    between atoms: C_20  and  C_22 
REMARK    3  A    between atoms: C_22  and  C_24 
REMARK    4  A    between atoms: C_24  and  O_25 
REMARK    5  A    between atoms: O_25  and  C_26 
REMARK    6  A    between atoms: C_26  and  C_28 
REMARK    7  A    between atoms: C_28  and  C_29 
REMARK    8  A    between atoms: C_29  and  C_30 
REMARK       I    between atoms: C_30  and  N_32 
REMARK    9  A    between atoms: N_32  and  C_33 
REMARK   10  A    between atoms: C_33  and  C_34 
REMARK   11  A    between atoms: C_34  and  C_35 
REMARK   12  A    between atoms: C_35  and  N_36 
ROOT
ATOM      1  C   UNL d   1      26.651 -14.088   0.761  0.00  0.00     0.016 C 
ATOM      2  C   UNL d   1      26.547 -15.016  -0.445  0.00  0.00    -0.030 C 
ATOM      3  C   UNL d   1      27.823 -15.429  -1.064  0.00  0.00     0.017 C 
ATOM      4  C   UNL d   1      28.040 -16.648  -1.927  0.00  0.00     0.079 C 
ATOM      5  C   UNL d   1      28.603 -17.452  -0.893  0.00  0.00     0.132 C 
ATOM      6  O   UNL d   1      29.823 -17.635  -0.898  0.00  0.00    -0.298 OA
ATOM      7  C   UNL d   1      27.407 -17.363   0.316  0.00  0.00     0.077 C 
ATOM      8  C   UNL d   1      26.323 -16.555  -0.115  0.00  0.00    -0.013 C 
ATOM      9  C   UNL d   1      25.603 -17.199  -1.263  0.00  0.00     0.012 C 
ATOM     10  C   UNL d   1      24.932 -16.252  -2.280  0.00  0.00     0.006 C 
ATOM     11  C   UNL d   1      25.539 -14.827  -2.728  0.00  0.00    -0.005 C 
ATOM     12  C   UNL d   1      25.906 -14.040  -1.501  0.00  0.00    -0.001 C 
ATOM     13  C   UNL d   1      26.719 -12.701  -1.906  0.00  0.00     0.007 C 
ATOM     14  C   UNL d   1      28.105 -12.823  -2.522  0.00  0.00     0.013 C 
ATOM     15  C   UNL d   1      28.154 -13.963  -3.541  0.00  0.00    -0.002 C 
ATOM     16  C   UNL d   1      28.420 -13.049  -4.795  0.00  0.00     0.019 C 
ATOM     17  C   UNL d   1      26.762 -14.911  -3.642  0.00  0.00     0.002 C 
ATOM     18  C   UNL d   1      26.736 -15.201  -5.065  0.00  0.00     0.009 C 
ATOM     19  C   UNL d   1      28.375 -15.549  -5.041  0.00  0.00     0.047 C 
ATOM     20  C   UNL d   1      29.482 -14.859  -3.612  0.00  0.00     0.128 C 
ENDROOT
BRANCH  20  21
ATOM     21  O   UNL d   1      29.891 -16.337  -3.752  0.00  0.00    -0.381 OA
ATOM     22  H   UNL d   1      30.086 -16.809  -2.921  0.00  0.00     0.211 HD
ENDBRANCH  20  21
BRANCH  20  23
ATOM     23  C   UNL d   1      30.298 -14.772  -1.760  0.00  0.00     0.185 C 
ATOM     24  O   UNL d   1      31.130 -15.600  -1.526  0.00  0.00    -0.292 OA
BRANCH  23  25
ATOM     25  C   UNL d   1      30.094 -13.615  -0.207  0.00  0.00     0.260 C 
BRANCH  25  26
ATOM     26  O   UNL d   1      29.495 -12.209  -0.059  0.00  0.00    -0.314 OA
BRANCH  26  27
ATOM     27  C   UNL d   1      28.779 -11.849   1.101  0.00  0.00     0.259 C 
ATOM     28  O   UNL d   1      28.715 -12.473   2.165  0.00  0.00    -0.265 OA
BRANCH  27  29
ATOM     29  C   UNL d   1      27.916 -10.644   0.981  0.00  0.00     0.120 C 
BRANCH  29  30
ATOM     30  C   UNL d   1      26.731 -10.763   1.976  0.00  0.00     0.112 C 
BRANCH  30  31
ATOM     31  C   UNL d   1      27.099 -10.034   3.230  0.00  0.00     0.217 C 
ATOM     32  O   UNL d   1      26.511  -9.026   3.606  0.00  0.00    -0.274 OA
ATOM     33  N   UNL d   1      28.141 -10.578   3.941  0.00  0.00    -0.361 N 
ATOM     34  H   UNL d   1      28.601 -11.420   3.613  0.00  0.00     0.162 HD
BRANCH  33  35
ATOM     35  C   UNL d   1      28.524  -9.917   5.162  0.00  0.00     0.124 C 
BRANCH  35  36
ATOM     36  C   UNL d   1      28.758 -10.897   6.284  0.00  0.00     0.040 C 
BRANCH  36  37
ATOM     37  C   UNL d   1      27.778 -12.060   6.215  0.00  0.00     0.130 C 
BRANCH  37  38
ATOM     38  N   UNL d   1      28.409 -13.233   5.590  0.00  0.00    -0.352 N 
ATOM     39  C   UNL d   1      29.739 -13.625   5.727  0.00  0.00     0.108 A 
ATOM     40  C   UNL d   1      29.868 -14.823   5.091  0.00  0.00     0.106 A 
ATOM     41  N   UNL d   1      28.642 -15.096   4.536  0.00  0.00    -0.361 N 
ATOM     42  C   UNL d   1      27.768 -14.123   4.814  0.00  0.00     0.182 A 
ATOM     43  H   UNL d   1      28.419 -15.923   3.987  0.00  0.00     0.166 HD
ENDBRANCH  37  38
ENDBRANCH  36  37
ENDBRANCH  35  36
ENDBRANCH  33  35
ENDBRANCH  30  31
ENDBRANCH  29  30
ENDBRANCH  27  29
ENDBRANCH  26  27
ENDBRANCH  25  26
ENDBRANCH  23  25
ENDBRANCH  20  23
TORSDOF 12
ENDMDL
MODEL 4
REMARK VINA RESULT:    -6.414      3.938      7.061
REMARK INTER + INTRA:         -14.012
REMARK INTER:                  -9.994
REMARK INTRA:                  -4.018
REMARK CONF_INDEPENDENT:        3.580
REMARK UNBOUND:                -4.018
REMARK  12 active torsions:
REMARK  status: ('A' for Active; 'I' for Inactive)
REMARK    1  A    between atoms: C_20  and  O_21 
REMARK    2  A    between atoms: C_20  and  C_22 
REMARK    3  A    between atoms: C_22  and  C_24 
REMARK    4  A    between atoms: C_24  and  O_25 
REMARK    5  A    between atoms: O_25  and  C_26 
REMARK    6  A    between atoms: C_26  and  C_28 
REMARK    7  A    between atoms: C_28  and  C_29 
REMARK    8  A    between atoms: C_29  and  C_30 
REMARK       I    between atoms: C_30  and  N_32 
REMARK    9  A    between atoms: N_32  and  C_33 
REMARK   10  A    between atoms: C_33  and  C_34 
REMARK   11  A    between atoms: C_34  and  C_35 
REMARK   12  A    between atoms: C_35  and  N_36 
ROOT
ATOM      1  C   UNL d   1      29.571 -13.925   0.408  0.00  0.00     0.016 C 
ATOM      2  C   UNL d   1      28.863 -15.079  -0.295  0.00  0.00    -0.030 C 
ATOM      3  C   UNL d   1      28.825 -15.022  -1.770  0.00  0.00     0.017 C 
ATOM      4  C   UNL d   1      28.618 -16.191  -2.701  0.00  0.00     0.079 C 
ATOM      5  C   UNL d   1      29.997 -16.359  -3.022  0.00  0.00     0.132 C 
ATOM      6  O   UNL d   1      30.388 -15.970  -4.126  0.00  0.00    -0.298 OA
ATOM      7  C   UNL d   1      30.704 -16.504  -1.480  0.00  0.00     0.077 C 
ATOM      8  C   UNL d   1      29.714 -16.410  -0.467  0.00  0.00    -0.013 C 
ATOM      9  C   UNL d   1      28.779 -17.582  -0.527  0.00  0.00     0.012 C 
ATOM     10  C   UNL d   1      27.328 -17.336  -0.061  0.00  0.00     0.006 C 
ATOM     11  C   UNL d   1      26.521 -15.961  -0.300  0.00  0.00    -0.005 C 
ATOM     12  C   UNL d   1      27.374 -14.805   0.140  0.00  0.00    -0.001 C 
ATOM     13  C   UNL d   1      26.693 -13.400  -0.286  0.00  0.00     0.007 C 
ATOM     14  C   UNL d   1      26.568 -13.044  -1.761  0.00  0.00     0.013 C 
ATOM     15  C   UNL d   1      26.149 -14.262  -2.586  0.00  0.00    -0.002 C 
ATOM     16  C   UNL d   1      24.752 -13.686  -3.027  0.00  0.00     0.019 C 
ATOM     17  C   UNL d   1      26.077 -15.723  -1.744  0.00  0.00     0.002 C 
ATOM     18  C   UNL d   1      24.941 -16.351  -2.395  0.00  0.00     0.009 C 
ATOM     19  C   UNL d   1      25.535 -15.910  -3.898  0.00  0.00     0.047 C 
ATOM     20  C   UNL d   1      26.800 -14.453  -4.039  0.00  0.00     0.128 C 
ENDROOT
BRANCH  20  21
ATOM     21  O   UNL d   1      27.383 -15.570  -4.924  0.00  0.00    -0.381 OA
ATOM     22  H   UNL d   1      28.354 -15.658  -4.920  0.00  0.00     0.211 HD
ENDBRANCH  20  21
BRANCH  20  23
ATOM     23  C   UNL d   1      28.603 -13.532  -3.955  0.00  0.00     0.185 C 
ATOM     24  O   UNL d   1      29.372 -13.829  -4.822  0.00  0.00    -0.292 OA
BRANCH  23  25
ATOM     25  C   UNL d   1      29.429 -12.202  -2.795  0.00  0.00     0.260 C 
BRANCH  25  26
ATOM     26  O   UNL d   1      29.005 -10.774  -2.426  0.00  0.00    -0.314 OA
BRANCH  26  27
ATOM     27  C   UNL d   1      28.428 -10.496  -1.168  0.00  0.00     0.259 C 
ATOM     28  O   UNL d   1      28.896 -10.757  -0.056  0.00  0.00    -0.265 OA
BRANCH  27  29
ATOM     29  C   UNL d   1      27.052  -9.935  -1.199  0.00  0.00     0.120 C 
BRANCH  29  30
ATOM     30  C   UNL d   1      27.057  -8.532  -0.535  0.00  0.00     0.112 C 
BRANCH  30  31
ATOM     31  C   UNL d   1      26.513  -8.669   0.851  0.00  0.00     0.217 C 
ATOM     32  O   UNL d   1      25.537  -8.041   1.244  0.00  0.00    -0.274 OA
ATOM     33  N   UNL d   1      27.180  -9.558   1.659  0.00  0.00    -0.361 N 
ATOM     34  H   UNL d   1      27.977 -10.075   1.303  0.00  0.00     0.162 HD
BRANCH  33  35
ATOM     35  C   UNL d   1      26.685  -9.733   3.000  0.00  0.00     0.124 C 
BRANCH  35  36
ATOM     36  C   UNL d   1      27.398 -10.847   3.723  0.00  0.00     0.040 C 
BRANCH  36  37
ATOM     37  C   UNL d   1      27.108 -12.198   3.083  0.00  0.00     0.130 C 
BRANCH  37  38
ATOM     38  N   UNL d   1      27.709 -13.284   3.871  0.00  0.00    -0.352 N 
ATOM     39  C   UNL d   1      27.524 -13.516   5.232  0.00  0.00     0.108 A 
ATOM     40  C   UNL d   1      28.154 -14.688   5.526  0.00  0.00     0.106 A 
ATOM     41  N   UNL d   1      28.754 -15.102   4.362  0.00  0.00    -0.361 N 
ATOM     42  C   UNL d   1      28.509 -14.240   3.369  0.00  0.00     0.182 A 
ATOM     43  H   UNL d   1      29.311 -15.947   4.259  0.00  0.00     0.166 HD
ENDBRANCH  37  38
ENDBRANCH  36  37
ENDBRANCH  35  36
ENDBRANCH  33  35
ENDBRANCH  30  31
ENDBRANCH  29  30
ENDBRANCH  27  29
ENDBRANCH  26  27
ENDBRANCH  25  26
ENDBRANCH  23  25
ENDBRANCH  20  23
TORSDOF 12
ENDMDL
MODEL 5
REMARK VINA RESULT:    -6.333      4.093      8.464
REMARK INTER + INTRA:         -14.210
REMARK INTER:                  -9.913
REMARK INTRA:                  -4.297
REMARK CONF_INDEPENDENT:        3.580
REMARK UNBOUND:                -4.297
REMARK  12 active torsions:
REMARK  status: ('A' for Active; 'I' for Inactive)
REMARK    1  A    between atoms: C_20  and  O_21 
REMARK    2  A    between atoms: C_20  and  C_22 
REMARK    3  A    between atoms: C_22  and  C_24 
REMARK    4  A    between atoms: C_24  and  O_25 
REMARK    5  A    between atoms: O_25  and  C_26 
REMARK    6  A    between atoms: C_26  and  C_28 
REMARK    7  A    between atoms: C_28  and  C_29 
REMARK    8  A    between atoms: C_29  and  C_30 
REMARK       I    between atoms: C_30  and  N_32 
REMARK    9  A    between atoms: N_32  and  C_33 
REMARK   10  A    between atoms: C_33  and  C_34 
REMARK   11  A    between atoms: C_34  and  C_35 
REMARK   12  A    between atoms: C_35  and  N_36 
ROOT
ATOM      1  C   UNL d   1      29.522 -11.998  -3.395  0.00  0.00     0.016 C 
ATOM      2  C   UNL d   1      29.371 -13.509  -3.255  0.00  0.00    -0.030 C 
ATOM      3  C   UNL d   1      28.045 -14.068  -3.585  0.00  0.00     0.017 C 
ATOM      4  C   UNL d   1      27.751 -15.496  -3.972  0.00  0.00     0.079 C 
ATOM      5  C   UNL d   1      27.686 -15.250  -5.374  0.00  0.00     0.132 C 
ATOM      6  O   UNL d   1      26.574 -15.222  -5.909  0.00  0.00    -0.298 OA
ATOM      7  C   UNL d   1      29.180 -14.489  -5.670  0.00  0.00     0.077 C 
ATOM      8  C   UNL d   1      29.927 -14.374  -4.468  0.00  0.00    -0.013 C 
ATOM      9  C   UNL d   1      30.326 -15.727  -3.958  0.00  0.00     0.012 C 
ATOM     10  C   UNL d   1      30.475 -15.877  -2.429  0.00  0.00     0.006 C 
ATOM     11  C   UNL d   1      29.542 -15.124  -1.350  0.00  0.00    -0.005 C 
ATOM     12  C   UNL d   1      29.475 -13.661  -1.691  0.00  0.00    -0.001 C 
ATOM     13  C   UNL d   1      28.376 -12.912  -0.769  0.00  0.00     0.007 C 
ATOM     14  C   UNL d   1      26.902 -13.252  -0.933  0.00  0.00     0.013 C 
ATOM     15  C   UNL d   1      26.704 -14.759  -1.110  0.00  0.00    -0.002 C 
ATOM     16  C   UNL d   1      25.906 -14.976   0.230  0.00  0.00     0.019 C 
ATOM     17  C   UNL d   1      28.117 -15.670  -1.246  0.00  0.00     0.002 C 
ATOM     18  C   UNL d   1      27.724 -16.881  -0.548  0.00  0.00     0.009 C 
ATOM     19  C   UNL d   1      26.256 -16.892  -1.357  0.00  0.00     0.047 C 
ATOM     20  C   UNL d   1      25.580 -15.258  -2.141  0.00  0.00     0.128 C 
ENDROOT
BRANCH  20  21
ATOM     21  O   UNL d   1      25.383 -16.330  -3.228  0.00  0.00    -0.381 OA
ATOM     22  H   UNL d   1      25.509 -16.035  -4.149  0.00  0.00     0.211 HD
ENDBRANCH  20  21
BRANCH  20  23
ATOM     23  C   UNL d   1      25.407 -13.781  -3.517  0.00  0.00     0.185 C 
ATOM     24  O   UNL d   1      24.780 -14.063  -4.496  0.00  0.00    -0.292 OA
BRANCH  23  25
ATOM     25  C   UNL d   1      25.992 -11.927  -3.643  0.00  0.00     0.260 C 
BRANCH  25  26
ATOM     26  O   UNL d   1      25.213 -10.608  -3.559  0.00  0.00    -0.314 OA
BRANCH  26  27
ATOM     27  C   UNL d   1      25.842  -9.426  -3.114  0.00  0.00     0.259 C 
ATOM     28  O   UNL d   1      26.745  -9.328  -2.277  0.00  0.00    -0.265 OA
BRANCH  27  29
ATOM     29  C   UNL d   1      25.270  -8.155  -3.630  0.00  0.00     0.120 C 
BRANCH  29  30
ATOM     30  C   UNL d   1      24.406  -8.455  -4.884  0.00  0.00     0.112 C 
BRANCH  30  31
ATOM     31  C   UNL d   1      25.318  -8.892  -5.986  0.00  0.00     0.217 C 
ATOM     32  O   UNL d   1      26.003  -8.105  -6.630  0.00  0.00    -0.274 OA
ATOM     33  N   UNL d   1      25.346 -10.245  -6.224  0.00  0.00    -0.361 N 
ATOM     34  H   UNL d   1      24.779 -10.875  -5.666  0.00  0.00     0.162 HD
BRANCH  33  35
ATOM     35  C   UNL d   1      26.219 -10.715  -7.268  0.00  0.00     0.124 C 
BRANCH  35  36
ATOM     36  C   UNL d   1      27.125 -11.822  -6.790  0.00  0.00     0.040 C 
BRANCH  36  37
ATOM     37  C   UNL d   1      28.487 -11.281  -6.376  0.00  0.00     0.130 C 
BRANCH  37  38
ATOM     38  N   UNL d   1      29.526 -11.716  -7.322  0.00  0.00    -0.352 N 
ATOM     39  C   UNL d   1      30.884 -11.417  -7.250  0.00  0.00     0.108 A 
ATOM     40  C   UNL d   1      31.499 -12.117  -8.245  0.00  0.00     0.106 A 
ATOM     41  N   UNL d   1      30.501 -12.768  -8.927  0.00  0.00    -0.361 N 
ATOM     42  C   UNL d   1      29.307 -12.503  -8.388  0.00  0.00     0.182 A 
ATOM     43  H   UNL d   1      30.642 -13.371  -9.735  0.00  0.00     0.166 HD
ENDBRANCH  37  38
ENDBRANCH  36  37
ENDBRANCH  35  36
ENDBRANCH  33  35
ENDBRANCH  30  31
ENDBRANCH  29  30
ENDBRANCH  27  29
ENDBRANCH  26  27
ENDBRANCH  25  26
ENDBRANCH  23  25
ENDBRANCH  20  23
TORSDOF 12
ENDMDL
MODEL 6
REMARK VINA RESULT:    -5.684      4.092      6.828
REMARK INTER + INTRA:         -14.207
REMARK INTER:                  -9.263
REMARK INTRA:                  -4.944
REMARK CONF_INDEPENDENT:        3.580
REMARK UNBOUND:                -4.944
REMARK  12 active torsions:
REMARK  status: ('A' for Active; 'I' for Inactive)
REMARK    1  A    between atoms: C_20  and  O_21 
REMARK    2  A    between atoms: C_20  and  C_22 
REMARK    3  A    between atoms: C_22  and  C_24 
REMARK    4  A    between atoms: C_24  and  O_25 
REMARK    5  A    between atoms: O_25  and  C_26 
REMARK    6  A    between atoms: C_26  and  C_28 
REMARK    7  A    between atoms: C_28  and  C_29 
REMARK    8  A    between atoms: C_29  and  C_30 
REMARK       I    between atoms: C_30  and  N_32 
REMARK    9  A    between atoms: N_32  and  C_33 
REMARK   10  A    between atoms: C_33  and  C_34 
REMARK   11  A    between atoms: C_34  and  C_35 
REMARK   12  A    between atoms: C_35  and  N_36 
ROOT
ATOM      1  C   UNL d   1      29.341 -13.577  -4.529  0.00  0.00     0.016 C 
ATOM      2  C   UNL d   1      27.923 -13.711  -3.986  0.00  0.00    -0.030 C 
ATOM      3  C   UNL d   1      27.754 -13.489  -2.536  0.00  0.00     0.017 C 
ATOM      4  C   UNL d   1      26.472 -13.111  -1.836  0.00  0.00     0.079 C 
ATOM      5  C   UNL d   1      26.775 -11.722  -1.730  0.00  0.00     0.132 C 
ATOM      6  O   UNL d   1      27.120 -11.286  -0.629  0.00  0.00    -0.298 OA
ATOM      7  C   UNL d   1      27.116 -11.310  -3.346  0.00  0.00     0.077 C 
ATOM      8  C   UNL d   1      26.984 -12.444  -4.188  0.00  0.00    -0.013 C 
ATOM      9  C   UNL d   1      25.556 -12.901  -4.245  0.00  0.00     0.012 C 
ATOM     10  C   UNL d   1      25.318 -14.410  -4.468  0.00  0.00     0.006 C 
ATOM     11  C   UNL d   1      26.256 -15.574  -3.862  0.00  0.00    -0.005 C 
ATOM     12  C   UNL d   1      27.693 -15.258  -4.168  0.00  0.00    -0.001 C 
ATOM     13  C   UNL d   1      28.678 -16.280  -3.390  0.00  0.00     0.007 C 
ATOM     14  C   UNL d   1      28.753 -16.239  -1.870  0.00  0.00     0.013 C 
ATOM     15  C   UNL d   1      27.362 -16.061  -1.258  0.00  0.00    -0.002 C 
ATOM     16  C   UNL d   1      27.321 -17.461  -0.539  0.00  0.00     0.019 C 
ATOM     17  C   UNL d   1      26.110 -15.793  -2.356  0.00  0.00     0.002 C 
ATOM     18  C   UNL d   1      25.026 -16.507  -1.706  0.00  0.00     0.009 C 
ATOM     19  C   UNL d   1      25.438 -15.827  -0.231  0.00  0.00     0.047 C 
ATOM     20  C   UNL d   1      27.220 -15.124   0.037  0.00  0.00     0.128 C 
ENDROOT
BRANCH  20  21
ATOM     21  O   UNL d   1      26.280 -14.044   0.603  0.00  0.00    -0.381 OA
ATOM     22  H   UNL d   1      26.546 -13.119   0.446  0.00  0.00     0.211 HD
ENDBRANCH  20  21
BRANCH  20  23
ATOM     23  C   UNL d   1      28.737 -13.786  -0.089  0.00  0.00     0.185 C 
ATOM     24  O   UNL d   1      28.600 -12.792   0.563  0.00  0.00    -0.292 OA
BRANCH  23  25
ATOM     25  C   UNL d   1      30.453 -13.717  -1.008  0.00  0.00     0.260 C 
BRANCH  25  26
ATOM     26  O   UNL d   1      31.837 -14.255  -0.618  0.00  0.00    -0.314 OA
BRANCH  26  27
ATOM     27  C   UNL d   1      31.976 -15.196   0.424  0.00  0.00     0.259 C 
ATOM     28  O   UNL d   1      32.673 -16.215   0.423  0.00  0.00    -0.265 OA
BRANCH  27  29
ATOM     29  C   UNL d   1      31.093 -14.992   1.602  0.00  0.00     0.120 C 
BRANCH  29  30
ATOM     30  C   UNL d   1      31.479 -13.663   2.306  0.00  0.00     0.112 C 
BRANCH  30  31
ATOM     31  C   UNL d   1      30.772 -13.611   3.623  0.00  0.00     0.217 C 
ATOM     32  O   UNL d   1      30.544 -12.560   4.211  0.00  0.00    -0.274 OA
ATOM     33  N   UNL d   1      30.386 -14.828   4.131  0.00  0.00    -0.361 N 
ATOM     34  H   UNL d   1      30.576 -15.681   3.617  0.00  0.00     0.162 HD
BRANCH  33  35
ATOM     35  C   UNL d   1      29.691 -14.827   5.393  0.00  0.00     0.124 C 
BRANCH  35  36
ATOM     36  C   UNL d   1      28.206 -14.636   5.218  0.00  0.00     0.040 C 
BRANCH  36  37
ATOM     37  C   UNL d   1      27.783 -13.219   5.584  0.00  0.00     0.130 C 
BRANCH  37  38
ATOM     38  N   UNL d   1      27.508 -12.432   4.373  0.00  0.00    -0.352 N 
ATOM     39  C   UNL d   1      27.725 -11.066   4.210  0.00  0.00     0.108 A 
ATOM     40  C   UNL d   1      27.456 -10.772   2.906  0.00  0.00     0.106 A 
ATOM     41  N   UNL d   1      27.026 -11.944   2.332  0.00  0.00    -0.361 N 
ATOM     42  C   UNL d   1      27.030 -12.939   3.224  0.00  0.00     0.182 A 
ATOM     43  H   UNL d   1      26.741 -12.048   1.361  0.00  0.00     0.166 HD
ENDBRANCH  37  38
ENDBRANCH  36  37
ENDBRANCH  35  36
ENDBRANCH  33  35
ENDBRANCH  30  31
ENDBRANCH  29  30
ENDBRANCH  27  29
ENDBRANCH  26  27
ENDBRANCH  25  26
ENDBRANCH  23  25
ENDBRANCH  20  23
TORSDOF 12
ENDMDL
