MODEL 1
REMARK VINA RESULT:   -11.997      0.000      0.000
REMARK INTER + INTRA:         -17.937
REMARK INTER:                 -15.577
REMARK INTRA:                  -2.361
REMARK CONF_INDEPENDENT:        3.580
REMARK UNBOUND:                -2.361
REMARK  12 active torsions:
REMARK  status: ('A' for Active; 'I' for Inactive)
REMARK    1  A    between atoms: C_2  and  C_3 
REMARK    2  A    between atoms: C_3  and  C_4 
REMARK    3  A    between atoms: C_4  and  O_5 
REMARK    4  A    between atoms: O_5  and  C_6 
REMARK    5  A    between atoms: C_6  and  C_8 
REMARK    6  A    between atoms: C_11  and  N_12 
REMARK    7  A    between atoms: N_12  and  N_13 
REMARK    8  A    between atoms: N_13  and  C_14 
REMARK    9  A    between atoms: C_18  and  C_19 
REMARK   10  A    between atoms: C_19  and  C_20 
REMARK   11  A    between atoms: N_28  and  C_29 
REMARK   12  A    between atoms: C_29  and  C_30 
ROOT
ATOM      1  C   UNL d   1      28.457 -16.704  -1.591  0.00  0.00     0.720 C 
ATOM      2  N   UNL d   1      29.720 -17.053  -1.630  0.00  0.00    -0.068 NA
ATOM      3  C   UNL d   1      30.438 -16.958  -2.796  0.00  0.00     0.061 C 
ATOM      4  C   UNL d   1      31.847 -17.495  -2.732  0.00  0.00     0.072 C 
ATOM      5  C   UNL d   1      29.952 -16.494  -3.959  0.00  0.00     0.040 C 
ATOM      6  C   UNL d   1      28.542 -16.068  -3.926  0.00  0.00     0.270 C 
ATOM      7  O   UNL d   1      27.960 -15.656  -4.933  0.00  0.00    -0.267 OA
ATOM      8  N   UNL d   1      27.872 -16.125  -2.718  0.00  0.00    -0.140 N 
ENDROOT
BRANCH   1   9
ATOM      9  N   UNL d   1      27.861 -16.782  -0.326  0.00  0.00    -0.147 N 
ATOM     10  H   UNL d   1      28.375 -17.392   0.299  0.00  0.00     0.200 HD
BRANCH   9  11
ATOM     11  N   UNL d   1      26.645 -16.295   0.156  0.00  0.00    -0.191 NA
ATOM     12  H   UNL d   1      26.665 -16.181   1.171  0.00  0.00     0.153 HD
BRANCH  11  13
ATOM     13  C   UNL d   1      25.368 -16.865  -0.218  0.00  0.00     0.028 C 
ATOM     14  C   UNL d   1      24.353 -16.045  -0.748  0.00  0.00     0.026 C 
ATOM     15  C   UNL d   1      23.012 -16.507  -0.896  0.00  0.00     0.019 C 
ATOM     16  C   UNL d   1      22.687 -17.849  -0.681  0.00  0.00     0.039 C 
ATOM     17  C   UNL d   1      23.711 -18.698  -0.258  0.00  0.00     0.019 C 
ATOM     18  C   UNL d   1      25.025 -18.213  -0.030  0.00  0.00     0.026 C 
BRANCH  16  19
ATOM     19  C   UNL d   1      21.310 -18.348  -0.961  0.00  0.00     0.293 C 
ATOM     20  O   UNL d   1      20.391 -17.579  -1.275  0.00  0.00    -0.259 OA
BRANCH  19  21
ATOM     21  O   UNL d   1      21.199 -19.701  -0.879  0.00  0.00    -0.318 OA
BRANCH  21  22
ATOM     22  C   UNL d   1      19.955 -20.154  -0.297  0.00  0.00     0.179 C 
BRANCH  22  23
ATOM     23  C   UNL d   1      19.764 -19.573   1.108  0.00  0.00     0.026 C 
BRANCH  23  24
ATOM     24  C   UNL d   1      18.876 -20.470   1.978  0.00  0.00    -0.002 C 
ATOM     25  C   UNL d   1      18.008 -21.393   1.134  0.00  0.00     0.005 C 
ENDBRANCH  23  24
ENDBRANCH  22  23
ENDBRANCH  21  22
ENDBRANCH  19  21
ENDBRANCH  16  19
ENDBRANCH  11  13
ENDBRANCH   9  11
ENDBRANCH   1   9
BRANCH   8  26
ATOM     26  C   UNL d   1      26.635 -15.363  -2.840  0.00  0.00     0.190 C 
BRANCH  26  27
ATOM     27  C   UNL d   1      26.709 -13.895  -3.007  0.00  0.00    -0.033 A 
ATOM     28  C   UNL d   1      26.241 -13.377  -4.236  0.00  0.00     0.016 A 
ATOM     29  C   UNL d   1      26.324 -12.021  -4.501  0.00  0.00    -0.061 A 
ATOM     30  C   UNL d   1      25.749 -11.465  -5.776  0.00  0.00     0.048 C 
ATOM     31  C   UNL d   1      26.816 -11.194  -3.480  0.00  0.00     0.007 A 
ATOM     32  C   UNL d   1      27.186 -11.701  -2.222  0.00  0.00     0.008 A 
ATOM     33  C   UNL d   1      27.182 -13.064  -1.972  0.00  0.00    -0.054 A 
ATOM     34  C   UNL d   1      27.570 -13.557  -0.595  0.00  0.00     0.049 C 
ENDBRANCH  26  27
ENDBRANCH   8  26
BRANCH   5  35
ATOM     35  C   UNL d   1      30.781 -16.455  -5.225  0.00  0.00     0.084 C 
BRANCH  35  36
ATOM     36  C   UNL d   1      30.870 -17.717  -6.040  0.00  0.00    -0.054 A 
ATOM     37  C   UNL d   1      30.635 -18.964  -5.447  0.00  0.00     0.007 A 
ATOM     38  C   UNL d   1      30.631 -20.113  -6.231  0.00  0.00     0.001 A 
ATOM     39  C   UNL d   1      30.752 -20.014  -7.618  0.00  0.00     0.000 A 
ATOM     40  C   UNL d   1      30.963 -18.775  -8.218  0.00  0.00     0.001 A 
ATOM     41  C   UNL d   1      31.081 -17.639  -7.427  0.00  0.00     0.007 A 
ENDBRANCH  35  36
ENDBRANCH   5  35
TORSDOF 12
ENDMDL
MODEL 2
REMARK VINA RESULT:   -11.686      0.701      1.937
REMARK INTER + INTRA:         -17.881
REMARK INTER:                 -15.266
REMARK INTRA:                  -2.615
REMARK CONF_INDEPENDENT:        3.580
REMARK UNBOUND:                -2.615
REMARK  12 active torsions:
REMARK  status: ('A' for Active; 'I' for Inactive)
REMARK    1  A    between atoms: C_2  and  C_3 
REMARK    2  A    between atoms: C_3  and  C_4 
REMARK    3  A    between atoms: C_4  and  O_5 
REMARK    4  A    between atoms: O_5  and  C_6 
REMARK    5  A    between atoms: C_6  and  C_8 
REMARK    6  A    between atoms: C_11  and  N_12 
REMARK    7  A    between atoms: N_12  and  N_13 
REMARK    8  A    between atoms: N_13  and  C_14 
REMARK    9  A    between atoms: C_18  and  C_19 
REMARK   10  A    between atoms: C_19  and  C_20 
REMARK   11  A    between atoms: N_28  and  C_29 
REMARK   12  A    between atoms: C_29  and  C_30 
ROOT
ATOM      1  C   UNL d   1      28.785 -17.042  -1.689  0.00  0.00     0.720 C 
ATOM      2  N   UNL d   1      30.052 -17.366  -1.782  0.00  0.00    -0.068 NA
ATOM      3  C   UNL d   1      30.736 -17.190  -2.959  0.00  0.00     0.061 C 
ATOM      4  C   UNL d   1      32.155 -17.705  -2.966  0.00  0.00     0.072 C 
ATOM      5  C   UNL d   1      30.211 -16.667  -4.080  0.00  0.00     0.040 C 
ATOM      6  C   UNL d   1      28.796 -16.267  -3.984  0.00  0.00     0.270 C 
ATOM      7  O   UNL d   1      28.180 -15.807  -4.948  0.00  0.00    -0.267 OA
ATOM      8  N   UNL d   1      28.160 -16.408  -2.764  0.00  0.00    -0.140 N 
ENDROOT
BRANCH   1   9
ATOM      9  N   UNL d   1      28.226 -17.205  -0.415  0.00  0.00    -0.147 N 
ATOM     10  H   UNL d   1      28.591 -18.024   0.058  0.00  0.00     0.200 HD
BRANCH   9  11
ATOM     11  N   UNL d   1      27.182 -16.539   0.229  0.00  0.00    -0.191 NA
ATOM     12  H   UNL d   1      27.358 -16.453   1.232  0.00  0.00     0.153 HD
BRANCH  11  13
ATOM     13  C   UNL d   1      25.790 -16.886   0.035  0.00  0.00     0.028 C 
ATOM     14  C   UNL d   1      25.348 -18.202   0.269  0.00  0.00     0.026 C 
ATOM     15  C   UNL d   1      24.056 -18.647  -0.143  0.00  0.00     0.019 C 
ATOM     16  C   UNL d   1      23.112 -17.745  -0.641  0.00  0.00     0.039 C 
ATOM     17  C   UNL d   1      23.505 -16.414  -0.776  0.00  0.00     0.019 C 
ATOM     18  C   UNL d   1      24.820 -15.994  -0.446  0.00  0.00     0.026 C 
BRANCH  16  19
ATOM     19  C   UNL d   1      21.724 -18.197  -0.948  0.00  0.00     0.293 C 
ATOM     20  O   UNL d   1      20.836 -17.395  -1.270  0.00  0.00    -0.259 OA
BRANCH  19  21
ATOM     21  O   UNL d   1      21.568 -19.545  -0.878  0.00  0.00    -0.318 OA
BRANCH  21  22
ATOM     22  C   UNL d   1      20.259 -19.963  -0.426  0.00  0.00     0.179 C 
BRANCH  22  23
ATOM     23  C   UNL d   1      20.196 -20.007   1.104  0.00  0.00     0.026 C 
BRANCH  23  24
ATOM     24  C   UNL d   1      18.787 -20.343   1.607  0.00  0.00    -0.002 C 
ATOM     25  C   UNL d   1      18.032 -21.221   0.619  0.00  0.00     0.005 C 
ENDBRANCH  23  24
ENDBRANCH  22  23
ENDBRANCH  21  22
ENDBRANCH  19  21
ENDBRANCH  16  19
ENDBRANCH  11  13
ENDBRANCH   9  11
ENDBRANCH   1   9
BRANCH   8  26
ATOM     26  C   UNL d   1      26.909 -15.661  -2.807  0.00  0.00     0.190 C 
BRANCH  26  27
ATOM     27  C   UNL d   1      26.930 -14.207  -2.539  0.00  0.00    -0.033 A 
ATOM     28  C   UNL d   1      27.696 -13.781  -1.431  0.00  0.00     0.016 A 
ATOM     29  C   UNL d   1      27.727 -12.444  -1.071  0.00  0.00    -0.061 A 
ATOM     30  C   UNL d   1      28.611 -11.987   0.057  0.00  0.00     0.048 C 
ATOM     31  C   UNL d   1      27.033 -11.542  -1.892  0.00  0.00     0.007 A 
ATOM     32  C   UNL d   1      26.354 -11.956  -3.051  0.00  0.00     0.008 A 
ATOM     33  C   UNL d   1      26.251 -13.300  -3.376  0.00  0.00    -0.054 A 
ATOM     34  C   UNL d   1      25.526 -13.691  -4.646  0.00  0.00     0.049 C 
ENDBRANCH  26  27
ENDBRANCH   8  26
BRANCH   5  35
ATOM     35  C   UNL d   1      31.004 -16.538  -5.362  0.00  0.00     0.084 C 
BRANCH  35  36
ATOM     36  C   UNL d   1      30.939 -17.681  -6.340  0.00  0.00    -0.054 A 
ATOM     37  C   UNL d   1      31.503 -17.556  -7.616  0.00  0.00     0.007 A 
ATOM     38  C   UNL d   1      31.515 -18.650  -8.477  0.00  0.00     0.001 A 
ATOM     39  C   UNL d   1      31.066 -19.894  -8.032  0.00  0.00     0.000 A 
ATOM     40  C   UNL d   1      30.525 -20.031  -6.756  0.00  0.00     0.001 A 
ATOM     41  C   UNL d   1      30.406 -18.916  -5.936  0.00  0.00     0.007 A 
ENDBRANCH  35  36
ENDBRANCH   5  35
TORSDOF 12
ENDMDL
MODEL 3
REMARK VINA RESULT:   -11.139      2.613      5.513
REMARK INTER + INTRA:         -17.141
REMARK INTER:                 -14.719
REMARK INTRA:                  -2.422
REMARK CONF_INDEPENDENT:        3.580
REMARK UNBOUND:                -2.422
REMARK  12 active torsions:
REMARK  status: ('A' for Active; 'I' for Inactive)
REMARK    1  A    between atoms: C_2  and  C_3 
REMARK    2  A    between atoms: C_3  and  C_4 
REMARK    3  A    between atoms: C_4  and  O_5 
REMARK    4  A    between atoms: O_5  and  C_6 
REMARK    5  A    between atoms: C_6  and  C_8 
REMARK    6  A    between atoms: C_11  and  N_12 
REMARK    7  A    between atoms: N_12  and  N_13 
REMARK    8  A    between atoms: N_13  and  C_14 
REMARK    9  A    between atoms: C_18  and  C_19 
REMARK   10  A    between atoms: C_19  and  C_20 
REMARK   11  A    between atoms: N_28  and  C_29 
REMARK   12  A    between atoms: C_29  and  C_30 
ROOT
ATOM      1  C   UNL d   1      30.183 -17.582  -1.864  0.00  0.00     0.720 C 
ATOM      2  N   UNL d   1      29.399 -16.935  -2.692  0.00  0.00    -0.068 NA
ATOM      3  C   UNL d   1      29.739 -16.796  -4.015  0.00  0.00     0.061 C 
ATOM      4  C   UNL d   1      28.808 -15.937  -4.834  0.00  0.00     0.072 C 
ATOM      5  C   UNL d   1      30.847 -17.307  -4.579  0.00  0.00     0.040 C 
ATOM      6  C   UNL d   1      31.724 -18.064  -3.669  0.00  0.00     0.270 C 
ATOM      7  O   UNL d   1      32.790 -18.555  -4.047  0.00  0.00    -0.267 OA
ATOM      8  N   UNL d   1      31.316 -18.230  -2.358  0.00  0.00    -0.140 N 
ENDROOT
BRANCH   1   9
ATOM      9  N   UNL d   1      29.685 -17.713  -0.561  0.00  0.00    -0.147 N 
ATOM     10  H   UNL d   1      30.086 -18.510  -0.080  0.00  0.00     0.200 HD
BRANCH   9  11
ATOM     11  N   UNL d   1      28.660 -17.044   0.110  0.00  0.00    -0.191 NA
ATOM     12  H   UNL d   1      28.810 -17.051   1.121  0.00  0.00     0.153 HD
BRANCH  11  13
ATOM     13  C   UNL d   1      27.258 -17.293  -0.150  0.00  0.00     0.028 C 
ATOM     14  C   UNL d   1      26.609 -16.644  -1.218  0.00  0.00     0.026 C 
ATOM     15  C   UNL d   1      25.189 -16.664  -1.358  0.00  0.00     0.019 C 
ATOM     16  C   UNL d   1      24.398 -17.473  -0.539  0.00  0.00     0.039 C 
ATOM     17  C   UNL d   1      25.044 -18.206   0.456  0.00  0.00     0.019 C 
ATOM     18  C   UNL d   1      26.448 -18.116   0.647  0.00  0.00     0.026 C 
BRANCH  16  19
ATOM     19  C   UNL d   1      22.930 -17.584  -0.778  0.00  0.00     0.293 C 
ATOM     20  O   UNL d   1      22.195 -16.587  -0.785  0.00  0.00    -0.259 OA
BRANCH  19  21
ATOM     21  O   UNL d   1      22.518 -18.856  -1.023  0.00  0.00    -0.318 OA
BRANCH  21  22
ATOM     22  C   UNL d   1      21.428 -19.295  -0.180  0.00  0.00     0.179 C 
BRANCH  22  23
ATOM     23  C   UNL d   1      20.195 -19.647  -1.018  0.00  0.00     0.026 C 
BRANCH  23  24
ATOM     24  C   UNL d   1      18.943 -19.810  -0.147  0.00  0.00    -0.002 C 
ATOM     25  C   UNL d   1      19.166 -20.808   0.980  0.00  0.00     0.005 C 
ENDBRANCH  23  24
ENDBRANCH  22  23
ENDBRANCH  21  22
ENDBRANCH  19  21
ENDBRANCH  16  19
ENDBRANCH  11  13
ENDBRANCH   9  11
ENDBRANCH   1   9
BRANCH   8  26
ATOM     26  C   UNL d   1      32.141 -19.263  -1.745  0.00  0.00     0.190 C 
BRANCH  26  27
ATOM     27  C   UNL d   1      31.535 -20.574  -1.426  0.00  0.00    -0.033 A 
ATOM     28  C   UNL d   1      30.925 -20.693  -0.157  0.00  0.00     0.016 A 
ATOM     29  C   UNL d   1      30.383 -21.901   0.249  0.00  0.00    -0.061 A 
ATOM     30  C   UNL d   1      29.662 -21.998   1.567  0.00  0.00     0.048 C 
ATOM     31  C   UNL d   1      30.401 -22.957  -0.674  0.00  0.00     0.007 A 
ATOM     32  C   UNL d   1      30.918 -22.805  -1.972  0.00  0.00     0.008 A 
ATOM     33  C   UNL d   1      31.535 -21.626  -2.362  0.00  0.00    -0.054 A 
ATOM     34  C   UNL d   1      32.057 -21.508  -3.777  0.00  0.00     0.049 C 
ENDBRANCH  26  27
ENDBRANCH   8  26
BRANCH   5  35
ATOM     35  C   UNL d   1      31.191 -17.081  -6.035  0.00  0.00     0.084 C 
BRANCH  35  36
ATOM     36  C   UNL d   1      31.198 -18.280  -6.945  0.00  0.00    -0.054 A 
ATOM     37  C   UNL d   1      31.631 -18.163  -8.271  0.00  0.00     0.007 A 
ATOM     38  C   UNL d   1      31.717 -19.297  -9.074  0.00  0.00     0.001 A 
ATOM     39  C   UNL d   1      31.479 -20.559  -8.528  0.00  0.00     0.000 A 
ATOM     40  C   UNL d   1      31.070 -20.686  -7.203  0.00  0.00     0.001 A 
ATOM     41  C   UNL d   1      30.872 -19.547  -6.432  0.00  0.00     0.007 A 
ENDBRANCH  35  36
ENDBRANCH   5  35
TORSDOF 12
ENDMDL
MODEL 4
REMARK VINA RESULT:   -11.138      1.388      2.082
REMARK INTER + INTRA:         -17.557
REMARK INTER:                 -14.717
REMARK INTRA:                  -2.840
REMARK CONF_INDEPENDENT:        3.580
REMARK UNBOUND:                -2.840
REMARK  12 active torsions:
REMARK  status: ('A' for Active; 'I' for Inactive)
REMARK    1  A    between atoms: C_2  and  C_3 
REMARK    2  A    between atoms: C_3  and  C_4 
REMARK    3  A    between atoms: C_4  and  O_5 
REMARK    4  A    between atoms: O_5  and  C_6 
REMARK    5  A    between atoms: C_6  and  C_8 
REMARK    6  A    between atoms: C_11  and  N_12 
REMARK    7  A    between atoms: N_12  and  N_13 
REMARK    8  A    between atoms: N_13  and  C_14 
REMARK    9  A    between atoms: C_18  and  C_19 
REMARK   10  A    between atoms: C_19  and  C_20 
REMARK   11  A    between atoms: N_28  and  C_29 
REMARK   12  A    between atoms: C_29  and  C_30 
ROOT
ATOM      1  C   UNL d   1      29.672 -17.119  -1.053  0.00  0.00     0.720 C 
ATOM      2  N   UNL d   1      30.437 -18.178  -1.172  0.00  0.00    -0.068 NA
ATOM      3  C   UNL d   1      31.253 -18.333  -2.264  0.00  0.00     0.061 C 
ATOM      4  C   UNL d   1      31.997 -19.645  -2.334  0.00  0.00     0.072 C 
ATOM      5  C   UNL d   1      31.368 -17.447  -3.267  0.00  0.00     0.040 C 
ATOM      6  C   UNL d   1      30.539 -16.236  -3.134  0.00  0.00     0.270 C 
ATOM      7  O   UNL d   1      30.520 -15.358  -4.000  0.00  0.00    -0.267 OA
ATOM      8  N   UNL d   1      29.775 -16.091  -1.990  0.00  0.00    -0.140 N 
ENDROOT
BRANCH   1   9
ATOM      9  N   UNL d   1      28.943 -17.049   0.141  0.00  0.00    -0.147 N 
ATOM     10  H   UNL d   1      29.267 -17.724   0.824  0.00  0.00     0.200 HD
BRANCH   9  11
ATOM     11  N   UNL d   1      27.793 -16.335   0.483  0.00  0.00    -0.191 NA
ATOM     12  H   UNL d   1      27.793 -16.081   1.473  0.00  0.00     0.153 HD
BRANCH  11  13
ATOM     13  C   UNL d   1      26.461 -16.769   0.119  0.00  0.00     0.028 C 
ATOM     14  C   UNL d   1      25.990 -18.031   0.530  0.00  0.00     0.026 C 
ATOM     15  C   UNL d   1      24.796 -18.600  -0.006  0.00  0.00     0.019 C 
ATOM     16  C   UNL d   1      23.954 -17.852  -0.834  0.00  0.00     0.039 C 
ATOM     17  C   UNL d   1      24.358 -16.558  -1.161  0.00  0.00     0.019 C 
ATOM     18  C   UNL d   1      25.590 -16.029  -0.694  0.00  0.00     0.026 C 
BRANCH  16  19
ATOM     19  C   UNL d   1      22.647 -18.411  -1.284  0.00  0.00     0.293 C 
ATOM     20  O   UNL d   1      22.583 -19.325  -2.119  0.00  0.00    -0.259 OA
BRANCH  19  21
ATOM     21  O   UNL d   1      21.577 -17.852  -0.660  0.00  0.00    -0.318 OA
BRANCH  21  22
ATOM     22  C   UNL d   1      20.445 -18.742  -0.520  0.00  0.00     0.179 C 
BRANCH  22  23
ATOM     23  C   UNL d   1      20.726 -19.823   0.530  0.00  0.00     0.026 C 
BRANCH  23  24
ATOM     24  C   UNL d   1      19.430 -20.415   1.097  0.00  0.00    -0.002 C 
ATOM     25  C   UNL d   1      18.378 -20.610   0.013  0.00  0.00     0.005 C 
ENDBRANCH  23  24
ENDBRANCH  22  23
ENDBRANCH  21  22
ENDBRANCH  19  21
ENDBRANCH  16  19
ENDBRANCH  11  13
ENDBRANCH   9  11
ENDBRANCH   1   9
BRANCH   8  26
ATOM     26  C   UNL d   1      29.312 -14.711  -1.916  0.00  0.00     0.190 C 
BRANCH  26  27
ATOM     27  C   UNL d   1      27.976 -14.371  -2.451  0.00  0.00    -0.033 A 
ATOM     28  C   UNL d   1      27.564 -15.067  -3.609  0.00  0.00     0.016 A 
ATOM     29  C   UNL d   1      26.353 -14.772  -4.211  0.00  0.00    -0.061 A 
ATOM     30  C   UNL d   1      25.884 -15.575  -5.395  0.00  0.00     0.048 C 
ATOM     31  C   UNL d   1      25.537 -13.820  -3.582  0.00  0.00     0.007 A 
ATOM     32  C   UNL d   1      25.905 -13.202  -2.375  0.00  0.00     0.008 A 
ATOM     33  C   UNL d   1      27.149 -13.430  -1.806  0.00  0.00    -0.054 A 
ATOM     34  C   UNL d   1      27.488 -12.756  -0.495  0.00  0.00     0.049 C 
ENDBRANCH  26  27
ENDBRANCH   8  26
BRANCH   5  35
ATOM     35  C   UNL d   1      32.253 -17.695  -4.470  0.00  0.00     0.084 C 
BRANCH  35  36
ATOM     36  C   UNL d   1      31.645 -18.408  -5.648  0.00  0.00    -0.054 A 
ATOM     37  C   UNL d   1      31.736 -17.860  -6.933  0.00  0.00     0.007 A 
ATOM     38  C   UNL d   1      31.249 -18.573  -8.025  0.00  0.00     0.001 A 
ATOM     39  C   UNL d   1      30.773 -19.873  -7.854  0.00  0.00     0.000 A 
ATOM     40  C   UNL d   1      30.700 -20.434  -6.582  0.00  0.00     0.001 A 
ATOM     41  C   UNL d   1      31.079 -19.683  -5.476  0.00  0.00     0.007 A 
ENDBRANCH  35  36
ENDBRANCH   5  35
TORSDOF 12
ENDMDL
MODEL 5
REMARK VINA RESULT:   -11.133      2.155      5.495
REMARK INTER + INTRA:         -17.692
REMARK INTER:                 -14.713
REMARK INTRA:                  -2.979
REMARK CONF_INDEPENDENT:        3.580
REMARK UNBOUND:                -2.979
REMARK  12 active torsions:
REMARK  status: ('A' for Active; 'I' for Inactive)
REMARK    1  A    between atoms: C_2  and  C_3 
REMARK    2  A    between atoms: C_3  and  C_4 
REMARK    3  A    between atoms: C_4  and  O_5 
REMARK    4  A    between atoms: O_5  and  C_6 
REMARK    5  A    between atoms: C_6  and  C_8 
REMARK    6  A    between atoms: C_11  and  N_12 
REMARK    7  A    between atoms: N_12  and  N_13 
REMARK    8  A    between atoms: N_13  and  C_14 
REMARK    9  A    between atoms: C_18  and  C_19 
REMARK   10  A    between atoms: C_19  and  C_20 
REMARK   11  A    between atoms: N_28  and  C_29 
REMARK   12  A    between atoms: C_29  and  C_30 
ROOT
ATOM      1  C   UNL d   1      28.383 -15.075   0.120  0.00  0.00     0.720 C 
ATOM      2  N   UNL d   1      27.762 -14.306   0.981  0.00  0.00    -0.068 NA
ATOM      3  C   UNL d   1      27.657 -12.955   0.765  0.00  0.00     0.061 C 
ATOM      4  C   UNL d   1      27.017 -12.170   1.884  0.00  0.00     0.072 C 
ATOM      5  C   UNL d   1      28.135 -12.311  -0.313  0.00  0.00     0.040 C 
ATOM      6  C   UNL d   1      28.809 -13.165  -1.306  0.00  0.00     0.270 C 
ATOM      7  O   UNL d   1      29.326 -12.700  -2.325  0.00  0.00    -0.267 OA
ATOM      8  N   UNL d   1      28.842 -14.529  -1.080  0.00  0.00    -0.140 N 
ENDROOT
BRANCH   1   9
ATOM      9  N   UNL d   1      28.356 -16.442   0.422  0.00  0.00    -0.147 N 
ATOM     10  H   UNL d   1      29.048 -16.691   1.119  0.00  0.00     0.200 HD
BRANCH   9  11
ATOM     11  N   UNL d   1      27.663 -17.505  -0.159  0.00  0.00    -0.191 NA
ATOM     12  H   UNL d   1      28.086 -17.785  -1.047  0.00  0.00     0.153 HD
BRANCH  11  13
ATOM     13  C   UNL d   1      26.224 -17.515  -0.313  0.00  0.00     0.028 C 
ATOM     14  C   UNL d   1      25.417 -18.214   0.606  0.00  0.00     0.026 C 
ATOM     15  C   UNL d   1      24.033 -18.458   0.359  0.00  0.00     0.019 C 
ATOM     16  C   UNL d   1      23.382 -17.863  -0.725  0.00  0.00     0.039 C 
ATOM     17  C   UNL d   1      24.150 -17.077  -1.583  0.00  0.00     0.019 C 
ATOM     18  C   UNL d   1      25.545 -16.908  -1.381  0.00  0.00     0.026 C 
BRANCH  16  19
ATOM     19  C   UNL d   1      21.909 -18.021  -0.900  0.00  0.00     0.293 C 
ATOM     20  O   UNL d   1      21.148 -17.043  -0.911  0.00  0.00    -0.259 OA
BRANCH  19  21
ATOM     21  O   UNL d   1      21.523 -19.311  -1.085  0.00  0.00    -0.318 OA
BRANCH  21  22
ATOM     22  C   UNL d   1      20.089 -19.499  -1.096  0.00  0.00     0.179 C 
BRANCH  22  23
ATOM     23  C   UNL d   1      19.518 -19.438   0.324  0.00  0.00     0.026 C 
BRANCH  23  24
ATOM     24  C   UNL d   1      19.439 -20.828   0.966  0.00  0.00    -0.002 C 
ATOM     25  C   UNL d   1      18.077 -21.472   0.749  0.00  0.00     0.005 C 
ENDBRANCH  23  24
ENDBRANCH  22  23
ENDBRANCH  21  22
ENDBRANCH  19  21
ENDBRANCH  16  19
ENDBRANCH  11  13
ENDBRANCH   9  11
ENDBRANCH   1   9
BRANCH   8  26
ATOM     26  C   UNL d   1      29.246 -15.192  -2.313  0.00  0.00     0.190 C 
BRANCH  26  27
ATOM     27  C   UNL d   1      28.389 -15.064  -3.512  0.00  0.00    -0.033 A 
ATOM     28  C   UNL d   1      27.056 -14.650  -3.293  0.00  0.00     0.016 A 
ATOM     29  C   UNL d   1      26.168 -14.559  -4.351  0.00  0.00    -0.061 A 
ATOM     30  C   UNL d   1      24.774 -14.038  -4.123  0.00  0.00     0.048 C 
ATOM     31  C   UNL d   1      26.669 -14.819  -5.636  0.00  0.00     0.007 A 
ATOM     32  C   UNL d   1      28.020 -15.132  -5.861  0.00  0.00     0.008 A 
ATOM     33  C   UNL d   1      28.900 -15.304  -4.803  0.00  0.00    -0.054 A 
ATOM     34  C   UNL d   1      30.349 -15.621  -5.101  0.00  0.00     0.049 C 
ENDBRANCH  26  27
ENDBRANCH   8  26
BRANCH   5  35
ATOM     35  C   UNL d   1      28.029 -10.810  -0.473  0.00  0.00     0.084 C 
BRANCH  35  36
ATOM     36  C   UNL d   1      27.072 -10.285  -1.509  0.00  0.00    -0.054 A 
ATOM     37  C   UNL d   1      26.631  -8.956  -1.460  0.00  0.00     0.007 A 
ATOM     38  C   UNL d   1      25.818  -8.459  -2.474  0.00  0.00     0.001 A 
ATOM     39  C   UNL d   1      25.534  -9.247  -3.591  0.00  0.00     0.000 A 
ATOM     40  C   UNL d   1      25.987 -10.561  -3.658  0.00  0.00     0.001 A 
ATOM     41  C   UNL d   1      26.703 -11.097  -2.594  0.00  0.00     0.007 A 
ENDBRANCH  35  36
ENDBRANCH   5  35
TORSDOF 12
ENDMDL
MODEL 6
REMARK VINA RESULT:   -11.091      1.536      2.644
REMARK INTER + INTRA:         -17.246
REMARK INTER:                 -14.671
REMARK INTRA:                  -2.576
REMARK CONF_INDEPENDENT:        3.580
REMARK UNBOUND:                -2.576
REMARK  12 active torsions:
REMARK  status: ('A' for Active; 'I' for Inactive)
REMARK    1  A    between atoms: C_2  and  C_3 
REMARK    2  A    between atoms: C_3  and  C_4 
REMARK    3  A    between atoms: C_4  and  O_5 
REMARK    4  A    between atoms: O_5  and  C_6 
REMARK    5  A    between atoms: C_6  and  C_8 
REMARK    6  A    between atoms: C_11  and  N_12 
REMARK    7  A    between atoms: N_12  and  N_13 
REMARK    8  A    between atoms: N_13  and  C_14 
REMARK    9  A    between atoms: C_18  and  C_19 
REMARK   10  A    between atoms: C_19  and  C_20 
REMARK   11  A    between atoms: N_28  and  C_29 
REMARK   12  A    between atoms: C_29  and  C_30 
ROOT
ATOM      1  C   UNL d   1      28.563 -16.735  -1.780  0.00  0.00     0.720 C 
ATOM      2  N   UNL d   1      29.807 -17.087  -2.002  0.00  0.00    -0.068 NA
ATOM      3  C   UNL d   1      30.371 -16.922  -3.242  0.00  0.00     0.061 C 
ATOM      4  C   UNL d   1      31.770 -17.468  -3.393  0.00  0.00     0.072 C 
ATOM      5  C   UNL d   1      29.747 -16.384  -4.303  0.00  0.00     0.040 C 
ATOM      6  C   UNL d   1      28.358 -15.955  -4.064  0.00  0.00     0.270 C 
ATOM      7  O   UNL d   1      27.657 -15.478  -4.960  0.00  0.00    -0.267 OA
ATOM      8  N   UNL d   1      27.846 -16.085  -2.785  0.00  0.00    -0.140 N 
ENDROOT
BRANCH   1   9
ATOM      9  N   UNL d   1      28.133 -16.890  -0.456  0.00  0.00    -0.147 N 
ATOM     10  H   UNL d   1      28.756 -17.483   0.079  0.00  0.00     0.200 HD
BRANCH   9  11
ATOM     11  N   UNL d   1      26.956 -16.499   0.186  0.00  0.00    -0.191 NA
ATOM     12  H   UNL d   1      27.043 -16.574   1.202  0.00  0.00     0.153 HD
BRANCH  11  13
ATOM     13  C   UNL d   1      25.650 -16.989  -0.201  0.00  0.00     0.028 C 
ATOM     14  C   UNL d   1      24.643 -16.087  -0.594  0.00  0.00     0.026 C 
ATOM     15  C   UNL d   1      23.283 -16.495  -0.741  0.00  0.00     0.019 C 
ATOM     16  C   UNL d   1      22.927 -17.844  -0.669  0.00  0.00     0.039 C 
ATOM     17  C   UNL d   1      23.939 -18.761  -0.387  0.00  0.00     0.019 C 
ATOM     18  C   UNL d   1      25.275 -18.340  -0.155  0.00  0.00     0.026 C 
BRANCH  16  19
ATOM     19  C   UNL d   1      21.526 -18.272  -0.952  0.00  0.00     0.293 C 
ATOM     20  O   UNL d   1      20.649 -17.456  -1.270  0.00  0.00    -0.259 OA
BRANCH  19  21
ATOM     21  O   UNL d   1      21.345 -19.616  -0.866  0.00  0.00    -0.318 OA
BRANCH  21  22
ATOM     22  C   UNL d   1      20.022 -20.004  -0.429  0.00  0.00     0.179 C 
BRANCH  22  23
ATOM     23  C   UNL d   1      20.021 -20.367   1.059  0.00  0.00     0.026 C 
BRANCH  23  24
ATOM     24  C   UNL d   1      18.598 -20.437   1.627  0.00  0.00    -0.002 C 
ATOM     25  C   UNL d   1      17.794 -21.563   0.993  0.00  0.00     0.005 C 
ENDBRANCH  23  24
ENDBRANCH  22  23
ENDBRANCH  21  22
ENDBRANCH  19  21
ENDBRANCH  16  19
ENDBRANCH  11  13
ENDBRANCH   9  11
ENDBRANCH   1   9
BRANCH   8  26
ATOM     26  C   UNL d   1      26.614 -15.311  -2.700  0.00  0.00     0.190 C 
BRANCH  26  27
ATOM     27  C   UNL d   1      26.682 -13.837  -2.800  0.00  0.00    -0.033 A 
ATOM     28  C   UNL d   1      27.870 -13.228  -2.338  0.00  0.00     0.016 A 
ATOM     29  C   UNL d   1      27.998 -11.849  -2.340  0.00  0.00    -0.061 A 
ATOM     30  C   UNL d   1      29.297 -11.212  -1.925  0.00  0.00     0.048 C 
ATOM     31  C   UNL d   1      26.940 -11.106  -2.884  0.00  0.00     0.007 A 
ATOM     32  C   UNL d   1      25.802 -11.720  -3.436  0.00  0.00     0.008 A 
ATOM     33  C   UNL d   1      25.627 -13.093  -3.367  0.00  0.00    -0.054 A 
ATOM     34  C   UNL d   1      24.394 -13.706  -3.993  0.00  0.00     0.049 C 
ENDBRANCH  26  27
ENDBRANCH   8  26
BRANCH   5  35
ATOM     35  C   UNL d   1      30.408 -16.270  -5.659  0.00  0.00     0.084 C 
BRANCH  35  36
ATOM     36  C   UNL d   1      30.434 -14.914  -6.311  0.00  0.00    -0.054 A 
ATOM     37  C   UNL d   1      29.284 -14.396  -6.919  0.00  0.00     0.007 A 
ATOM     38  C   UNL d   1      29.298 -13.104  -7.437  0.00  0.00     0.001 A 
ATOM     39  C   UNL d   1      30.417 -12.290  -7.256  0.00  0.00     0.000 A 
ATOM     40  C   UNL d   1      31.557 -12.791  -6.632  0.00  0.00     0.001 A 
ATOM     41  C   UNL d   1      31.587 -14.116  -6.215  0.00  0.00     0.007 A 
ENDBRANCH  35  36
ENDBRANCH   5  35
TORSDOF 12
ENDMDL
MODEL 7
REMARK VINA RESULT:   -11.065      2.598      6.347
REMARK INTER + INTRA:         -17.639
REMARK INTER:                 -14.645
REMARK INTRA:                  -2.994
REMARK CONF_INDEPENDENT:        3.580
REMARK UNBOUND:                -2.994
REMARK  12 active torsions:
REMARK  status: ('A' for Active; 'I' for Inactive)
REMARK    1  A    between atoms: C_2  and  C_3 
REMARK    2  A    between atoms: C_3  and  C_4 
REMARK    3  A    between atoms: C_4  and  O_5 
REMARK    4  A    between atoms: O_5  and  C_6 
REMARK    5  A    between atoms: C_6  and  C_8 
REMARK    6  A    between atoms: C_11  and  N_12 
REMARK    7  A    between atoms: N_12  and  N_13 
REMARK    8  A    between atoms: N_13  and  C_14 
REMARK    9  A    between atoms: C_18  and  C_19 
REMARK   10  A    between atoms: C_19  and  C_20 
REMARK   11  A    between atoms: N_28  and  C_29 
REMARK   12  A    between atoms: C_29  and  C_30 
ROOT
ATOM      1  C   UNL d   1      28.429 -15.564   0.898  0.00  0.00     0.720 C 
ATOM      2  N   UNL d   1      27.857 -15.308   2.050  0.00  0.00    -0.068 NA
ATOM      3  C   UNL d   1      27.930 -14.054   2.605  0.00  0.00     0.061 C 
ATOM      4  C   UNL d   1      27.326 -13.922   3.982  0.00  0.00     0.072 C 
ATOM      5  C   UNL d   1      28.543 -13.001   2.041  0.00  0.00     0.040 C 
ATOM      6  C   UNL d   1      29.165 -13.263   0.731  0.00  0.00     0.270 C 
ATOM      7  O   UNL d   1      29.792 -12.394   0.119  0.00  0.00    -0.267 OA
ATOM      8  N   UNL d   1      29.019 -14.523   0.180  0.00  0.00    -0.140 N 
ENDROOT
BRANCH   1   9
ATOM      9  N   UNL d   1      28.220 -16.860   0.411  0.00  0.00    -0.147 N 
ATOM     10  H   UNL d   1      28.804 -17.542   0.880  0.00  0.00     0.200 HD
BRANCH   9  11
ATOM     11  N   UNL d   1      27.477 -17.332  -0.673  0.00  0.00    -0.191 NA
ATOM     12  H   UNL d   1      27.750 -16.869  -1.542  0.00  0.00     0.153 HD
BRANCH  11  13
ATOM     13  C   UNL d   1      26.034 -17.446  -0.646  0.00  0.00     0.028 C 
ATOM     14  C   UNL d   1      25.422 -18.574  -0.068  0.00  0.00     0.026 C 
ATOM     15  C   UNL d   1      24.032 -18.847  -0.238  0.00  0.00     0.019 C 
ATOM     16  C   UNL d   1      23.186 -17.913  -0.841  0.00  0.00     0.039 C 
ATOM     17  C   UNL d   1      23.765 -16.739  -1.323  0.00  0.00     0.019 C 
ATOM     18  C   UNL d   1      25.163 -16.512  -1.227  0.00  0.00     0.026 C 
BRANCH  16  19
ATOM     19  C   UNL d   1      21.715 -18.152  -0.899  0.00  0.00     0.293 C 
ATOM     20  O   UNL d   1      20.910 -17.221  -1.039  0.00  0.00    -0.259 OA
BRANCH  19  21
ATOM     21  O   UNL d   1      21.379 -19.467  -0.827  0.00  0.00    -0.318 OA
BRANCH  21  22
ATOM     22  C   UNL d   1      20.055 -19.707  -0.296  0.00  0.00     0.179 C 
BRANCH  22  23
ATOM     23  C   UNL d   1      20.072 -19.713   1.236  0.00  0.00     0.026 C 
BRANCH  23  24
ATOM     24  C   UNL d   1      18.859 -20.451   1.816  0.00  0.00    -0.002 C 
ATOM     25  C   UNL d   1      18.121 -21.247   0.749  0.00  0.00     0.005 C 
ENDBRANCH  23  24
ENDBRANCH  22  23
ENDBRANCH  21  22
ENDBRANCH  19  21
ENDBRANCH  16  19
ENDBRANCH  11  13
ENDBRANCH   9  11
ENDBRANCH   1   9
BRANCH   8  26
ATOM     26  C   UNL d   1      29.410 -14.462  -1.223  0.00  0.00     0.190 C 
BRANCH  26  27
ATOM     27  C   UNL d   1      28.357 -14.435  -2.262  0.00  0.00    -0.033 A 
ATOM     28  C   UNL d   1      27.471 -13.335  -2.232  0.00  0.00     0.016 A 
ATOM     29  C   UNL d   1      26.420 -13.257  -3.131  0.00  0.00    -0.061 A 
ATOM     30  C   UNL d   1      25.531 -12.043  -3.148  0.00  0.00     0.048 C 
ATOM     31  C   UNL d   1      26.328 -14.265  -4.102  0.00  0.00     0.007 A 
ATOM     32  C   UNL d   1      27.271 -15.304  -4.192  0.00  0.00     0.008 A 
ATOM     33  C   UNL d   1      28.280 -15.437  -3.249  0.00  0.00    -0.054 A 
ATOM     34  C   UNL d   1      29.281 -16.560  -3.403  0.00  0.00     0.049 C 
ENDBRANCH  26  27
ENDBRANCH   8  26
BRANCH   5  35
ATOM     35  C   UNL d   1      28.629 -11.653   2.723  0.00  0.00     0.084 C 
BRANCH  35  36
ATOM     36  C   UNL d   1      27.725 -10.559   2.223  0.00  0.00    -0.054 A 
ATOM     37  C   UNL d   1      27.931  -9.989   0.961  0.00  0.00     0.007 A 
ATOM     38  C   UNL d   1      27.034  -9.042   0.475  0.00  0.00     0.001 A 
ATOM     39  C   UNL d   1      25.876  -8.743   1.193  0.00  0.00     0.000 A 
ATOM     40  C   UNL d   1      25.652  -9.323   2.439  0.00  0.00     0.001 A 
ATOM     41  C   UNL d   1      26.602 -10.181   2.979  0.00  0.00     0.007 A 
ENDBRANCH  35  36
ENDBRANCH   5  35
TORSDOF 12
ENDMDL
MODEL 8
REMARK VINA RESULT:   -11.023      3.622      7.067
REMARK INTER + INTRA:         -17.108
REMARK INTER:                 -14.603
REMARK INTRA:                  -2.506
REMARK CONF_INDEPENDENT:        3.580
REMARK UNBOUND:                -2.506
REMARK  12 active torsions:
REMARK  status: ('A' for Active; 'I' for Inactive)
REMARK    1  A    between atoms: C_2  and  C_3 
REMARK    2  A    between atoms: C_3  and  C_4 
REMARK    3  A    between atoms: C_4  and  O_5 
REMARK    4  A    between atoms: O_5  and  C_6 
REMARK    5  A    between atoms: C_6  and  C_8 
REMARK    6  A    between atoms: C_11  and  N_12 
REMARK    7  A    between atoms: N_12  and  N_13 
REMARK    8  A    between atoms: N_13  and  C_14 
REMARK    9  A    between atoms: C_18  and  C_19 
REMARK   10  A    between atoms: C_19  and  C_20 
REMARK   11  A    between atoms: N_28  and  C_29 
REMARK   12  A    between atoms: C_29  and  C_30 
ROOT
ATOM      1  C   UNL d   1      28.398 -15.234   1.242  0.00  0.00     0.720 C 
ATOM      2  N   UNL d   1      27.758 -15.162   2.384  0.00  0.00    -0.068 NA
ATOM      3  C   UNL d   1      27.759 -14.002   3.116  0.00  0.00     0.061 C 
ATOM      4  C   UNL d   1      27.079 -14.086   4.461  0.00  0.00     0.072 C 
ATOM      5  C   UNL d   1      28.365 -12.862   2.745  0.00  0.00     0.040 C 
ATOM      6  C   UNL d   1      29.063 -12.914   1.449  0.00  0.00     0.270 C 
ATOM      7  O   UNL d   1      29.692 -11.950   1.004  0.00  0.00    -0.267 OA
ATOM      8  N   UNL d   1      28.989 -14.085   0.715  0.00  0.00    -0.140 N 
ENDROOT
BRANCH   1   9
ATOM      9  N   UNL d   1      28.258 -16.450   0.562  0.00  0.00    -0.147 N 
ATOM     10  H   UNL d   1      28.924 -17.143   0.882  0.00  0.00     0.200 HD
BRANCH   9  11
ATOM     11  N   UNL d   1      27.484 -16.809  -0.543  0.00  0.00    -0.191 NA
ATOM     12  H   UNL d   1      27.658 -16.190  -1.337  0.00  0.00     0.153 HD
BRANCH  11  13
ATOM     13  C   UNL d   1      26.060 -17.058  -0.458  0.00  0.00     0.028 C 
ATOM     14  C   UNL d   1      25.576 -18.165   0.265  0.00  0.00     0.026 C 
ATOM     15  C   UNL d   1      24.217 -18.589   0.171  0.00  0.00     0.019 C 
ATOM     16  C   UNL d   1      23.270 -17.818  -0.507  0.00  0.00     0.039 C 
ATOM     17  C   UNL d   1      23.719 -16.658  -1.138  0.00  0.00     0.019 C 
ATOM     18  C   UNL d   1      25.089 -16.287  -1.114  0.00  0.00     0.026 C 
BRANCH  16  19
ATOM     19  C   UNL d   1      21.829 -18.204  -0.490  0.00  0.00     0.293 C 
ATOM     20  O   UNL d   1      20.949 -17.450  -0.929  0.00  0.00    -0.259 OA
BRANCH  19  21
ATOM     21  O   UNL d   1      21.610 -19.451   0.004  0.00  0.00    -0.318 OA
BRANCH  21  22
ATOM     22  C   UNL d   1      20.229 -19.875  -0.061  0.00  0.00     0.179 C 
BRANCH  22  23
ATOM     23  C   UNL d   1      19.435 -19.342   1.136  0.00  0.00     0.026 C 
BRANCH  23  24
ATOM     24  C   UNL d   1      18.758 -20.473   1.919  0.00  0.00    -0.002 C 
ATOM     25  C   UNL d   1      18.231 -21.561   0.995  0.00  0.00     0.005 C 
ENDBRANCH  23  24
ENDBRANCH  22  23
ENDBRANCH  21  22
ENDBRANCH  19  21
ENDBRANCH  16  19
ENDBRANCH  11  13
ENDBRANCH   9  11
ENDBRANCH   1   9
BRANCH   8  26
ATOM     26  C   UNL d   1      29.450 -13.810  -0.640  0.00  0.00     0.190 C 
BRANCH  26  27
ATOM     27  C   UNL d   1      28.633 -14.269  -1.785  0.00  0.00    -0.033 A 
ATOM     28  C   UNL d   1      27.358 -13.677  -1.926  0.00  0.00     0.016 A 
ATOM     29  C   UNL d   1      26.503 -14.087  -2.935  0.00  0.00    -0.061 A 
ATOM     30  C   UNL d   1      25.180 -13.395  -3.130  0.00  0.00     0.048 C 
ATOM     31  C   UNL d   1      26.986 -15.046  -3.838  0.00  0.00     0.007 A 
ATOM     32  C   UNL d   1      28.293 -15.558  -3.755  0.00  0.00     0.008 A 
ATOM     33  C   UNL d   1      29.129 -15.215  -2.703  0.00  0.00    -0.054 A 
ATOM     34  C   UNL d   1      30.532 -15.779  -2.671  0.00  0.00     0.049 C 
ENDBRANCH  26  27
ENDBRANCH   8  26
BRANCH   5  35
ATOM     35  C   UNL d   1      28.369 -11.625   3.618  0.00  0.00     0.084 C 
BRANCH  35  36
ATOM     36  C   UNL d   1      28.893 -11.764   5.022  0.00  0.00    -0.054 A 
ATOM     37  C   UNL d   1      28.279 -11.081   6.079  0.00  0.00     0.007 A 
ATOM     38  C   UNL d   1      28.717 -11.289   7.384  0.00  0.00     0.001 A 
ATOM     39  C   UNL d   1      29.689 -12.254   7.649  0.00  0.00     0.000 A 
ATOM     40  C   UNL d   1      30.289 -12.954   6.605  0.00  0.00     0.001 A 
ATOM     41  C   UNL d   1      29.935 -12.667   5.292  0.00  0.00     0.007 A 
ENDBRANCH  35  36
ENDBRANCH   5  35
TORSDOF 12
ENDMDL
MODEL 9
REMARK VINA RESULT:   -10.623      1.590      2.541
REMARK INTER + INTRA:         -16.844
REMARK INTER:                 -14.203
REMARK INTRA:                  -2.642
REMARK CONF_INDEPENDENT:        3.580
REMARK UNBOUND:                -2.642
REMARK  12 active torsions:
REMARK  status: ('A' for Active; 'I' for Inactive)
REMARK    1  A    between atoms: C_2  and  C_3 
REMARK    2  A    between atoms: C_3  and  C_4 
REMARK    3  A    between atoms: C_4  and  O_5 
REMARK    4  A    between atoms: O_5  and  C_6 
REMARK    5  A    between atoms: C_6  and  C_8 
REMARK    6  A    between atoms: C_11  and  N_12 
REMARK    7  A    between atoms: N_12  and  N_13 
REMARK    8  A    between atoms: N_13  and  C_14 
REMARK    9  A    between atoms: C_18  and  C_19 
REMARK   10  A    between atoms: C_19  and  C_20 
REMARK   11  A    between atoms: N_28  and  C_29 
REMARK   12  A    between atoms: C_29  and  C_30 
ROOT
ATOM      1  C   UNL d   1      29.709 -16.702  -1.172  0.00  0.00     0.720 C 
ATOM      2  N   UNL d   1      30.180 -17.783  -0.599  0.00  0.00    -0.068 NA
ATOM      3  C   UNL d   1      30.951 -18.672  -1.305  0.00  0.00     0.061 C 
ATOM      4  C   UNL d   1      31.335 -19.928  -0.561  0.00  0.00     0.072 C 
ATOM      5  C   UNL d   1      31.310 -18.523  -2.591  0.00  0.00     0.040 C 
ATOM      6  C   UNL d   1      30.816 -17.297  -3.243  0.00  0.00     0.270 C 
ATOM      7  O   UNL d   1      31.040 -17.051  -4.431  0.00  0.00    -0.267 OA
ATOM      8  N   UNL d   1      30.091 -16.399  -2.479  0.00  0.00    -0.140 N 
ENDROOT
BRANCH   1   9
ATOM      9  N   UNL d   1      28.998 -15.845  -0.322  0.00  0.00    -0.147 N 
ATOM     10  H   UNL d   1      29.473 -14.959  -0.194  0.00  0.00     0.200 HD
BRANCH   9  11
ATOM     11  N   UNL d   1      27.864 -16.053   0.464  0.00  0.00    -0.191 NA
ATOM     12  H   UNL d   1      28.111 -16.427   1.382  0.00  0.00     0.153 HD
BRANCH  11  13
ATOM     13  C   UNL d   1      26.691 -16.751  -0.017  0.00  0.00     0.028 C 
ATOM     14  C   UNL d   1      25.846 -16.146  -0.967  0.00  0.00     0.026 C 
ATOM     15  C   UNL d   1      24.561 -16.682  -1.281  0.00  0.00     0.019 C 
ATOM     16  C   UNL d   1      24.162 -17.927  -0.786  0.00  0.00     0.039 C 
ATOM     17  C   UNL d   1      25.041 -18.588   0.073  0.00  0.00     0.019 C 
ATOM     18  C   UNL d   1      26.281 -18.009   0.450  0.00  0.00     0.026 C 
BRANCH  16  19
ATOM     19  C   UNL d   1      22.873 -18.536  -1.222  0.00  0.00     0.293 C 
ATOM     20  O   UNL d   1      22.819 -19.336  -2.166  0.00  0.00    -0.259 OA
BRANCH  19  21
ATOM     21  O   UNL d   1      21.812 -18.157  -0.461  0.00  0.00    -0.318 OA
BRANCH  21  22
ATOM     22  C   UNL d   1      20.550 -18.716  -0.892  0.00  0.00     0.179 C 
BRANCH  22  23
ATOM     23  C   UNL d   1      20.237 -20.010  -0.134  0.00  0.00     0.026 C 
BRANCH  23  24
ATOM     24  C   UNL d   1      18.766 -20.078   0.293  0.00  0.00    -0.002 C 
ATOM     25  C   UNL d   1      18.428 -21.414   0.939  0.00  0.00     0.005 C 
ENDBRANCH  23  24
ENDBRANCH  22  23
ENDBRANCH  21  22
ENDBRANCH  19  21
ENDBRANCH  16  19
ENDBRANCH  11  13
ENDBRANCH   9  11
ENDBRANCH   1   9
BRANCH   8  26
ATOM     26  C   UNL d   1      29.996 -15.143  -3.212  0.00  0.00     0.190 C 
BRANCH  26  27
ATOM     27  C   UNL d   1      28.713 -14.776  -3.849  0.00  0.00    -0.033 A 
ATOM     28  C   UNL d   1      27.764 -14.128  -3.028  0.00  0.00     0.016 A 
ATOM     29  C   UNL d   1      26.514 -13.800  -3.526  0.00  0.00    -0.061 A 
ATOM     30  C   UNL d   1      25.539 -13.035  -2.671  0.00  0.00     0.048 C 
ATOM     31  C   UNL d   1      26.270 -14.071  -4.880  0.00  0.00     0.007 A 
ATOM     32  C   UNL d   1      27.252 -14.624  -5.720  0.00  0.00     0.008 A 
ATOM     33  C   UNL d   1      28.478 -15.029  -5.215  0.00  0.00    -0.054 A 
ATOM     34  C   UNL d   1      29.507 -15.600  -6.165  0.00  0.00     0.049 C 
ENDBRANCH  26  27
ENDBRANCH   8  26
BRANCH   5  35
ATOM     35  C   UNL d   1      32.125 -19.561  -3.330  0.00  0.00     0.084 C 
BRANCH  35  36
ATOM     36  C   UNL d   1      31.879 -19.721  -4.806  0.00  0.00    -0.054 A 
ATOM     37  C   UNL d   1      30.646 -20.192  -5.274  0.00  0.00     0.007 A 
ATOM     38  C   UNL d   1      30.401 -20.249  -6.643  0.00  0.00     0.001 A 
ATOM     39  C   UNL d   1      31.337 -19.737  -7.542  0.00  0.00     0.000 A 
ATOM     40  C   UNL d   1      32.557 -19.245  -7.083  0.00  0.00     0.001 A 
ATOM     41  C   UNL d   1      32.851 -19.292  -5.726  0.00  0.00     0.007 A 
ENDBRANCH  35  36
ENDBRANCH   5  35
TORSDOF 12
ENDMDL
