MODEL 1
REMARK VINA RESULT:   -29.142      0.000      0.000
REMARK INTER + INTRA:         -33.037
REMARK INTER:                 -31.528
REMARK INTRA:                  -1.509
REMARK CONF_INDEPENDENT:        2.386
REMARK UNBOUND:                -1.509
REMARK  8 active torsions:
REMARK  status: ('A' for Active; 'I' for Inactive)
REMARK    1  A    between atoms: O_2  and  C_3 
REMARK    2  A    between atoms: C_6  and  O_7 
REMARK    3  A    between atoms: C_9  and  C_10 
REMARK    4  A    between atoms: C_10  and  C_11 
REMARK    5  A    between atoms: C_10  and  N_24 
REMARK    6  A    between atoms: C_11  and  N_12 
REMARK       I    between atoms: N_12  and  C_13 
REMARK    7  A    between atoms: C_13  and  C_15 
REMARK    8  A    between atoms: C_18  and  S_19 
ROOT
ATOM      1  C   UNL d   1      26.023 -14.427  -2.182  0.00  0.00     0.241 C 
ENDROOT
BRANCH   1   2
ATOM      2  C   UNL d   1      26.771 -13.824  -3.326  0.00  0.00     0.010 C 
ATOM      3  C   UNL d   1      27.062 -12.479  -3.363  0.00  0.00     0.076 C 
ATOM      4  C   UNL d   1      27.549 -12.010  -4.607  0.00  0.00     0.040 C 
ATOM      5  C   UNL d   1      27.833 -12.866  -5.719  0.00  0.00     0.039 C 
ATOM      6  C   UNL d   1      27.691 -14.226  -5.605  0.00  0.00     0.069 C 
ATOM      7  C   UNL d   1      27.153 -14.643  -4.423  0.00  0.00     0.049 C 
BRANCH   3   8
ATOM      8  O   UNL d   1      26.794 -11.564  -2.370  0.00  0.00    -0.355 OA
ATOM      9  C   UNL d   1      27.007 -10.124  -2.338  0.00  0.00     0.210 C 
ENDBRANCH   3   8
BRANCH   6  10
ATOM     10  O   UNL d   1      28.138 -15.085  -6.567  0.00  0.00    -0.356 OA
ATOM     11  C   UNL d   1      29.482 -15.577  -6.468  0.00  0.00     0.210 C 
ENDBRANCH   6  10
ENDBRANCH   1   2
BRANCH   1  12
ATOM     12  C   UNL d   1      24.757 -15.329  -2.730  0.00  0.00     0.161 C 
BRANCH  12  13
ATOM     13  N   UNL d   1      24.067 -16.311  -1.793  0.00  0.00    -0.354 N 
ATOM     14  C   UNL d   1      22.762 -16.213  -1.323  0.00  0.00     0.256 C 
ATOM     15  O   UNL d   1      22.164 -15.123  -1.365  0.00  0.00    -0.268 OA
ATOM     16  H   UNL d   1      24.449 -17.255  -1.741  0.00  0.00     0.162 HD
BRANCH  14  17
ATOM     17  C   UNL d   1      22.009 -17.451  -0.886  0.00  0.00     0.090 A 
ATOM     18  C   UNL d   1      20.686 -17.648  -1.257  0.00  0.00     0.139 A 
ATOM     19  N   UNL d   1      19.905 -18.717  -0.896  0.00  0.00    -0.234 NA
ATOM     20  C   UNL d   1      20.483 -19.655  -0.133  0.00  0.00     0.189 A 
ATOM     21  N   UNL d   1      21.766 -19.600   0.228  0.00  0.00    -0.210 NA
ATOM     22  C   UNL d   1      22.475 -18.505  -0.129  0.00  0.00     0.146 A 
ATOM     23 CL   UNL d   1      24.027 -18.567   0.596  0.00  0.00    -0.061 Cl
BRANCH  20  24
ATOM     24  S   UNL d   1      19.594 -21.032   0.551  0.00  0.00    -0.095 SA
ATOM     25  C   UNL d   1      18.427 -20.265   1.696  0.00  0.00     0.099 C 
ENDBRANCH  20  24
ENDBRANCH  14  17
ENDBRANCH  12  13
ENDBRANCH   1  12
BRANCH   1  26
ATOM     26  N   UNL d   1      26.956 -15.191  -1.186  0.00  0.00    -0.061 N 
ATOM     27  C   UNL d   1      26.636 -14.829   0.266  0.00  0.00     0.236 C 
ATOM     28  C   UNL d   1      27.416 -15.685   1.230  0.00  0.00     0.028 C 
ATOM     29  C   UNL d   1      27.304 -17.165   0.920  0.00  0.00     0.003 C 
ATOM     30  C   UNL d   1      27.874 -17.458  -0.455  0.00  0.00     0.028 C 
ATOM     31  C   UNL d   1      27.098 -16.730  -1.538  0.00  0.00     0.236 C 
ATOM     32  H   UNL d   1      27.897 -14.823  -1.367  0.00  0.00     0.280 HD
ENDBRANCH   1  26
TORSDOF 8
ENDMDL
MODEL 2
REMARK VINA RESULT:   -28.864      1.838      4.603
REMARK INTER + INTRA:         -32.908
REMARK INTER:                 -31.250
REMARK INTRA:                  -1.658
REMARK CONF_INDEPENDENT:        2.386
REMARK UNBOUND:                -1.658
REMARK  8 active torsions:
REMARK  status: ('A' for Active; 'I' for Inactive)
REMARK    1  A    between atoms: O_2  and  C_3 
REMARK    2  A    between atoms: C_6  and  O_7 
REMARK    3  A    between atoms: C_9  and  C_10 
REMARK    4  A    between atoms: C_10  and  C_11 
REMARK    5  A    between atoms: C_10  and  N_24 
REMARK    6  A    between atoms: C_11  and  N_12 
REMARK       I    between atoms: N_12  and  C_13 
REMARK    7  A    between atoms: C_13  and  C_15 
REMARK    8  A    between atoms: C_18  and  S_19 
ROOT
ATOM      1  C   UNL d   1      26.664 -15.392  -2.236  0.00  0.00     0.241 C 
ENDROOT
BRANCH   1   2
ATOM      2  C   UNL d   1      27.221 -15.084  -0.885  0.00  0.00     0.010 C 
ATOM      3  C   UNL d   1      27.098 -15.970   0.161  0.00  0.00     0.076 C 
ATOM      4  C   UNL d   1      27.448 -15.447   1.429  0.00  0.00     0.040 C 
ATOM      5  C   UNL d   1      27.998 -14.139   1.621  0.00  0.00     0.039 C 
ATOM      6  C   UNL d   1      28.267 -13.331   0.544  0.00  0.00     0.069 C 
ATOM      7  C   UNL d   1      27.853 -13.831  -0.656  0.00  0.00     0.049 C 
BRANCH   3   8
ATOM      8  O   UNL d   1      26.547 -17.231   0.094  0.00  0.00    -0.355 OA
ATOM      9  C   UNL d   1      27.174 -18.537   0.231  0.00  0.00     0.210 C 
ENDBRANCH   3   8
BRANCH   6  10
ATOM     10  O   UNL d   1      28.971 -12.169   0.668  0.00  0.00    -0.356 OA
ATOM     11  C   UNL d   1      28.363 -10.953   0.210  0.00  0.00     0.210 C 
ENDBRANCH   6  10
ENDBRANCH   1   2
BRANCH   1  12
ATOM     12  C   UNL d   1      25.024 -15.220  -2.238  0.00  0.00     0.161 C 
BRANCH  12  13
ATOM     13  N   UNL d   1      24.167 -16.142  -1.380  0.00  0.00    -0.354 N 
ATOM     14  C   UNL d   1      22.781 -16.104  -1.274  0.00  0.00     0.256 C 
ATOM     15  O   UNL d   1      22.157 -15.082  -1.613  0.00  0.00    -0.268 OA
ATOM     16  H   UNL d   1      24.572 -17.037  -1.106  0.00  0.00     0.162 HD
BRANCH  14  17
ATOM     17  C   UNL d   1      22.008 -17.343  -0.877  0.00  0.00     0.090 A 
ATOM     18  C   UNL d   1      20.687 -17.513  -1.270  0.00  0.00     0.139 A 
ATOM     19  N   UNL d   1      19.889 -18.581  -0.946  0.00  0.00    -0.234 NA
ATOM     20  C   UNL d   1      20.445 -19.545  -0.200  0.00  0.00     0.189 A 
ATOM     21  N   UNL d   1      21.724 -19.516   0.178  0.00  0.00    -0.210 NA
ATOM     22  C   UNL d   1      22.450 -18.421  -0.142  0.00  0.00     0.146 A 
ATOM     23 CL   UNL d   1      23.992 -18.521   0.600  0.00  0.00    -0.061 Cl
BRANCH  20  24
ATOM     24  S   UNL d   1      19.530 -20.928   0.438  0.00  0.00    -0.095 SA
ATOM     25  C   UNL d   1      19.264 -20.505   2.174  0.00  0.00     0.099 C 
ENDBRANCH  20  24
ENDBRANCH  14  17
ENDBRANCH  12  13
ENDBRANCH   1  12
BRANCH   1  26
ATOM     26  N   UNL d   1      27.381 -14.602  -3.379  0.00  0.00    -0.061 N 
ATOM     27  C   UNL d   1      28.264 -15.524  -4.224  0.00  0.00     0.236 C 
ATOM     28  C   UNL d   1      28.823 -14.802  -5.422  0.00  0.00     0.028 C 
ATOM     29  C   UNL d   1      27.757 -14.068  -6.212  0.00  0.00     0.003 C 
ATOM     30  C   UNL d   1      27.104 -13.004  -5.351  0.00  0.00     0.028 C 
ATOM     31  C   UNL d   1      26.405 -13.621  -4.151  0.00  0.00     0.236 C 
ATOM     32  H   UNL d   1      28.023 -13.961  -2.899  0.00  0.00     0.280 HD
ENDBRANCH   1  26
TORSDOF 8
ENDMDL
MODEL 3
REMARK VINA RESULT:   -28.819      1.780      4.162
REMARK INTER + INTRA:         -33.000
REMARK INTER:                 -31.206
REMARK INTRA:                  -1.795
REMARK CONF_INDEPENDENT:        2.386
REMARK UNBOUND:                -1.795
REMARK  8 active torsions:
REMARK  status: ('A' for Active; 'I' for Inactive)
REMARK    1  A    between atoms: O_2  and  C_3 
REMARK    2  A    between atoms: C_6  and  O_7 
REMARK    3  A    between atoms: C_9  and  C_10 
REMARK    4  A    between atoms: C_10  and  C_11 
REMARK    5  A    between atoms: C_10  and  N_24 
REMARK    6  A    between atoms: C_11  and  N_12 
REMARK       I    between atoms: N_12  and  C_13 
REMARK    7  A    between atoms: C_13  and  C_15 
REMARK    8  A    between atoms: C_18  and  S_19 
ROOT
ATOM      1  C   UNL d   1      26.709 -15.194  -1.957  0.00  0.00     0.241 C 
ENDROOT
BRANCH   1   2
ATOM      2  C   UNL d   1      26.918 -14.231  -0.834  0.00  0.00     0.010 C 
ATOM      3  C   UNL d   1      26.911 -12.871  -1.046  0.00  0.00     0.076 C 
ATOM      4  C   UNL d   1      27.365 -12.096   0.048  0.00  0.00     0.040 C 
ATOM      5  C   UNL d   1      27.702 -12.651   1.325  0.00  0.00     0.039 C 
ATOM      6  C   UNL d   1      27.544 -13.993   1.565  0.00  0.00     0.069 C 
ATOM      7  C   UNL d   1      27.175 -14.725   0.473  0.00  0.00     0.049 C 
BRANCH   3   8
ATOM      8  O   UNL d   1      26.644 -12.238  -2.240  0.00  0.00    -0.355 OA
ATOM      9  C   UNL d   1      25.534 -12.410  -3.165  0.00  0.00     0.210 C 
ENDBRANCH   3   8
BRANCH   6  10
ATOM     10  O   UNL d   1      27.661 -14.524   2.816  0.00  0.00    -0.356 OA
ATOM     11  C   UNL d   1      28.290 -13.735   3.836  0.00  0.00     0.210 C 
ENDBRANCH   6  10
ENDBRANCH   1   2
BRANCH   1  12
ATOM     12  C   UNL d   1      25.102 -15.349  -2.294  0.00  0.00     0.161 C 
BRANCH  12  13
ATOM     13  N   UNL d   1      24.229 -16.240  -1.418  0.00  0.00    -0.354 N 
ATOM     14  C   UNL d   1      22.845 -16.170  -1.307  0.00  0.00     0.256 C 
ATOM     15  O   UNL d   1      22.242 -15.140  -1.659  0.00  0.00    -0.268 OA
ATOM     16  H   UNL d   1      24.616 -17.138  -1.131  0.00  0.00     0.162 HD
BRANCH  14  17
ATOM     17  C   UNL d   1      22.047 -17.385  -0.887  0.00  0.00     0.090 A 
ATOM     18  C   UNL d   1      20.722 -17.534  -1.272  0.00  0.00     0.139 A 
ATOM     19  N   UNL d   1      19.902 -18.579  -0.927  0.00  0.00    -0.234 NA
ATOM     20  C   UNL d   1      20.441 -19.542  -0.168  0.00  0.00     0.189 A 
ATOM     21  N   UNL d   1      21.722 -19.534   0.204  0.00  0.00    -0.210 NA
ATOM     22  C   UNL d   1      22.470 -18.461  -0.136  0.00  0.00     0.146 A 
ATOM     23 CL   UNL d   1      24.013 -18.582   0.601  0.00  0.00    -0.061 Cl
BRANCH  20  24
ATOM     24  S   UNL d   1      19.500 -20.895   0.496  0.00  0.00    -0.095 SA
ATOM     25  C   UNL d   1      18.979 -20.301   2.121  0.00  0.00     0.099 C 
ENDBRANCH  20  24
ENDBRANCH  14  17
ENDBRANCH  12  13
ENDBRANCH   1  12
BRANCH   1  26
ATOM     26  N   UNL d   1      27.586 -14.862  -3.208  0.00  0.00    -0.061 N 
ATOM     27  C   UNL d   1      29.016 -15.380  -3.039  0.00  0.00     0.236 C 
ATOM     28  C   UNL d   1      29.815 -15.210  -4.305  0.00  0.00     0.028 C 
ATOM     29  C   UNL d   1      29.098 -15.754  -5.525  0.00  0.00     0.003 C 
ATOM     30  C   UNL d   1      27.798 -15.007  -5.749  0.00  0.00     0.028 C 
ATOM     31  C   UNL d   1      26.851 -15.188  -4.575  0.00  0.00     0.236 C 
ATOM     32  H   UNL d   1      27.656 -13.839  -3.221  0.00  0.00     0.280 HD
ENDBRANCH   1  26
TORSDOF 8
ENDMDL
MODEL 4
REMARK VINA RESULT:   -28.392      1.250      2.328
REMARK INTER + INTRA:         -33.031
REMARK INTER:                 -30.778
REMARK INTRA:                  -2.253
REMARK CONF_INDEPENDENT:        2.386
REMARK UNBOUND:                -2.253
REMARK  8 active torsions:
REMARK  status: ('A' for Active; 'I' for Inactive)
REMARK    1  A    between atoms: O_2  and  C_3 
REMARK    2  A    between atoms: C_6  and  O_7 
REMARK    3  A    between atoms: C_9  and  C_10 
REMARK    4  A    between atoms: C_10  and  C_11 
REMARK    5  A    between atoms: C_10  and  N_24 
REMARK    6  A    between atoms: C_11  and  N_12 
REMARK       I    between atoms: N_12  and  C_13 
REMARK    7  A    between atoms: C_13  and  C_15 
REMARK    8  A    between atoms: C_18  and  S_19 
ROOT
ATOM      1  C   UNL d   1      25.942 -14.355  -2.145  0.00  0.00     0.241 C 
ENDROOT
BRANCH   1   2
ATOM      2  C   UNL d   1      26.616 -13.633  -3.266  0.00  0.00     0.010 C 
ATOM      3  C   UNL d   1      27.874 -13.990  -3.695  0.00  0.00     0.076 C 
ATOM      4  C   UNL d   1      28.482 -13.071  -4.584  0.00  0.00     0.040 C 
ATOM      5  C   UNL d   1      27.818 -11.913  -5.101  0.00  0.00     0.039 C 
ATOM      6  C   UNL d   1      26.505 -11.664  -4.788  0.00  0.00     0.069 C 
ATOM      7  C   UNL d   1      25.968 -12.524  -3.875  0.00  0.00     0.049 C 
BRANCH   3   8
ATOM      8  O   UNL d   1      28.616 -15.055  -3.235  0.00  0.00    -0.355 OA
ATOM      9  C   UNL d   1      29.786 -15.701  -3.810  0.00  0.00     0.210 C 
ENDBRANCH   3   8
BRANCH   6  10
ATOM     10  O   UNL d   1      25.782 -10.691  -5.414  0.00  0.00    -0.356 OA
ATOM     11  C   UNL d   1      25.388  -9.540  -4.653  0.00  0.00     0.210 C 
ENDBRANCH   6  10
ENDBRANCH   1   2
BRANCH   1  12
ATOM     12  C   UNL d   1      24.705 -15.283  -2.717  0.00  0.00     0.161 C 
BRANCH  12  13
ATOM     13  N   UNL d   1      24.033 -16.296  -1.799  0.00  0.00    -0.354 N 
ATOM     14  C   UNL d   1      22.743 -16.205  -1.288  0.00  0.00     0.256 C 
ATOM     15  O   UNL d   1      22.155 -15.109  -1.270  0.00  0.00    -0.268 OA
ATOM     16  H   UNL d   1      24.407 -17.244  -1.794  0.00  0.00     0.162 HD
BRANCH  14  17
ATOM     17  C   UNL d   1      21.991 -17.452  -0.877  0.00  0.00     0.090 A 
ATOM     18  C   UNL d   1      20.675 -17.652  -1.270  0.00  0.00     0.139 A 
ATOM     19  N   UNL d   1      19.895 -18.730  -0.933  0.00  0.00    -0.234 NA
ATOM     20  C   UNL d   1      20.468 -19.674  -0.174  0.00  0.00     0.189 A 
ATOM     21  N   UNL d   1      21.745 -19.616   0.206  0.00  0.00    -0.210 NA
ATOM     22  C   UNL d   1      22.452 -18.513  -0.127  0.00  0.00     0.146 A 
ATOM     23 CL   UNL d   1      23.994 -18.575   0.620  0.00  0.00    -0.061 Cl
BRANCH  20  24
ATOM     24  S   UNL d   1      19.577 -21.065   0.480  0.00  0.00    -0.095 SA
ATOM     25  C   UNL d   1      19.152 -20.553   2.160  0.00  0.00     0.099 C 
ENDBRANCH  20  24
ENDBRANCH  14  17
ENDBRANCH  12  13
ENDBRANCH   1  12
BRANCH   1  26
ATOM     26  N   UNL d   1      26.949 -15.137  -1.239  0.00  0.00    -0.061 N 
ATOM     27  C   UNL d   1      26.930 -14.610   0.197  0.00  0.00     0.236 C 
ATOM     28  C   UNL d   1      27.772 -15.466   1.107  0.00  0.00     0.028 C 
ATOM     29  C   UNL d   1      27.450 -16.942   0.984  0.00  0.00     0.003 C 
ATOM     30  C   UNL d   1      27.734 -17.426  -0.425  0.00  0.00     0.028 C 
ATOM     31  C   UNL d   1      26.861 -16.707  -1.440  0.00  0.00     0.236 C 
ATOM     32  H   UNL d   1      27.877 -14.907  -1.611  0.00  0.00     0.280 HD
ENDBRANCH   1  26
TORSDOF 8
ENDMDL
MODEL 5
REMARK VINA RESULT:   -27.999      1.613      4.278
REMARK INTER + INTRA:         -32.640
REMARK INTER:                 -30.386
REMARK INTRA:                  -2.254
REMARK CONF_INDEPENDENT:        2.386
REMARK UNBOUND:                -2.254
REMARK  8 active torsions:
REMARK  status: ('A' for Active; 'I' for Inactive)
REMARK    1  A    between atoms: O_2  and  C_3 
REMARK    2  A    between atoms: C_6  and  O_7 
REMARK    3  A    between atoms: C_9  and  C_10 
REMARK    4  A    between atoms: C_10  and  C_11 
REMARK    5  A    between atoms: C_10  and  N_24 
REMARK    6  A    between atoms: C_11  and  N_12 
REMARK       I    between atoms: N_12  and  C_13 
REMARK    7  A    between atoms: C_13  and  C_15 
REMARK    8  A    between atoms: C_18  and  S_19 
ROOT
ATOM      1  C   UNL d   1      26.180 -14.871  -2.719  0.00  0.00     0.241 C 
ENDROOT
BRANCH   1   2
ATOM      2  C   UNL d   1      26.692 -14.978  -1.320  0.00  0.00     0.010 C 
ATOM      3  C   UNL d   1      27.273 -13.904  -0.686  0.00  0.00     0.076 C 
ATOM      4  C   UNL d   1      27.929 -14.215   0.530  0.00  0.00     0.040 C 
ATOM      5  C   UNL d   1      27.907 -15.514   1.130  0.00  0.00     0.039 C 
ATOM      6  C   UNL d   1      27.183 -16.532   0.563  0.00  0.00     0.069 C 
ATOM      7  C   UNL d   1      26.621 -16.225  -0.642  0.00  0.00     0.049 C 
BRANCH   3   8
ATOM      8  O   UNL d   1      27.384 -12.627  -1.191  0.00  0.00    -0.355 OA
ATOM      9  C   UNL d   1      28.498 -11.691  -1.137  0.00  0.00     0.210 C 
ENDBRANCH   3   8
BRANCH   6  10
ATOM     10  O   UNL d   1      26.974 -17.718   1.205  0.00  0.00    -0.356 OA
ATOM     11  C   UNL d   1      27.244 -18.934   0.493  0.00  0.00     0.210 C 
ENDBRANCH   6  10
ENDBRANCH   1   2
BRANCH   1  12
ATOM     12  C   UNL d   1      24.555 -15.148  -2.763  0.00  0.00     0.161 C 
BRANCH  12  13
ATOM     13  N   UNL d   1      23.945 -16.214  -1.862  0.00  0.00    -0.354 N 
ATOM     14  C   UNL d   1      22.688 -16.163  -1.272  0.00  0.00     0.256 C 
ATOM     15  O   UNL d   1      22.094 -15.075  -1.160  0.00  0.00    -0.268 OA
ATOM     16  H   UNL d   1      24.325 -17.158  -1.930  0.00  0.00     0.162 HD
BRANCH  14  17
ATOM     17  C   UNL d   1      21.970 -17.438  -0.884  0.00  0.00     0.090 A 
ATOM     18  C   UNL d   1      20.655 -17.660  -1.270  0.00  0.00     0.139 A 
ATOM     19  N   UNL d   1      19.905 -18.764  -0.952  0.00  0.00    -0.234 NA
ATOM     20  C   UNL d   1      20.507 -19.712  -0.221  0.00  0.00     0.189 A 
ATOM     21  N   UNL d   1      21.786 -19.633   0.148  0.00  0.00    -0.210 NA
ATOM     22  C   UNL d   1      22.463 -18.505  -0.164  0.00  0.00     0.146 A 
ATOM     23 CL   UNL d   1      24.013 -18.548   0.566  0.00  0.00    -0.061 Cl
BRANCH  20  24
ATOM     24  S   UNL d   1      19.656 -21.140   0.407  0.00  0.00    -0.095 SA
ATOM     25  C   UNL d   1      18.704 -20.495   1.800  0.00  0.00     0.099 C 
ENDBRANCH  20  24
ENDBRANCH  14  17
ENDBRANCH  12  13
ENDBRANCH   1  12
BRANCH   1  26
ATOM     26  N   UNL d   1      26.611 -13.542  -3.421  0.00  0.00    -0.061 N 
ATOM     27  C   UNL d   1      27.346 -13.818  -4.734  0.00  0.00     0.236 C 
ATOM     28  C   UNL d   1      27.616 -12.544  -5.491  0.00  0.00     0.028 C 
ATOM     29  C   UNL d   1      26.378 -11.682  -5.643  0.00  0.00     0.003 C 
ATOM     30  C   UNL d   1      25.863 -11.257  -4.281  0.00  0.00     0.028 C 
ATOM     31  C   UNL d   1      25.453 -12.460  -3.449  0.00  0.00     0.236 C 
ATOM     32  H   UNL d   1      27.305 -13.122  -2.792  0.00  0.00     0.280 HD
ENDBRANCH   1  26
TORSDOF 8
ENDMDL
MODEL 6
REMARK VINA RESULT:   -27.631      1.978      3.884
REMARK INTER + INTRA:         -30.998
REMARK INTER:                 -30.017
REMARK INTRA:                  -0.980
REMARK CONF_INDEPENDENT:        2.386
REMARK UNBOUND:                -0.980
REMARK  8 active torsions:
REMARK  status: ('A' for Active; 'I' for Inactive)
REMARK    1  A    between atoms: O_2  and  C_3 
REMARK    2  A    between atoms: C_6  and  O_7 
REMARK    3  A    between atoms: C_9  and  C_10 
REMARK    4  A    between atoms: C_10  and  C_11 
REMARK    5  A    between atoms: C_10  and  N_24 
REMARK    6  A    between atoms: C_11  and  N_12 
REMARK       I    between atoms: N_12  and  C_13 
REMARK    7  A    between atoms: C_13  and  C_15 
REMARK    8  A    between atoms: C_18  and  S_19 
ROOT
ATOM      1  C   UNL d   1      26.442 -15.618  -2.415  0.00  0.00     0.241 C 
ENDROOT
BRANCH   1   2
ATOM      2  C   UNL d   1      27.462 -15.989  -1.389  0.00  0.00     0.010 C 
ATOM      3  C   UNL d   1      27.572 -15.296  -0.204  0.00  0.00     0.076 C 
ATOM      4  C   UNL d   1      28.731 -15.594   0.553  0.00  0.00     0.040 C 
ATOM      5  C   UNL d   1      29.670 -16.613   0.194  0.00  0.00     0.039 C 
ATOM      6  C   UNL d   1      29.454 -17.405  -0.905  0.00  0.00     0.069 C 
ATOM      7  C   UNL d   1      28.371 -17.049  -1.656  0.00  0.00     0.049 C 
BRANCH   3   8
ATOM      8  O   UNL d   1      26.751 -14.274   0.216  0.00  0.00    -0.355 OA
ATOM      9  C   UNL d   1      27.085 -12.975   0.783  0.00  0.00     0.210 C 
ENDBRANCH   3   8
BRANCH   6  10
ATOM     10  O   UNL d   1      30.213 -18.508  -1.165  0.00  0.00    -0.356 OA
ATOM     11  C   UNL d   1      31.279 -18.393  -2.119  0.00  0.00     0.210 C 
ENDBRANCH   6  10
ENDBRANCH   1   2
BRANCH   1  12
ATOM     12  C   UNL d   1      25.091 -15.008  -1.692  0.00  0.00     0.161 C 
BRANCH  12  13
ATOM     13  N   UNL d   1      24.125 -15.948  -0.981  0.00  0.00    -0.354 N 
ATOM     14  C   UNL d   1      22.757 -16.037  -1.208  0.00  0.00     0.256 C 
ATOM     15  O   UNL d   1      22.156 -15.107  -1.776  0.00  0.00    -0.268 OA
ATOM     16  H   UNL d   1      24.520 -16.777  -0.538  0.00  0.00     0.162 HD
BRANCH  14  17
ATOM     17  C   UNL d   1      22.008 -17.314  -0.893  0.00  0.00     0.090 A 
ATOM     18  C   UNL d   1      20.682 -17.473  -1.270  0.00  0.00     0.139 A 
ATOM     19  N   UNL d   1      19.905 -18.575  -1.014  0.00  0.00    -0.234 NA
ATOM     20  C   UNL d   1      20.490 -19.586  -0.358  0.00  0.00     0.189 A 
ATOM     21  N   UNL d   1      21.777 -19.567  -0.006  0.00  0.00    -0.210 NA
ATOM     22  C   UNL d   1      22.481 -18.440  -0.254  0.00  0.00     0.146 A 
ATOM     23 CL   UNL d   1      24.041 -18.575   0.445  0.00  0.00    -0.061 Cl
BRANCH  20  24
ATOM     24  S   UNL d   1      19.608 -21.028   0.189  0.00  0.00    -0.095 SA
ATOM     25  C   UNL d   1      18.330 -20.363   1.279  0.00  0.00     0.099 C 
ENDBRANCH  20  24
ENDBRANCH  14  17
ENDBRANCH  12  13
ENDBRANCH   1  12
BRANCH   1  26
ATOM     26  N   UNL d   1      27.023 -14.700  -3.540  0.00  0.00    -0.061 N 
ATOM     27  C   UNL d   1      28.463 -14.284  -3.231  0.00  0.00     0.236 C 
ATOM     28  C   UNL d   1      29.080 -13.541  -4.387  0.00  0.00     0.028 C 
ATOM     29  C   UNL d   1      28.914 -14.271  -5.705  0.00  0.00     0.003 C 
ATOM     30  C   UNL d   1      27.443 -14.420  -6.043  0.00  0.00     0.028 C 
ATOM     31  C   UNL d   1      26.721 -15.251  -4.995  0.00  0.00     0.236 C 
ATOM     32  H   UNL d   1      26.465 -13.840  -3.497  0.00  0.00     0.280 HD
ENDBRANCH   1  26
TORSDOF 8
ENDMDL
