MODEL 1
REMARK VINA RESULT:    -6.911      0.000      0.000
REMARK INTER + INTRA:         -10.642
REMARK INTER:                  -9.298
REMARK INTRA:                  -1.344
REMARK CONF_INDEPENDENT:        2.386
REMARK UNBOUND:                -1.344
REMARK  8 active torsions:
REMARK  status: ('A' for Active; 'I' for Inactive)
REMARK    1  A    between atoms: N_2  and  C_4 
REMARK    2  A    between atoms: C_5  and  N_6 
REMARK    3  A    between atoms: N_6  and  C_7 
REMARK    4  A    between atoms: C_7  and  C_8 
REMARK    5  A    between atoms: C_8  and  C_9 
REMARK    6  A    between atoms: C_9  and  O_10 
REMARK    7  A    between atoms: C_12  and  N_13 
REMARK    8  A    between atoms: N_16  and  C_17 
ROOT
ATOM      1  C   UNL d   1      25.628 -14.746  -2.736  0.00  0.00     0.162 A 
ATOM      2  C   UNL d   1      25.437 -15.728  -1.738  0.00  0.00     0.066 A 
ATOM      3  C   UNL d   1      25.949 -15.472  -0.423  0.00  0.00     0.063 A 
ATOM      4  C   UNL d   1      26.608 -14.294   0.031  0.00  0.00     0.066 A 
ATOM      5  C   UNL d   1      26.748 -13.326  -1.004  0.00  0.00     0.146 A 
ATOM      6  N   UNL d   1      27.316 -12.113  -0.953  0.00  0.00    -0.101 NA
ATOM      7  O   UNL d   1      27.219 -11.591  -2.230  0.00  0.00    -0.106 OA
ATOM      8  N   UNL d   1      26.561 -12.448  -3.087  0.00  0.00    -0.100 NA
ATOM      9  C   UNL d   1      26.271 -13.547  -2.377  0.00  0.00     0.155 A 
ENDROOT
BRANCH   4  10
ATOM     10  N   UNL d   1      26.993 -14.182   1.357  0.00  0.00    -0.376 N 
ATOM     11  C   UNL d   1      27.833 -15.184   2.019  0.00  0.00     0.143 C 
ATOM     12  C   UNL d   1      29.032 -14.449   2.707  0.00  0.00     0.144 C 
ATOM     13  N   UNL d   1      28.572 -13.354   3.599  0.00  0.00    -0.364 N 
ATOM     14  C   UNL d   1      27.606 -12.416   2.961  0.00  0.00     0.144 C 
ATOM     15  C   UNL d   1      26.443 -13.149   2.244  0.00  0.00     0.143 C 
BRANCH  13  16
ATOM     16  C   UNL d   1      28.813 -13.334   4.948  0.00  0.00     0.102 A 
ATOM     17  C   UNL d   1      27.970 -12.732   5.891  0.00  0.00     0.048 A 
ATOM     18  C   UNL d   1      28.382 -12.578   7.219  0.00  0.00     0.005 A 
ATOM     19  C   UNL d   1      29.604 -13.095   7.622  0.00  0.00     0.017 A 
ATOM     20  C   UNL d   1      30.371 -13.775   6.690  0.00  0.00     0.089 A 
ATOM     21  N   UNL d   1      29.974 -13.841   5.406  0.00  0.00    -0.352 N 
ATOM     22  H   UNL d   1      30.600 -14.243   4.714  0.00  0.00     0.166 HD
ENDBRANCH  13  16
ENDBRANCH   4  10
BRANCH   2  23
ATOM     23  N   UNL d   1      24.863 -16.967  -2.038  0.00  0.00    -0.388 N 
ATOM     24  H   UNL d   1      24.682 -17.173  -3.026  0.00  0.00     0.159 HD
BRANCH  23  25
ATOM     25  C   UNL d   1      24.115 -17.744  -1.066  0.00  0.00     0.122 C 
BRANCH  25  26
ATOM     26  C   UNL d   1      22.709 -17.190  -0.889  0.00  0.00     0.045 C 
BRANCH  26  27
ATOM     27  C   UNL d   1      21.702 -18.330  -0.892  0.00  0.00     0.165 C 
BRANCH  27  28
ATOM     28  O   UNL d   1      20.381 -17.823  -0.912  0.00  0.00    -0.401 OA
ATOM     29  H   UNL d   1      20.277 -17.274  -1.710  0.00  0.00     0.209 HD
ENDBRANCH  27  28
ENDBRANCH  26  27
ENDBRANCH  25  26
ENDBRANCH  23  25
ENDBRANCH   2  23
BRANCH   1  30
ATOM     30  N   UNL d   1      25.171 -14.922  -4.093  0.00  0.00    -0.111 N 
ATOM     31  O   UNL d   1      25.528 -15.950  -4.681  0.00  0.00    -0.532 OA
ATOM     32  O   UNL d   1      24.500 -14.010  -4.601  0.00  0.00    -0.532 OA
ENDBRANCH   1  30
TORSDOF 8
ENDMDL
MODEL 2
REMARK VINA RESULT:    -6.758      4.242      7.918
REMARK INTER + INTRA:         -11.935
REMARK INTER:                  -9.144
REMARK INTRA:                  -2.791
REMARK CONF_INDEPENDENT:        2.386
REMARK UNBOUND:                -2.791
REMARK  8 active torsions:
REMARK  status: ('A' for Active; 'I' for Inactive)
REMARK    1  A    between atoms: N_2  and  C_4 
REMARK    2  A    between atoms: C_5  and  N_6 
REMARK    3  A    between atoms: N_6  and  C_7 
REMARK    4  A    between atoms: C_7  and  C_8 
REMARK    5  A    between atoms: C_8  and  C_9 
REMARK    6  A    between atoms: C_9  and  O_10 
REMARK    7  A    between atoms: C_12  and  N_13 
REMARK    8  A    between atoms: N_16  and  C_17 
ROOT
ATOM      1  C   UNL d   1      27.785 -14.886  -2.074  0.00  0.00     0.162 A 
ATOM      2  C   UNL d   1      27.866 -15.811  -1.008  0.00  0.00     0.066 A 
ATOM      3  C   UNL d   1      26.658 -16.440  -0.559  0.00  0.00     0.063 A 
ATOM      4  C   UNL d   1      25.350 -16.279  -1.099  0.00  0.00     0.066 A 
ATOM      5  C   UNL d   1      25.329 -15.362  -2.188  0.00  0.00     0.146 A 
ATOM      6  N   UNL d   1      24.290 -14.958  -2.932  0.00  0.00    -0.101 NA
ATOM      7  O   UNL d   1      24.797 -14.042  -3.834  0.00  0.00    -0.106 OA
ATOM      8  N   UNL d   1      26.160 -13.884  -3.696  0.00  0.00    -0.100 NA
ATOM      9  C   UNL d   1      26.530 -14.664  -2.671  0.00  0.00     0.155 A 
ENDROOT
BRANCH   4  10
ATOM     10  N   UNL d   1      24.291 -17.007  -0.582  0.00  0.00    -0.376 N 
ATOM     11  C   UNL d   1      23.018 -16.387  -0.205  0.00  0.00     0.143 C 
ATOM     12  C   UNL d   1      21.857 -17.183  -0.888  0.00  0.00     0.144 C 
ATOM     13  N   UNL d   1      21.935 -18.636  -0.596  0.00  0.00    -0.364 N 
ATOM     14  C   UNL d   1      23.276 -19.236  -0.848  0.00  0.00     0.144 C 
ATOM     15  C   UNL d   1      24.428 -18.420  -0.206  0.00  0.00     0.143 C 
BRANCH  13  16
ATOM     16  C   UNL d   1      20.953 -19.322   0.070  0.00  0.00     0.102 A 
ATOM     17  C   UNL d   1      19.857 -19.935  -0.553  0.00  0.00     0.048 A 
ATOM     18  C   UNL d   1      18.796 -20.439   0.206  0.00  0.00     0.005 A 
ATOM     19  C   UNL d   1      18.865 -20.400   1.591  0.00  0.00     0.017 A 
ATOM     20  C   UNL d   1      20.007 -19.881   2.179  0.00  0.00     0.089 A 
ATOM     21  N   UNL d   1      20.975 -19.340   1.417  0.00  0.00    -0.352 N 
ATOM     22  H   UNL d   1      21.750 -18.862   1.866  0.00  0.00     0.166 HD
ENDBRANCH  13  16
ENDBRANCH   4  10
BRANCH   2  23
ATOM     23  N   UNL d   1      29.067 -16.033  -0.329  0.00  0.00    -0.388 N 
ATOM     24  H   UNL d   1      29.468 -15.243   0.186  0.00  0.00     0.159 HD
BRANCH  23  25
ATOM     25  C   UNL d   1      29.976 -17.113  -0.670  0.00  0.00     0.122 C 
BRANCH  25  26
ATOM     26  C   UNL d   1      31.346 -16.573  -1.050  0.00  0.00     0.045 C 
BRANCH  26  27
ATOM     27  C   UNL d   1      31.690 -15.378  -0.173  0.00  0.00     0.165 C 
BRANCH  27  28
ATOM     28  O   UNL d   1      31.136 -14.193  -0.714  0.00  0.00    -0.401 OA
ATOM     29  H   UNL d   1      30.463 -14.443  -1.371  0.00  0.00     0.209 HD
ENDBRANCH  27  28
ENDBRANCH  26  27
ENDBRANCH  25  26
ENDBRANCH  23  25
ENDBRANCH   2  23
BRANCH   1  30
ATOM     30  N   UNL d   1      28.941 -14.186  -2.581  0.00  0.00    -0.111 N 
ATOM     31  O   UNL d   1      29.082 -13.007  -2.237  0.00  0.00    -0.532 OA
ATOM     32  O   UNL d   1      29.684 -14.790  -3.371  0.00  0.00    -0.532 OA
ENDBRANCH   1  30
TORSDOF 8
ENDMDL
MODEL 3
REMARK VINA RESULT:    -6.570      4.904      7.843
REMARK INTER + INTRA:         -11.902
REMARK INTER:                  -8.957
REMARK INTRA:                  -2.945
REMARK CONF_INDEPENDENT:        2.386
REMARK UNBOUND:                -2.945
REMARK  8 active torsions:
REMARK  status: ('A' for Active; 'I' for Inactive)
REMARK    1  A    between atoms: N_2  and  C_4 
REMARK    2  A    between atoms: C_5  and  N_6 
REMARK    3  A    between atoms: N_6  and  C_7 
REMARK    4  A    between atoms: C_7  and  C_8 
REMARK    5  A    between atoms: C_8  and  C_9 
REMARK    6  A    between atoms: C_9  and  O_10 
REMARK    7  A    between atoms: C_12  and  N_13 
REMARK    8  A    between atoms: N_16  and  C_17 
ROOT
ATOM      1  C   UNL d   1      27.410 -15.270  -2.701  0.00  0.00     0.162 A 
ATOM      2  C   UNL d   1      26.065 -15.198  -3.131  0.00  0.00     0.066 A 
ATOM      3  C   UNL d   1      25.080 -15.957  -2.416  0.00  0.00     0.063 A 
ATOM      4  C   UNL d   1      25.285 -16.765  -1.262  0.00  0.00     0.066 A 
ATOM      5  C   UNL d   1      26.649 -16.779  -0.853  0.00  0.00     0.146 A 
ATOM      6  N   UNL d   1      27.215 -17.426   0.176  0.00  0.00    -0.101 NA
ATOM      7  O   UNL d   1      28.565 -17.134   0.116  0.00  0.00    -0.106 OA
ATOM      8  N   UNL d   1      28.860 -16.274  -0.922  0.00  0.00    -0.100 NA
ATOM      9  C   UNL d   1      27.706 -16.046  -1.565  0.00  0.00     0.155 A 
ENDROOT
BRANCH   4  10
ATOM     10  N   UNL d   1      24.209 -17.392  -0.654  0.00  0.00    -0.376 N 
ATOM     11  C   UNL d   1      22.973 -16.681  -0.316  0.00  0.00     0.143 C 
ATOM     12  C   UNL d   1      21.763 -17.487  -0.895  0.00  0.00     0.144 C 
ATOM     13  N   UNL d   1      21.786 -18.907  -0.462  0.00  0.00    -0.364 N 
ATOM     14  C   UNL d   1      23.093 -19.588  -0.680  0.00  0.00     0.144 C 
ATOM     15  C   UNL d   1      24.294 -18.766  -0.144  0.00  0.00     0.143 C 
BRANCH  13  16
ATOM     16  C   UNL d   1      20.792 -19.480   0.287  0.00  0.00     0.102 A 
ATOM     17  C   UNL d   1      19.642 -20.075  -0.251  0.00  0.00     0.048 A 
ATOM     18  C   UNL d   1      18.583 -20.456   0.580  0.00  0.00     0.005 A 
ATOM     19  C   UNL d   1      18.702 -20.312   1.954  0.00  0.00     0.017 A 
ATOM     20  C   UNL d   1      19.892 -19.815   2.462  0.00  0.00     0.089 A 
ATOM     21  N   UNL d   1      20.861 -19.394   1.629  0.00  0.00    -0.352 N 
ATOM     22  H   UNL d   1      21.677 -18.927   2.014  0.00  0.00     0.166 HD
ENDBRANCH  13  16
ENDBRANCH   4  10
BRANCH   2  23
ATOM     23  N   UNL d   1      25.709 -14.498  -4.286  0.00  0.00    -0.388 N 
ATOM     24  H   UNL d   1      26.323 -14.595  -5.102  0.00  0.00     0.159 HD
BRANCH  23  25
ATOM     25  C   UNL d   1      24.837 -13.337  -4.266  0.00  0.00     0.122 C 
BRANCH  25  26
ATOM     26  C   UNL d   1      25.565 -12.116  -3.726  0.00  0.00     0.045 C 
BRANCH  26  27
ATOM     27  C   UNL d   1      26.770 -11.806  -4.601  0.00  0.00     0.165 C 
BRANCH  27  28
ATOM     28  O   UNL d   1      27.934 -11.660  -3.808  0.00  0.00    -0.401 OA
ATOM     29  H   UNL d   1      28.444 -12.488  -3.862  0.00  0.00     0.209 HD
ENDBRANCH  27  28
ENDBRANCH  26  27
ENDBRANCH  25  26
ENDBRANCH  23  25
ENDBRANCH   2  23
BRANCH   1  30
ATOM     30  N   UNL d   1      28.475 -14.562  -3.368  0.00  0.00    -0.111 N 
ATOM     31  O   UNL d   1      29.322 -14.012  -2.655  0.00  0.00    -0.532 OA
ATOM     32  O   UNL d   1      28.442 -14.500  -4.608  0.00  0.00    -0.532 OA
ENDBRANCH   1  30
TORSDOF 8
ENDMDL
MODEL 4
REMARK VINA RESULT:    -5.950      3.203      7.753
REMARK INTER + INTRA:         -11.087
REMARK INTER:                  -8.337
REMARK INTRA:                  -2.750
REMARK CONF_INDEPENDENT:        2.386
REMARK UNBOUND:                -2.750
REMARK  8 active torsions:
REMARK  status: ('A' for Active; 'I' for Inactive)
REMARK    1  A    between atoms: N_2  and  C_4 
REMARK    2  A    between atoms: C_5  and  N_6 
REMARK    3  A    between atoms: N_6  and  C_7 
REMARK    4  A    between atoms: C_7  and  C_8 
REMARK    5  A    between atoms: C_8  and  C_9 
REMARK    6  A    between atoms: C_9  and  O_10 
REMARK    7  A    between atoms: C_12  and  N_13 
REMARK    8  A    between atoms: N_16  and  C_17 
ROOT
ATOM      1  C   UNL d   1      27.595 -13.802  -2.503  0.00  0.00     0.162 A 
ATOM      2  C   UNL d   1      27.044 -13.990  -1.215  0.00  0.00     0.066 A 
ATOM      3  C   UNL d   1      25.895 -14.838  -1.082  0.00  0.00     0.063 A 
ATOM      4  C   UNL d   1      25.245 -15.576  -2.112  0.00  0.00     0.066 A 
ATOM      5  C   UNL d   1      25.857 -15.377  -3.382  0.00  0.00     0.146 A 
ATOM      6  N   UNL d   1      25.521 -15.895  -4.572  0.00  0.00    -0.101 NA
ATOM      7  O   UNL d   1      26.409 -15.362  -5.487  0.00  0.00    -0.106 OA
ATOM      8  N   UNL d   1      27.334 -14.535  -4.885  0.00  0.00    -0.100 NA
ATOM      9  C   UNL d   1      27.016 -14.494  -3.583  0.00  0.00     0.155 A 
ENDROOT
BRANCH   4  10
ATOM     10  N   UNL d   1      24.174 -16.399  -1.805  0.00  0.00    -0.376 N 
ATOM     11  C   UNL d   1      24.167 -17.831  -2.116  0.00  0.00     0.143 C 
ATOM     12  C   UNL d   1      23.786 -18.620  -0.819  0.00  0.00     0.144 C 
ATOM     13  N   UNL d   1      22.523 -18.121  -0.220  0.00  0.00    -0.364 N 
ATOM     14  C   UNL d   1      22.479 -16.644  -0.033  0.00  0.00     0.144 C 
ATOM     15  C   UNL d   1      22.899 -15.867  -1.308  0.00  0.00     0.143 C 
BRANCH  13  16
ATOM     16  C   UNL d   1      21.405 -18.900  -0.072  0.00  0.00     0.102 A 
ATOM     17  C   UNL d   1      20.556 -19.270  -1.124  0.00  0.00     0.048 A 
ATOM     18  C   UNL d   1      19.331 -19.894  -0.865  0.00  0.00     0.005 A 
ATOM     19  C   UNL d   1      18.988 -20.218   0.439  0.00  0.00     0.017 A 
ATOM     20  C   UNL d   1      19.894 -19.932   1.448  0.00  0.00     0.089 A 
ATOM     21  N   UNL d   1      21.031 -19.267   1.169  0.00  0.00    -0.352 N 
ATOM     22  H   UNL d   1      21.628 -18.965   1.933  0.00  0.00     0.166 HD
ENDBRANCH  13  16
ENDBRANCH   4  10
BRANCH   2  23
ATOM     23  N   UNL d   1      27.528 -13.286  -0.109  0.00  0.00    -0.388 N 
ATOM     24  H   UNL d   1      28.189 -12.523  -0.291  0.00  0.00     0.159 HD
BRANCH  23  25
ATOM     25  C   UNL d   1      27.525 -13.835   1.236  0.00  0.00     0.122 C 
BRANCH  25  26
ATOM     26  C   UNL d   1      28.654 -14.837   1.419  0.00  0.00     0.045 C 
BRANCH  26  27
ATOM     27  C   UNL d   1      29.973 -14.100   1.599  0.00  0.00     0.165 C 
BRANCH  27  28
ATOM     28  O   UNL d   1      29.975 -12.900   0.849  0.00  0.00    -0.401 OA
ATOM     29  H   UNL d   1      29.904 -13.130  -0.094  0.00  0.00     0.209 HD
ENDBRANCH  27  28
ENDBRANCH  26  27
ENDBRANCH  25  26
ENDBRANCH  23  25
ENDBRANCH   2  23
BRANCH   1  30
ATOM     30  N   UNL d   1      28.734 -12.950  -2.741  0.00  0.00    -0.111 N 
ATOM     31  O   UNL d   1      28.795 -12.381  -3.837  0.00  0.00    -0.532 OA
ATOM     32  O   UNL d   1      29.606 -12.888  -1.859  0.00  0.00    -0.532 OA
ENDBRANCH   1  30
TORSDOF 8
ENDMDL
MODEL 5
REMARK VINA RESULT:    -5.632      4.461      9.100
REMARK INTER + INTRA:         -10.425
REMARK INTER:                  -8.018
REMARK INTRA:                  -2.407
REMARK CONF_INDEPENDENT:        2.386
REMARK UNBOUND:                -2.407
REMARK  8 active torsions:
REMARK  status: ('A' for Active; 'I' for Inactive)
REMARK    1  A    between atoms: N_2  and  C_4 
REMARK    2  A    between atoms: C_5  and  N_6 
REMARK    3  A    between atoms: N_6  and  C_7 
REMARK    4  A    between atoms: C_7  and  C_8 
REMARK    5  A    between atoms: C_8  and  C_9 
REMARK    6  A    between atoms: C_9  and  O_10 
REMARK    7  A    between atoms: C_12  and  N_13 
REMARK    8  A    between atoms: N_16  and  C_17 
ROOT
ATOM      1  C   UNL d   1      28.532  -9.152   5.722  0.00  0.00     0.162 A 
ATOM      2  C   UNL d   1      28.908 -10.496   5.949  0.00  0.00     0.066 A 
ATOM      3  C   UNL d   1      28.406 -11.503   5.060  0.00  0.00     0.063 A 
ATOM      4  C   UNL d   1      27.587 -11.308   3.911  0.00  0.00     0.066 A 
ATOM      5  C   UNL d   1      27.263  -9.936   3.711  0.00  0.00     0.146 A 
ATOM      6  N   UNL d   1      26.515  -9.378   2.749  0.00  0.00    -0.101 NA
ATOM      7  O   UNL d   1      26.486  -8.023   3.024  0.00  0.00    -0.106 OA
ATOM      8  N   UNL d   1      27.241  -7.707   4.134  0.00  0.00    -0.100 NA
ATOM      9  C   UNL d   1      27.722  -8.865   4.608  0.00  0.00     0.155 A 
ENDROOT
BRANCH   4  10
ATOM     10  N   UNL d   1      27.234 -12.389   3.121  0.00  0.00    -0.376 N 
ATOM     11  C   UNL d   1      26.504 -12.236   1.859  0.00  0.00     0.143 C 
ATOM     12  C   UNL d   1      27.273 -13.017   0.742  0.00  0.00     0.144 C 
ATOM     13  N   UNL d   1      27.530 -14.427   1.129  0.00  0.00    -0.364 N 
ATOM     14  C   UNL d   1      28.146 -14.585   2.477  0.00  0.00     0.144 C 
ATOM     15  C   UNL d   1      27.406 -13.775   3.573  0.00  0.00     0.143 C 
BRANCH  13  16
ATOM     16  C   UNL d   1      27.034 -15.498   0.433  0.00  0.00     0.102 A 
ATOM     17  C   UNL d   1      25.957 -15.427  -0.462  0.00  0.00     0.048 A 
ATOM     18  C   UNL d   1      25.382 -16.593  -0.978  0.00  0.00     0.005 A 
ATOM     19  C   UNL d   1      25.931 -17.827  -0.660  0.00  0.00     0.017 A 
ATOM     20  C   UNL d   1      27.058 -17.858   0.145  0.00  0.00     0.089 A 
ATOM     21  N   UNL d   1      27.540 -16.722   0.680  0.00  0.00    -0.352 N 
ATOM     22  H   UNL d   1      28.294 -16.774   1.358  0.00  0.00     0.166 HD
ENDBRANCH  13  16
ENDBRANCH   4  10
BRANCH   2  23
ATOM     23  N   UNL d   1      29.658 -10.861   7.071  0.00  0.00    -0.388 N 
ATOM     24  H   UNL d   1      30.162 -10.114   7.561  0.00  0.00     0.159 HD
BRANCH  23  25
ATOM     25  C   UNL d   1      30.124 -12.216   7.299  0.00  0.00     0.122 C 
BRANCH  25  26
ATOM     26  C   UNL d   1      29.318 -12.894   8.397  0.00  0.00     0.045 C 
BRANCH  26  27
ATOM     27  C   UNL d   1      28.538 -11.849   9.182  0.00  0.00     0.165 C 
BRANCH  27  28
ATOM     28  O   UNL d   1      29.368 -10.747   9.498  0.00  0.00    -0.401 OA
ATOM     29  H   UNL d   1      28.906  -9.932   9.232  0.00  0.00     0.209 HD
ENDBRANCH  27  28
ENDBRANCH  26  27
ENDBRANCH  25  26
ENDBRANCH  23  25
ENDBRANCH   2  23
BRANCH   1  30
ATOM     30  N   UNL d   1      28.966  -8.072   6.575  0.00  0.00    -0.111 N 
ATOM     31  O   UNL d   1      29.048  -8.307   7.786  0.00  0.00    -0.532 OA
ATOM     32  O   UNL d   1      29.172  -6.966   6.051  0.00  0.00    -0.532 OA
ENDBRANCH   1  30
TORSDOF 8
ENDMDL
MODEL 6
REMARK VINA RESULT:    -5.625      2.053      4.099
REMARK INTER + INTRA:         -10.800
REMARK INTER:                  -8.011
REMARK INTRA:                  -2.789
REMARK CONF_INDEPENDENT:        2.386
REMARK UNBOUND:                -2.789
REMARK  8 active torsions:
REMARK  status: ('A' for Active; 'I' for Inactive)
REMARK    1  A    between atoms: N_2  and  C_4 
REMARK    2  A    between atoms: C_5  and  N_6 
REMARK    3  A    between atoms: N_6  and  C_7 
REMARK    4  A    between atoms: C_7  and  C_8 
REMARK    5  A    between atoms: C_8  and  C_9 
REMARK    6  A    between atoms: C_9  and  O_10 
REMARK    7  A    between atoms: C_12  and  N_13 
REMARK    8  A    between atoms: N_16  and  C_17 
ROOT
ATOM      1  C   UNL d   1      25.683 -14.353  -2.793  0.00  0.00     0.162 A 
ATOM      2  C   UNL d   1      26.109 -13.079  -2.351  0.00  0.00     0.066 A 
ATOM      3  C   UNL d   1      26.668 -12.966  -1.036  0.00  0.00     0.063 A 
ATOM      4  C   UNL d   1      26.899 -14.018  -0.104  0.00  0.00     0.066 A 
ATOM      5  C   UNL d   1      26.481 -15.282  -0.609  0.00  0.00     0.146 A 
ATOM      6  N   UNL d   1      26.533 -16.485  -0.020  0.00  0.00    -0.101 NA
ATOM      7  O   UNL d   1      25.975 -17.376  -0.918  0.00  0.00    -0.106 OA
ATOM      8  N   UNL d   1      25.600 -16.756  -2.092  0.00  0.00    -0.100 NA
ATOM      9  C   UNL d   1      25.872 -15.453  -1.937  0.00  0.00     0.155 A 
ENDROOT
BRANCH   4  10
ATOM     10  N   UNL d   1      27.504 -13.747   1.112  0.00  0.00    -0.376 N 
ATOM     11  C   UNL d   1      27.560 -12.397   1.679  0.00  0.00     0.143 C 
ATOM     12  C   UNL d   1      27.033 -12.454   3.151  0.00  0.00     0.144 C 
ATOM     13  N   UNL d   1      27.743 -13.481   3.954  0.00  0.00    -0.364 N 
ATOM     14  C   UNL d   1      27.804 -14.822   3.308  0.00  0.00     0.144 C 
ATOM     15  C   UNL d   1      28.287 -14.757   1.836  0.00  0.00     0.143 C 
BRANCH  13  16
ATOM     16  C   UNL d   1      28.484 -13.183   5.068  0.00  0.00     0.102 A 
ATOM     17  C   UNL d   1      29.083 -14.141   5.897  0.00  0.00     0.048 A 
ATOM     18  C   UNL d   1      29.651 -13.769   7.120  0.00  0.00     0.005 A 
ATOM     19  C   UNL d   1      29.688 -12.430   7.481  0.00  0.00     0.017 A 
ATOM     20  C   UNL d   1      29.179 -11.496   6.593  0.00  0.00     0.089 A 
ATOM     21  N   UNL d   1      28.577 -11.897   5.458  0.00  0.00    -0.352 N 
ATOM     22  H   UNL d   1      28.109 -11.209   4.876  0.00  0.00     0.166 HD
ENDBRANCH  13  16
ENDBRANCH   4  10
BRANCH   2  23
ATOM     23  N   UNL d   1      25.895 -11.934  -3.123  0.00  0.00    -0.388 N 
ATOM     24  H   UNL d   1      25.064 -11.921  -3.724  0.00  0.00     0.159 HD
BRANCH  23  25
ATOM     25  C   UNL d   1      26.958 -11.007  -3.469  0.00  0.00     0.122 C 
BRANCH  25  26
ATOM     26  C   UNL d   1      27.690 -11.459  -4.724  0.00  0.00     0.045 C 
BRANCH  26  27
ATOM     27  C   UNL d   1      26.719 -12.166  -5.659  0.00  0.00     0.165 C 
BRANCH  27  28
ATOM     28  O   UNL d   1      25.531 -11.410  -5.802  0.00  0.00    -0.401 OA
ATOM     29  H   UNL d   1      24.789 -11.943  -5.467  0.00  0.00     0.209 HD
ENDBRANCH  27  28
ENDBRANCH  26  27
ENDBRANCH  25  26
ENDBRANCH  23  25
ENDBRANCH   2  23
BRANCH   1  30
ATOM     30  N   UNL d   1      25.087 -14.563  -4.090  0.00  0.00    -0.111 N 
ATOM     31  O   UNL d   1      25.532 -15.493  -4.772  0.00  0.00    -0.532 OA
ATOM     32  O   UNL d   1      24.212 -13.765  -4.462  0.00  0.00    -0.532 OA
ENDBRANCH   1  30
TORSDOF 8
ENDMDL
MODEL 7
REMARK VINA RESULT:    -5.572      8.880     12.269
REMARK INTER + INTRA:         -10.556
REMARK INTER:                  -7.958
REMARK INTRA:                  -2.598
REMARK CONF_INDEPENDENT:        2.386
REMARK UNBOUND:                -2.598
REMARK  8 active torsions:
REMARK  status: ('A' for Active; 'I' for Inactive)
REMARK    1  A    between atoms: N_2  and  C_4 
REMARK    2  A    between atoms: C_5  and  N_6 
REMARK    3  A    between atoms: N_6  and  C_7 
REMARK    4  A    between atoms: C_7  and  C_8 
REMARK    5  A    between atoms: C_8  and  C_9 
REMARK    6  A    between atoms: C_9  and  O_10 
REMARK    7  A    between atoms: C_12  and  N_13 
REMARK    8  A    between atoms: N_16  and  C_17 
ROOT
ATOM      1  C   UNL d   1      31.633 -21.327   4.864  0.00  0.00     0.162 A 
ATOM      2  C   UNL d   1      32.809 -20.858   4.234  0.00  0.00     0.066 A 
ATOM      3  C   UNL d   1      32.840 -20.805   2.802  0.00  0.00     0.063 A 
ATOM      4  C   UNL d   1      31.784 -21.133   1.904  0.00  0.00     0.066 A 
ATOM      5  C   UNL d   1      30.614 -21.569   2.589  0.00  0.00     0.146 A 
ATOM      6  N   UNL d   1      29.438 -21.964   2.082  0.00  0.00    -0.101 NA
ATOM      7  O   UNL d   1      28.653 -22.315   3.165  0.00  0.00    -0.106 OA
ATOM      8  N   UNL d   1      29.308 -22.113   4.362  0.00  0.00    -0.100 NA
ATOM      9  C   UNL d   1      30.536 -21.674   4.053  0.00  0.00     0.155 A 
ENDROOT
BRANCH   4  10
ATOM     10  N   UNL d   1      31.959 -20.971   0.539  0.00  0.00    -0.376 N 
ATOM     11  C   UNL d   1      32.160 -22.105  -0.368  0.00  0.00     0.143 C 
ATOM     12  C   UNL d   1      31.143 -21.981  -1.550  0.00  0.00     0.144 C 
ATOM     13  N   UNL d   1      31.220 -20.652  -2.210  0.00  0.00    -0.364 N 
ATOM     14  C   UNL d   1      31.155 -19.501  -1.267  0.00  0.00     0.144 C 
ATOM     15  C   UNL d   1      32.134 -19.648  -0.073  0.00  0.00     0.143 C 
BRANCH  13  16
ATOM     16  C   UNL d   1      31.560 -20.488  -3.527  0.00  0.00     0.102 A 
ATOM     17  C   UNL d   1      32.644 -19.718  -3.971  0.00  0.00     0.048 A 
ATOM     18  C   UNL d   1      32.807 -19.435  -5.332  0.00  0.00     0.005 A 
ATOM     19  C   UNL d   1      31.931 -19.984  -6.256  0.00  0.00     0.017 A 
ATOM     20  C   UNL d   1      30.930 -20.825  -5.795  0.00  0.00     0.089 A 
ATOM     21  N   UNL d   1      30.762 -21.017  -4.474  0.00  0.00    -0.352 N 
ATOM     22  H   UNL d   1      29.956 -21.541  -4.148  0.00  0.00     0.166 HD
ENDBRANCH  13  16
ENDBRANCH   4  10
BRANCH   2  23
ATOM     23  N   UNL d   1      33.956 -20.556   4.973  0.00  0.00    -0.388 N 
ATOM     24  H   UNL d   1      33.904 -20.675   5.990  0.00  0.00     0.159 HD
BRANCH  23  25
ATOM     25  C   UNL d   1      35.006 -19.685   4.475  0.00  0.00     0.122 C 
BRANCH  25  26
ATOM     26  C   UNL d   1      36.205 -19.685   5.411  0.00  0.00     0.045 C 
BRANCH  26  27
ATOM     27  C   UNL d   1      35.996 -20.712   6.514  0.00  0.00     0.165 C 
BRANCH  27  28
ATOM     28  O   UNL d   1      35.036 -20.250   7.446  0.00  0.00    -0.401 OA
ATOM     29  H   UNL d   1      34.382 -20.958   7.586  0.00  0.00     0.209 HD
ENDBRANCH  27  28
ENDBRANCH  26  27
ENDBRANCH  25  26
ENDBRANCH  23  25
ENDBRANCH   2  23
BRANCH   1  30
ATOM     30  N   UNL d   1      31.514 -21.439   6.297  0.00  0.00    -0.111 N 
ATOM     31  O   UNL d   1      30.405 -21.206   6.792  0.00  0.00    -0.532 OA
ATOM     32  O   UNL d   1      32.540 -21.703   6.945  0.00  0.00    -0.532 OA
ENDBRANCH   1  30
TORSDOF 8
ENDMDL
MODEL 8
REMARK VINA RESULT:    -5.569      2.841      4.373
REMARK INTER + INTRA:         -11.299
REMARK INTER:                  -7.955
REMARK INTRA:                  -3.344
REMARK CONF_INDEPENDENT:        2.386
REMARK UNBOUND:                -3.344
REMARK  8 active torsions:
REMARK  status: ('A' for Active; 'I' for Inactive)
REMARK    1  A    between atoms: N_2  and  C_4 
REMARK    2  A    between atoms: C_5  and  N_6 
REMARK    3  A    between atoms: N_6  and  C_7 
REMARK    4  A    between atoms: C_7  and  C_8 
REMARK    5  A    between atoms: C_8  and  C_9 
REMARK    6  A    between atoms: C_9  and  O_10 
REMARK    7  A    between atoms: C_12  and  N_13 
REMARK    8  A    between atoms: N_16  and  C_17 
ROOT
ATOM      1  C   UNL d   1      27.625 -14.655  -4.526  0.00  0.00     0.162 A 
ATOM      2  C   UNL d   1      28.804 -14.704  -3.747  0.00  0.00     0.066 A 
ATOM      3  C   UNL d   1      28.683 -14.607  -2.321  0.00  0.00     0.063 A 
ATOM      4  C   UNL d   1      27.482 -14.508  -1.563  0.00  0.00     0.066 A 
ATOM      5  C   UNL d   1      26.324 -14.493  -2.392  0.00  0.00     0.146 A 
ATOM      6  N   UNL d   1      25.035 -14.403  -2.038  0.00  0.00    -0.101 NA
ATOM      7  O   UNL d   1      24.313 -14.398  -3.218  0.00  0.00    -0.106 OA
ATOM      8  N   UNL d   1      25.132 -14.521  -4.322  0.00  0.00    -0.100 NA
ATOM      9  C   UNL d   1      26.390 -14.558  -3.859  0.00  0.00     0.155 A 
ENDROOT
BRANCH   4  10
ATOM     10  N   UNL d   1      27.536 -14.479  -0.179  0.00  0.00    -0.376 N 
ATOM     11  C   UNL d   1      28.424 -15.353   0.592  0.00  0.00     0.143 C 
ATOM     12  C   UNL d   1      29.243 -14.471   1.593  0.00  0.00     0.144 C 
ATOM     13  N   UNL d   1      28.361 -13.614   2.424  0.00  0.00    -0.364 N 
ATOM     14  C   UNL d   1      27.363 -12.830   1.643  0.00  0.00     0.144 C 
ATOM     15  C   UNL d   1      26.585 -13.699   0.622  0.00  0.00     0.143 C 
BRANCH  13  16
ATOM     16  C   UNL d   1      28.295 -13.706   3.790  0.00  0.00     0.102 A 
ATOM     17  C   UNL d   1      27.821 -12.688   4.629  0.00  0.00     0.048 A 
ATOM     18  C   UNL d   1      27.973 -12.779   6.016  0.00  0.00     0.005 A 
ATOM     19  C   UNL d   1      28.528 -13.922   6.572  0.00  0.00     0.017 A 
ATOM     20  C   UNL d   1      28.894 -14.956   5.723  0.00  0.00     0.089 A 
ATOM     21  N   UNL d   1      28.799 -14.803   4.390  0.00  0.00    -0.352 N 
ATOM     22  H   UNL d   1      29.176 -15.522   3.780  0.00  0.00     0.166 HD
ENDBRANCH  13  16
ENDBRANCH   4  10
BRANCH   2  23
ATOM     23  N   UNL d   1      30.067 -14.737  -4.344  0.00  0.00    -0.388 N 
ATOM     24  H   UNL d   1      30.135 -14.422  -5.317  0.00  0.00     0.159 HD
BRANCH  23  25
ATOM     25  C   UNL d   1      31.145 -15.581  -3.859  0.00  0.00     0.122 C 
BRANCH  25  26
ATOM     26  C   UNL d   1      31.312 -16.811  -4.739  0.00  0.00     0.045 C 
BRANCH  26  27
ATOM     27  C   UNL d   1      30.044 -17.044  -5.545  0.00  0.00     0.165 C 
BRANCH  27  28
ATOM     28  O   UNL d   1      29.994 -16.165  -6.654  0.00  0.00    -0.401 OA
ATOM     29  H   UNL d   1      29.073 -15.868  -6.767  0.00  0.00     0.209 HD
ENDBRANCH  27  28
ENDBRANCH  26  27
ENDBRANCH  25  26
ENDBRANCH  23  25
ENDBRANCH   2  23
BRANCH   1  30
ATOM     30  N   UNL d   1      27.646 -14.722  -5.967  0.00  0.00    -0.111 N 
ATOM     31  O   UNL d   1      26.929 -15.575  -6.503  0.00  0.00    -0.532 OA
ATOM     32  O   UNL d   1      28.422 -13.964  -6.571  0.00  0.00    -0.532 OA
ENDBRANCH   1  30
TORSDOF 8
ENDMDL
MODEL 9
REMARK VINA RESULT:    -5.179      1.510      2.138
REMARK INTER + INTRA:         -10.798
REMARK INTER:                  -7.565
REMARK INTRA:                  -3.233
REMARK CONF_INDEPENDENT:        2.386
REMARK UNBOUND:                -3.233
REMARK  8 active torsions:
REMARK  status: ('A' for Active; 'I' for Inactive)
REMARK    1  A    between atoms: N_2  and  C_4 
REMARK    2  A    between atoms: C_5  and  N_6 
REMARK    3  A    between atoms: N_6  and  C_7 
REMARK    4  A    between atoms: C_7  and  C_8 
REMARK    5  A    between atoms: C_8  and  C_9 
REMARK    6  A    between atoms: C_9  and  O_10 
REMARK    7  A    between atoms: C_12  and  N_13 
REMARK    8  A    between atoms: N_16  and  C_17 
ROOT
ATOM      1  C   UNL d   1      26.342 -14.724  -1.678  0.00  0.00     0.162 A 
ATOM      2  C   UNL d   1      26.578 -15.696  -0.680  0.00  0.00     0.066 A 
ATOM      3  C   UNL d   1      27.134 -15.267   0.571  0.00  0.00     0.063 A 
ATOM      4  C   UNL d   1      27.446 -13.934   0.963  0.00  0.00     0.066 A 
ATOM      5  C   UNL d   1      27.161 -12.992  -0.066  0.00  0.00     0.146 A 
ATOM      6  N   UNL d   1      27.329 -11.662  -0.063  0.00  0.00    -0.101 NA
ATOM      7  O   UNL d   1      26.929 -11.222  -1.311  0.00  0.00    -0.106 OA
ATOM      8  N   UNL d   1      26.473 -12.258  -2.100  0.00  0.00    -0.100 NA
ATOM      9  C   UNL d   1      26.621 -13.378  -1.378  0.00  0.00     0.155 A 
ENDROOT
BRANCH   4  10
ATOM     10  N   UNL d   1      27.928 -13.681   2.237  0.00  0.00    -0.376 N 
ATOM     11  C   UNL d   1      28.489 -12.383   2.622  0.00  0.00     0.143 C 
ATOM     12  C   UNL d   1      27.786 -11.909   3.937  0.00  0.00     0.144 C 
ATOM     13  N   UNL d   1      27.850 -12.940   5.003  0.00  0.00    -0.364 N 
ATOM     14  C   UNL d   1      27.408 -14.295   4.566  0.00  0.00     0.144 C 
ATOM     15  C   UNL d   1      28.076 -14.743   3.239  0.00  0.00     0.143 C 
BRANCH  13  16
ATOM     16  C   UNL d   1      28.478 -12.740   6.204  0.00  0.00     0.102 A 
ATOM     17  C   UNL d   1      29.476 -13.578   6.722  0.00  0.00     0.048 A 
ATOM     18  C   UNL d   1      29.924 -13.422   8.038  0.00  0.00     0.005 A 
ATOM     19  C   UNL d   1      29.433 -12.381   8.811  0.00  0.00     0.017 A 
ATOM     20  C   UNL d   1      28.523 -11.507   8.237  0.00  0.00     0.089 A 
ATOM     21  N   UNL d   1      28.062 -11.731   6.993  0.00  0.00    -0.352 N 
ATOM     22  H   UNL d   1      27.313 -11.149   6.630  0.00  0.00     0.166 HD
ENDBRANCH  13  16
ENDBRANCH   4  10
BRANCH   2  23
ATOM     23  N   UNL d   1      26.383 -17.057  -0.930  0.00  0.00    -0.388 N 
ATOM     24  H   UNL d   1      26.278 -17.343  -1.910  0.00  0.00     0.159 HD
BRANCH  23  25
ATOM     25  C   UNL d   1      25.878 -17.978   0.072  0.00  0.00     0.122 C 
BRANCH  25  26
ATOM     26  C   UNL d   1      24.379 -18.183  -0.082  0.00  0.00     0.045 C 
BRANCH  26  27
ATOM     27  C   UNL d   1      23.824 -17.189  -1.092  0.00  0.00     0.165 C 
BRANCH  27  28
ATOM     28  O   UNL d   1      24.359 -17.440  -2.378  0.00  0.00    -0.401 OA
ATOM     29  H   UNL d   1      24.513 -16.584  -2.816  0.00  0.00     0.209 HD
ENDBRANCH  27  28
ENDBRANCH  26  27
ENDBRANCH  25  26
ENDBRANCH  23  25
ENDBRANCH   2  23
BRANCH   1  30
ATOM     30  N   UNL d   1      25.807 -15.061  -2.975  0.00  0.00    -0.111 N 
ATOM     31  O   UNL d   1      24.776 -14.478  -3.330  0.00  0.00    -0.532 OA
ATOM     32  O   UNL d   1      26.379 -15.952  -3.624  0.00  0.00    -0.532 OA
ENDBRANCH   1  30
TORSDOF 8
ENDMDL
