MODEL 1
REMARK VINA RESULT:    -6.941      0.000      0.000
REMARK INTER + INTRA:         -11.879
REMARK INTER:                 -10.222
REMARK INTRA:                  -1.656
REMARK CONF_INDEPENDENT:        3.281
REMARK UNBOUND:                -1.656
REMARK  11 active torsions:
REMARK  status: ('A' for Active; 'I' for Inactive)
REMARK    1  A    between atoms: O_2  and  C_3 
REMARK    2  A    between atoms: C_5  and  C_6 
REMARK    3  A    between atoms: C_7  and  C_8 
REMARK       I    between atoms: C_8  and  N_10 
REMARK    4  A    between atoms: N_10  and  N_11 
REMARK    5  A    between atoms: N_11  and  C_12 
REMARK    6  A    between atoms: C_12  and  N_14 
REMARK    7  A    between atoms: N_14  and  C_15 
REMARK    8  A    between atoms: C_15  and  C_16 
REMARK    9  A    between atoms: C_16  and  C_17 
REMARK   10  A    between atoms: C_22  and  O_23 
REMARK   11  A    between atoms: O_23  and  C_24 
ROOT
ATOM      1  C   UNL d   1      22.245 -18.936  -0.781  0.00  0.00     0.284 C 
ATOM      2  C   UNL d   1      20.742 -19.165  -0.828  0.00  0.00     0.006 C 
ATOM      3  N   UNL d   1      19.497 -19.356  -0.868  0.00  0.00    -0.099 N 
ENDROOT
BRANCH   1   4
ATOM      4  O   UNL d   1      22.516 -17.614  -1.225  0.00  0.00    -0.336 OA
BRANCH   4   5
ATOM      5  C   UNL d   1      23.774 -17.197  -0.884  0.00  0.00     0.103 A 
ATOM      6  C   UNL d   1      24.428 -18.122  -0.044  0.00  0.00     0.040 A 
ATOM      7  C   UNL d   1      25.765 -17.954   0.322  0.00  0.00     0.014 A 
ATOM      8  C   UNL d   1      26.500 -16.876  -0.168  0.00  0.00    -0.033 A 
ATOM      9  C   UNL d   1      25.800 -15.898  -0.937  0.00  0.00     0.051 A 
ATOM     10  C   UNL d   1      24.443 -16.041  -1.327  0.00  0.00     0.102 A 
BRANCH   8  11
ATOM     11  C   UNL d   1      27.987 -16.818   0.014  0.00  0.00     0.017 C 
ATOM     12  C   UNL d   1      28.932 -17.219  -0.871  0.00  0.00     0.076 C 
BRANCH  12  13
ATOM     13  C   UNL d   1      30.409 -17.057  -0.626  0.00  0.00     0.259 C 
ATOM     14  O   UNL d   1      31.252 -17.393  -1.472  0.00  0.00    -0.267 OA
ATOM     15  N   UNL d   1      30.751 -16.511   0.599  0.00  0.00    -0.264 N 
ATOM     16  H   UNL d   1      30.071 -16.229   1.304  0.00  0.00     0.190 HD
BRANCH  15  17
ATOM     17  N   UNL d   1      32.129 -16.275   0.949  0.00  0.00    -0.274 N 
ATOM     18  H   UNL d   1      32.815 -16.681   0.316  0.00  0.00     0.189 HD
BRANCH  17  19
ATOM     19  C   UNL d   1      32.460 -15.529   2.079  0.00  0.00     0.186 C 
ATOM     20  S   UNL d   1      34.049 -15.078   2.412  0.00  0.00    -0.040 SA
BRANCH  19  21
ATOM     21  N   UNL d   1      31.376 -15.201   2.896  0.00  0.00    -0.366 N 
ATOM     22  H   UNL d   1      30.780 -15.935   3.252  0.00  0.00     0.161 HD
BRANCH  21  23
ATOM     23  C   UNL d   1      30.991 -13.812   3.199  0.00  0.00     0.122 C 
BRANCH  23  24
ATOM     24  C   UNL d   1      29.896 -13.627   4.258  0.00  0.00     0.023 C 
BRANCH  24  25
ATOM     25  C   UNL d   1      28.587 -14.372   3.883  0.00  0.00    -0.021 C 
ATOM     26  C   UNL d   1      27.789 -14.793   5.120  0.00  0.00     0.009 C 
ATOM     27  C   UNL d   1      27.702 -13.494   2.994  0.00  0.00     0.009 C 
ENDBRANCH  24  25
ENDBRANCH  23  24
ENDBRANCH  21  23
ENDBRANCH  19  21
ENDBRANCH  17  19
ENDBRANCH  15  17
ENDBRANCH  12  13
ENDBRANCH   8  11
BRANCH  10  28
ATOM     28  O   UNL d   1      24.039 -15.209  -2.367  0.00  0.00    -0.353 OA
ATOM     29  C   UNL d   1      24.922 -14.333  -3.100  0.00  0.00     0.210 C 
ENDBRANCH  10  28
ENDBRANCH   4   5
ENDBRANCH   1   4
TORSDOF 11
ENDMDL
MODEL 2
REMARK VINA RESULT:    -6.824      2.730      3.479
REMARK INTER + INTRA:         -11.775
REMARK INTER:                 -10.105
REMARK INTRA:                  -1.670
REMARK CONF_INDEPENDENT:        3.281
REMARK UNBOUND:                -1.670
REMARK  11 active torsions:
REMARK  status: ('A' for Active; 'I' for Inactive)
REMARK    1  A    between atoms: O_2  and  C_3 
REMARK    2  A    between atoms: C_5  and  C_6 
REMARK    3  A    between atoms: C_7  and  C_8 
REMARK       I    between atoms: C_8  and  N_10 
REMARK    4  A    between atoms: N_10  and  N_11 
REMARK    5  A    between atoms: N_11  and  C_12 
REMARK    6  A    between atoms: C_12  and  N_14 
REMARK    7  A    between atoms: N_14  and  C_15 
REMARK    8  A    between atoms: C_15  and  C_16 
REMARK    9  A    between atoms: C_16  and  C_17 
REMARK   10  A    between atoms: C_22  and  O_23 
REMARK   11  A    between atoms: O_23  and  C_24 
ROOT
ATOM      1  C   UNL d   1      22.295 -18.915  -0.853  0.00  0.00     0.284 C 
ATOM      2  C   UNL d   1      20.783 -19.074  -0.855  0.00  0.00     0.006 C 
ATOM      3  N   UNL d   1      19.530 -19.206  -0.858  0.00  0.00    -0.099 N 
ENDROOT
BRANCH   1   4
ATOM      4  O   UNL d   1      22.606 -17.531  -0.929  0.00  0.00    -0.336 OA
BRANCH   4   5
ATOM      5  C   UNL d   1      23.927 -17.279  -0.678  0.00  0.00     0.103 A 
ATOM      6  C   UNL d   1      24.477 -18.199   0.239  0.00  0.00     0.040 A 
ATOM      7  C   UNL d   1      25.840 -18.200   0.540  0.00  0.00     0.014 A 
ATOM      8  C   UNL d   1      26.702 -17.304  -0.090  0.00  0.00    -0.033 A 
ATOM      9  C   UNL d   1      26.118 -16.318  -0.940  0.00  0.00     0.051 A 
ATOM     10  C   UNL d   1      24.738 -16.291  -1.268  0.00  0.00     0.102 A 
BRANCH   8  11
ATOM     11  C   UNL d   1      28.188 -17.456   0.036  0.00  0.00     0.017 C 
ATOM     12  C   UNL d   1      29.136 -16.608  -0.430  0.00  0.00     0.076 C 
BRANCH  12  13
ATOM     13  C   UNL d   1      30.610 -16.810  -0.194  0.00  0.00     0.259 C 
ATOM     14  O   UNL d   1      31.323 -17.421  -1.004  0.00  0.00    -0.267 OA
ATOM     15  N   UNL d   1      31.102 -16.268   0.980  0.00  0.00    -0.264 N 
ATOM     16  H   UNL d   1      30.530 -15.763   1.656  0.00  0.00     0.190 HD
BRANCH  15  17
ATOM     17  N   UNL d   1      32.500 -16.364   1.315  0.00  0.00    -0.274 N 
ATOM     18  H   UNL d   1      33.011 -15.484   1.307  0.00  0.00     0.189 HD
BRANCH  17  19
ATOM     19  C   UNL d   1      33.076 -17.594   1.631  0.00  0.00     0.186 C 
ATOM     20  S   UNL d   1      34.674 -17.719   2.152  0.00  0.00    -0.040 SA
BRANCH  19  21
ATOM     21  N   UNL d   1      32.226 -18.690   1.474  0.00  0.00    -0.366 N 
ATOM     22  H   UNL d   1      31.430 -18.619   0.855  0.00  0.00     0.161 HD
BRANCH  21  23
ATOM     23  C   UNL d   1      32.375 -19.937   2.243  0.00  0.00     0.122 C 
BRANCH  23  24
ATOM     24  C   UNL d   1      32.218 -19.819   3.765  0.00  0.00     0.023 C 
BRANCH  24  25
ATOM     25  C   UNL d   1      32.026 -21.201   4.443  0.00  0.00    -0.021 C 
ATOM     26  C   UNL d   1      32.598 -21.230   5.863  0.00  0.00     0.009 C 
ATOM     27  C   UNL d   1      30.542 -21.574   4.497  0.00  0.00     0.009 C 
ENDBRANCH  24  25
ENDBRANCH  23  24
ENDBRANCH  21  23
ENDBRANCH  19  21
ENDBRANCH  17  19
ENDBRANCH  15  17
ENDBRANCH  12  13
ENDBRANCH   8  11
BRANCH  10  28
ATOM     28  O   UNL d   1      24.412 -15.521  -2.380  0.00  0.00    -0.353 OA
ATOM     29  C   UNL d   1      25.329 -14.633  -3.054  0.00  0.00     0.210 C 
ENDBRANCH  10  28
ENDBRANCH   4   5
ENDBRANCH   1   4
TORSDOF 11
ENDMDL
MODEL 3
REMARK VINA RESULT:    -6.319      4.772      9.376
REMARK INTER + INTRA:         -11.370
REMARK INTER:                  -9.600
REMARK INTRA:                  -1.769
REMARK CONF_INDEPENDENT:        3.281
REMARK UNBOUND:                -1.769
REMARK  11 active torsions:
REMARK  status: ('A' for Active; 'I' for Inactive)
REMARK    1  A    between atoms: O_2  and  C_3 
REMARK    2  A    between atoms: C_5  and  C_6 
REMARK    3  A    between atoms: C_7  and  C_8 
REMARK       I    between atoms: C_8  and  N_10 
REMARK    4  A    between atoms: N_10  and  N_11 
REMARK    5  A    between atoms: N_11  and  C_12 
REMARK    6  A    between atoms: C_12  and  N_14 
REMARK    7  A    between atoms: N_14  and  C_15 
REMARK    8  A    between atoms: C_15  and  C_16 
REMARK    9  A    between atoms: C_16  and  C_17 
REMARK   10  A    between atoms: C_22  and  O_23 
REMARK   11  A    between atoms: O_23  and  C_24 
ROOT
ATOM      1  C   UNL d   1      29.589 -12.343  10.154  0.00  0.00     0.284 C 
ATOM      2  C   UNL d   1      28.242 -12.973  10.469  0.00  0.00     0.006 C 
ATOM      3  N   UNL d   1      27.125 -13.496  10.730  0.00  0.00    -0.099 N 
ENDROOT
BRANCH   1   4
ATOM      4  O   UNL d   1      29.499 -11.680   8.902  0.00  0.00    -0.336 OA
BRANCH   4   5
ATOM      5  C   UNL d   1      29.099 -12.517   7.896  0.00  0.00     0.103 A 
ATOM      6  C   UNL d   1      28.153 -11.907   7.045  0.00  0.00     0.040 A 
ATOM      7  C   UNL d   1      27.705 -12.538   5.884  0.00  0.00     0.014 A 
ATOM      8  C   UNL d   1      28.214 -13.783   5.517  0.00  0.00    -0.033 A 
ATOM      9  C   UNL d   1      29.095 -14.430   6.435  0.00  0.00     0.051 A 
ATOM     10  C   UNL d   1      29.570 -13.814   7.621  0.00  0.00     0.102 A 
BRANCH   8  11
ATOM     11  C   UNL d   1      27.930 -14.355   4.161  0.00  0.00     0.017 C 
ATOM     12  C   UNL d   1      27.920 -13.689   2.981  0.00  0.00     0.076 C 
BRANCH  12  13
ATOM     13  C   UNL d   1      27.691 -14.365   1.655  0.00  0.00     0.259 C 
ATOM     14  O   UNL d   1      26.723 -14.080   0.935  0.00  0.00    -0.267 OA
ATOM     15  N   UNL d   1      28.633 -15.316   1.305  0.00  0.00    -0.264 N 
ATOM     16  H   UNL d   1      29.435 -15.562   1.885  0.00  0.00     0.190 HD
BRANCH  15  17
ATOM     17  N   UNL d   1      28.551 -16.018   0.049  0.00  0.00    -0.274 N 
ATOM     18  H   UNL d   1      29.435 -16.370  -0.312  0.00  0.00     0.189 HD
BRANCH  17  19
ATOM     19  C   UNL d   1      27.325 -16.191  -0.593  0.00  0.00     0.186 C 
ATOM     20  S   UNL d   1      27.114 -15.815  -2.222  0.00  0.00    -0.040 SA
BRANCH  19  21
ATOM     21  N   UNL d   1      26.308 -16.688   0.224  0.00  0.00    -0.366 N 
ATOM     22  H   UNL d   1      25.888 -16.087   0.920  0.00  0.00     0.161 HD
BRANCH  21  23
ATOM     23  C   UNL d   1      25.865 -18.092   0.189  0.00  0.00     0.122 C 
BRANCH  23  24
ATOM     24  C   UNL d   1      24.357 -18.332   0.346  0.00  0.00     0.023 C 
BRANCH  24  25
ATOM     25  C   UNL d   1      23.558 -17.876  -0.904  0.00  0.00    -0.021 C 
ATOM     26  C   UNL d   1      22.196 -18.568  -1.002  0.00  0.00     0.009 C 
ATOM     27  C   UNL d   1      23.346 -16.359  -0.885  0.00  0.00     0.009 C 
ENDBRANCH  24  25
ENDBRANCH  23  24
ENDBRANCH  21  23
ENDBRANCH  19  21
ENDBRANCH  17  19
ENDBRANCH  15  17
ENDBRANCH  12  13
ENDBRANCH   8  11
BRANCH  10  28
ATOM     28  O   UNL d   1      30.689 -14.415   8.189  0.00  0.00    -0.353 OA
ATOM     29  C   UNL d   1      31.924 -13.726   8.481  0.00  0.00     0.210 C 
ENDBRANCH  10  28
ENDBRANCH   4   5
ENDBRANCH   1   4
TORSDOF 11
ENDMDL
MODEL 4
REMARK VINA RESULT:    -6.233      6.186     10.209
REMARK INTER + INTRA:         -10.792
REMARK INTER:                  -9.514
REMARK INTRA:                  -1.277
REMARK CONF_INDEPENDENT:        3.281
REMARK UNBOUND:                -1.277
REMARK  11 active torsions:
REMARK  status: ('A' for Active; 'I' for Inactive)
REMARK    1  A    between atoms: O_2  and  C_3 
REMARK    2  A    between atoms: C_5  and  C_6 
REMARK    3  A    between atoms: C_7  and  C_8 
REMARK       I    between atoms: C_8  and  N_10 
REMARK    4  A    between atoms: N_10  and  N_11 
REMARK    5  A    between atoms: N_11  and  C_12 
REMARK    6  A    between atoms: C_12  and  N_14 
REMARK    7  A    between atoms: N_14  and  C_15 
REMARK    8  A    between atoms: C_15  and  C_16 
REMARK    9  A    between atoms: C_16  and  C_17 
REMARK   10  A    between atoms: C_22  and  O_23 
REMARK   11  A    between atoms: O_23  and  C_24 
ROOT
ATOM      1  C   UNL d   1      34.867 -23.521   7.340  0.00  0.00     0.284 C 
ATOM      2  C   UNL d   1      35.654 -23.243   8.611  0.00  0.00     0.006 C 
ATOM      3  N   UNL d   1      36.305 -23.014   9.666  0.00  0.00    -0.099 N 
ENDROOT
BRANCH   1   4
ATOM      4  O   UNL d   1      33.652 -22.787   7.389  0.00  0.00    -0.336 OA
BRANCH   4   5
ATOM      5  C   UNL d   1      33.468 -22.007   6.281  0.00  0.00     0.103 A 
ATOM      6  C   UNL d   1      34.625 -21.949   5.477  0.00  0.00     0.040 A 
ATOM      7  C   UNL d   1      34.619 -21.310   4.236  0.00  0.00     0.014 A 
ATOM      8  C   UNL d   1      33.446 -20.737   3.744  0.00  0.00    -0.033 A 
ATOM      9  C   UNL d   1      32.311 -20.719   4.609  0.00  0.00     0.051 A 
ATOM     10  C   UNL d   1      32.286 -21.361   5.874  0.00  0.00     0.102 A 
BRANCH   8  11
ATOM     11  C   UNL d   1      33.362 -20.270   2.322  0.00  0.00     0.017 C 
ATOM     12  C   UNL d   1      32.365 -19.542   1.762  0.00  0.00     0.076 C 
BRANCH  12  13
ATOM     13  C   UNL d   1      32.401 -19.059   0.336  0.00  0.00     0.259 C 
ATOM     14  O   UNL d   1      33.386 -19.249  -0.393  0.00  0.00    -0.267 OA
ATOM     15  N   UNL d   1      31.265 -18.396  -0.094  0.00  0.00    -0.264 N 
ATOM     16  H   UNL d   1      30.446 -18.233   0.492  0.00  0.00     0.190 HD
BRANCH  15  17
ATOM     17  N   UNL d   1      31.155 -17.908  -1.445  0.00  0.00    -0.274 N 
ATOM     18  H   UNL d   1      31.917 -18.171  -2.066  0.00  0.00     0.189 HD
BRANCH  17  19
ATOM     19  C   UNL d   1      30.061 -17.139  -1.839  0.00  0.00     0.186 C 
ATOM     20  S   UNL d   1      30.009 -16.369  -3.337  0.00  0.00    -0.040 SA
BRANCH  19  21
ATOM     21  N   UNL d   1      29.035 -17.062  -0.895  0.00  0.00    -0.366 N 
ATOM     22  H   UNL d   1      29.214 -17.342   0.060  0.00  0.00     0.161 HD
BRANCH  21  23
ATOM     23  C   UNL d   1      27.657 -16.674  -1.238  0.00  0.00     0.122 C 
BRANCH  23  24
ATOM     24  C   UNL d   1      26.549 -17.247  -0.343  0.00  0.00     0.023 C 
BRANCH  24  25
ATOM     25  C   UNL d   1      25.132 -16.949  -0.901  0.00  0.00    -0.021 C 
ATOM     26  C   UNL d   1      25.163 -16.594  -2.391  0.00  0.00     0.009 C 
ATOM     27  C   UNL d   1      24.207 -18.152  -0.695  0.00  0.00     0.009 C 
ENDBRANCH  24  25
ENDBRANCH  23  24
ENDBRANCH  21  23
ENDBRANCH  19  21
ENDBRANCH  17  19
ENDBRANCH  15  17
ENDBRANCH  12  13
ENDBRANCH   8  11
BRANCH  10  28
ATOM     28  O   UNL d   1      31.016 -21.568   6.403  0.00  0.00    -0.353 OA
ATOM     29  C   UNL d   1      29.862 -21.955   5.626  0.00  0.00     0.210 C 
ENDBRANCH  10  28
ENDBRANCH   4   5
ENDBRANCH   1   4
TORSDOF 11
ENDMDL
MODEL 5
REMARK VINA RESULT:    -6.165      3.767      5.355
REMARK INTER + INTRA:         -10.833
REMARK INTER:                  -9.446
REMARK INTRA:                  -1.387
REMARK CONF_INDEPENDENT:        3.281
REMARK UNBOUND:                -1.387
REMARK  11 active torsions:
REMARK  status: ('A' for Active; 'I' for Inactive)
REMARK    1  A    between atoms: O_2  and  C_3 
REMARK    2  A    between atoms: C_5  and  C_6 
REMARK    3  A    between atoms: C_7  and  C_8 
REMARK       I    between atoms: C_8  and  N_10 
REMARK    4  A    between atoms: N_10  and  N_11 
REMARK    5  A    between atoms: N_11  and  C_12 
REMARK    6  A    between atoms: C_12  and  N_14 
REMARK    7  A    between atoms: N_14  and  C_15 
REMARK    8  A    between atoms: C_15  and  C_16 
REMARK    9  A    between atoms: C_16  and  C_17 
REMARK   10  A    between atoms: C_22  and  O_23 
REMARK   11  A    between atoms: O_23  and  C_24 
ROOT
ATOM      1  C   UNL d   1      25.490 -13.872  -4.265  0.00  0.00     0.284 C 
ATOM      2  C   UNL d   1      26.636 -14.494  -5.047  0.00  0.00     0.006 C 
ATOM      3  N   UNL d   1      27.585 -15.011  -5.696  0.00  0.00    -0.099 N 
ENDROOT
BRANCH   1   4
ATOM      4  O   UNL d   1      24.897 -14.875  -3.453  0.00  0.00    -0.336 OA
BRANCH   4   5
ATOM      5  C   UNL d   1      25.588 -15.081  -2.290  0.00  0.00     0.103 A 
ATOM      6  C   UNL d   1      26.280 -13.924  -1.874  0.00  0.00     0.040 A 
ATOM      7  C   UNL d   1      26.948 -13.877  -0.649  0.00  0.00     0.014 A 
ATOM      8  C   UNL d   1      26.916 -14.972   0.214  0.00  0.00    -0.033 A 
ATOM      9  C   UNL d   1      26.295 -16.166  -0.261  0.00  0.00     0.051 A 
ATOM     10  C   UNL d   1      25.608 -16.245  -1.500  0.00  0.00     0.102 A 
BRANCH   8  11
ATOM     11  C   UNL d   1      27.413 -14.850   1.623  0.00  0.00     0.017 C 
ATOM     12  C   UNL d   1      27.177 -13.830   2.484  0.00  0.00     0.076 C 
BRANCH  12  13
ATOM     13  C   UNL d   1      27.664 -13.828   3.910  0.00  0.00     0.259 C 
ATOM     14  O   UNL d   1      27.481 -12.859   4.661  0.00  0.00    -0.267 OA
ATOM     15  N   UNL d   1      28.323 -14.976   4.313  0.00  0.00    -0.264 N 
ATOM     16  H   UNL d   1      28.481 -15.782   3.709  0.00  0.00     0.190 HD
BRANCH  15  17
ATOM     17  N   UNL d   1      28.814 -15.118   5.660  0.00  0.00    -0.274 N 
ATOM     18  H   UNL d   1      28.636 -16.020   6.096  0.00  0.00     0.189 HD
BRANCH  17  19
ATOM     19  C   UNL d   1      29.490 -14.072   6.287  0.00  0.00     0.186 C 
ATOM     20  S   UNL d   1      29.201 -13.665   7.897  0.00  0.00    -0.040 SA
BRANCH  19  21
ATOM     21  N   UNL d   1      30.405 -13.402   5.473  0.00  0.00    -0.366 N 
ATOM     22  H   UNL d   1      31.196 -13.904   5.093  0.00  0.00     0.161 HD
BRANCH  21  23
ATOM     23  C   UNL d   1      30.332 -11.956   5.205  0.00  0.00     0.122 C 
BRANCH  23  24
ATOM     24  C   UNL d   1      30.811 -11.031   6.332  0.00  0.00     0.023 C 
BRANCH  24  25
ATOM     25  C   UNL d   1      29.895  -9.790   6.501  0.00  0.00    -0.021 C 
ATOM     26  C   UNL d   1      28.585  -9.930   5.721  0.00  0.00     0.009 C 
ATOM     27  C   UNL d   1      29.571  -9.555   7.979  0.00  0.00     0.009 C 
ENDBRANCH  24  25
ENDBRANCH  23  24
ENDBRANCH  21  23
ENDBRANCH  19  21
ENDBRANCH  17  19
ENDBRANCH  15  17
ENDBRANCH  12  13
ENDBRANCH   8  11
BRANCH  10  28
ATOM     28  O   UNL d   1      24.756 -17.338  -1.631  0.00  0.00    -0.353 OA
ATOM     29  C   UNL d   1      23.855 -17.798  -0.601  0.00  0.00     0.210 C 
ENDBRANCH  10  28
ENDBRANCH   4   5
ENDBRANCH   1   4
TORSDOF 11
ENDMDL
MODEL 6
REMARK VINA RESULT:    -6.067      4.958      9.693
REMARK INTER + INTRA:         -11.020
REMARK INTER:                  -9.348
REMARK INTRA:                  -1.671
REMARK CONF_INDEPENDENT:        3.281
REMARK UNBOUND:                -1.671
REMARK  11 active torsions:
REMARK  status: ('A' for Active; 'I' for Inactive)
REMARK    1  A    between atoms: O_2  and  C_3 
REMARK    2  A    between atoms: C_5  and  C_6 
REMARK    3  A    between atoms: C_7  and  C_8 
REMARK       I    between atoms: C_8  and  N_10 
REMARK    4  A    between atoms: N_10  and  N_11 
REMARK    5  A    between atoms: N_11  and  C_12 
REMARK    6  A    between atoms: C_12  and  N_14 
REMARK    7  A    between atoms: N_14  and  C_15 
REMARK    8  A    between atoms: C_15  and  C_16 
REMARK    9  A    between atoms: C_16  and  C_17 
REMARK   10  A    between atoms: C_22  and  O_23 
REMARK   11  A    between atoms: O_23  and  C_24 
ROOT
ATOM      1  C   UNL d   1      31.844 -14.473   9.341  0.00  0.00     0.284 C 
ATOM      2  C   UNL d   1      31.137 -15.530  10.174  0.00  0.00     0.006 C 
ATOM      3  N   UNL d   1      30.551 -16.407  10.864  0.00  0.00    -0.099 N 
ENDROOT
BRANCH   1   4
ATOM      4  O   UNL d   1      31.086 -13.273   9.392  0.00  0.00    -0.336 OA
BRANCH   4   5
ATOM      5  C   UNL d   1      30.204 -13.168   8.352  0.00  0.00     0.103 A 
ATOM      6  C   UNL d   1      30.836 -13.341   7.103  0.00  0.00     0.040 A 
ATOM      7  C   UNL d   1      30.101 -13.397   5.917  0.00  0.00     0.014 A 
ATOM      8  C   UNL d   1      28.709 -13.316   5.945  0.00  0.00    -0.033 A 
ATOM      9  C   UNL d   1      28.092 -13.045   7.203  0.00  0.00     0.051 A 
ATOM     10  C   UNL d   1      28.810 -12.984   8.425  0.00  0.00     0.102 A 
BRANCH   8  11
ATOM     11  C   UNL d   1      27.901 -13.620   4.721  0.00  0.00     0.017 C 
ATOM     12  C   UNL d   1      28.294 -13.485   3.430  0.00  0.00     0.076 C 
BRANCH  12  13
ATOM     13  C   UNL d   1      27.432 -13.882   2.261  0.00  0.00     0.259 C 
ATOM     14  O   UNL d   1      26.406 -13.253   1.962  0.00  0.00    -0.267 OA
ATOM     15  N   UNL d   1      27.867 -14.989   1.554  0.00  0.00    -0.264 N 
ATOM     16  H   UNL d   1      28.708 -15.517   1.786  0.00  0.00     0.190 HD
BRANCH  15  17
ATOM     17  N   UNL d   1      27.151 -15.459   0.395  0.00  0.00    -0.274 N 
ATOM     18  H   UNL d   1      26.269 -14.987   0.207  0.00  0.00     0.189 HD
BRANCH  17  19
ATOM     19  C   UNL d   1      27.668 -16.485  -0.396  0.00  0.00     0.186 C 
ATOM     20  S   UNL d   1      28.166 -16.218  -1.983  0.00  0.00    -0.040 SA
BRANCH  19  21
ATOM     21  N   UNL d   1      27.728 -17.729   0.235  0.00  0.00    -0.366 N 
ATOM     22  H   UNL d   1      28.620 -18.090   0.543  0.00  0.00     0.161 HD
BRANCH  21  23
ATOM     23  C   UNL d   1      26.554 -18.603   0.398  0.00  0.00     0.122 C 
BRANCH  23  24
ATOM     24  C   UNL d   1      25.206 -17.898   0.604  0.00  0.00     0.023 C 
BRANCH  24  25
ATOM     25  C   UNL d   1      24.403 -17.771  -0.717  0.00  0.00    -0.021 C 
ATOM     26  C   UNL d   1      22.944 -18.205  -0.548  0.00  0.00     0.009 C 
ATOM     27  C   UNL d   1      24.437 -16.330  -1.234  0.00  0.00     0.009 C 
ENDBRANCH  24  25
ENDBRANCH  23  24
ENDBRANCH  21  23
ENDBRANCH  19  21
ENDBRANCH  17  19
ENDBRANCH  15  17
ENDBRANCH  12  13
ENDBRANCH   8  11
BRANCH  10  28
ATOM     28  O   UNL d   1      28.030 -13.091   9.573  0.00  0.00    -0.353 OA
ATOM     29  C   UNL d   1      28.418 -12.593  10.871  0.00  0.00     0.210 C 
ENDBRANCH  10  28
ENDBRANCH   4   5
ENDBRANCH   1   4
TORSDOF 11
ENDMDL
MODEL 7
REMARK VINA RESULT:    -5.950      3.701      5.491
REMARK INTER + INTRA:         -10.907
REMARK INTER:                  -9.231
REMARK INTRA:                  -1.676
REMARK CONF_INDEPENDENT:        3.281
REMARK UNBOUND:                -1.676
REMARK  11 active torsions:
REMARK  status: ('A' for Active; 'I' for Inactive)
REMARK    1  A    between atoms: O_2  and  C_3 
REMARK    2  A    between atoms: C_5  and  C_6 
REMARK    3  A    between atoms: C_7  and  C_8 
REMARK       I    between atoms: C_8  and  N_10 
REMARK    4  A    between atoms: N_10  and  N_11 
REMARK    5  A    between atoms: N_11  and  C_12 
REMARK    6  A    between atoms: C_12  and  N_14 
REMARK    7  A    between atoms: N_14  and  C_15 
REMARK    8  A    between atoms: C_15  and  C_16 
REMARK    9  A    between atoms: C_16  and  C_17 
REMARK   10  A    between atoms: C_22  and  O_23 
REMARK   11  A    between atoms: O_23  and  C_24 
ROOT
ATOM      1  C   UNL d   1      25.488 -13.947  -4.618  0.00  0.00     0.284 C 
ATOM      2  C   UNL d   1      26.710 -14.629  -5.213  0.00  0.00     0.006 C 
ATOM      3  N   UNL d   1      27.722 -15.195  -5.707  0.00  0.00    -0.099 N 
ENDROOT
BRANCH   1   4
ATOM      4  O   UNL d   1      24.888 -14.827  -3.679  0.00  0.00    -0.336 OA
BRANCH   4   5
ATOM      5  C   UNL d   1      25.547 -14.840  -2.480  0.00  0.00     0.103 A 
ATOM      6  C   UNL d   1      26.055 -13.568  -2.143  0.00  0.00     0.040 A 
ATOM      7  C   UNL d   1      26.653 -13.328  -0.904  0.00  0.00     0.014 A 
ATOM      8  C   UNL d   1      26.731 -14.342   0.050  0.00  0.00    -0.033 A 
ATOM      9  C   UNL d   1      26.300 -15.646  -0.341  0.00  0.00     0.051 A 
ATOM     10  C   UNL d   1      25.688 -15.921  -1.590  0.00  0.00     0.102 A 
BRANCH   8  11
ATOM     11  C   UNL d   1      27.141 -14.037   1.458  0.00  0.00     0.017 C 
ATOM     12  C   UNL d   1      27.780 -14.866   2.319  0.00  0.00     0.076 C 
BRANCH  12  13
ATOM     13  C   UNL d   1      28.215 -14.446   3.698  0.00  0.00     0.259 C 
ATOM     14  O   UNL d   1      27.396 -14.108   4.566  0.00  0.00    -0.267 OA
ATOM     15  N   UNL d   1      29.580 -14.466   3.921  0.00  0.00    -0.264 N 
ATOM     16  H   UNL d   1      30.266 -14.742   3.219  0.00  0.00     0.190 HD
BRANCH  15  17
ATOM     17  N   UNL d   1      30.129 -14.115   5.207  0.00  0.00    -0.274 N 
ATOM     18  H   UNL d   1      30.776 -14.793   5.603  0.00  0.00     0.189 HD
BRANCH  17  19
ATOM     19  C   UNL d   1      29.782 -12.916   5.828  0.00  0.00     0.186 C 
ATOM     20  S   UNL d   1      30.807 -11.579   5.814  0.00  0.00    -0.040 SA
BRANCH  19  21
ATOM     21  N   UNL d   1      28.535 -12.927   6.455  0.00  0.00    -0.366 N 
ATOM     22  H   UNL d   1      27.765 -13.422   6.025  0.00  0.00     0.161 HD
BRANCH  21  23
ATOM     23  C   UNL d   1      28.248 -12.170   7.685  0.00  0.00     0.122 C 
BRANCH  23  24
ATOM     24  C   UNL d   1      29.058 -12.562   8.928  0.00  0.00     0.023 C 
BRANCH  24  25
ATOM     25  C   UNL d   1      28.200 -13.332   9.967  0.00  0.00    -0.021 C 
ATOM     26  C   UNL d   1      28.530 -14.827   9.992  0.00  0.00     0.009 C 
ATOM     27  C   UNL d   1      28.404 -12.754  11.370  0.00  0.00     0.009 C 
ENDBRANCH  24  25
ENDBRANCH  23  24
ENDBRANCH  21  23
ENDBRANCH  19  21
ENDBRANCH  17  19
ENDBRANCH  15  17
ENDBRANCH  12  13
ENDBRANCH   8  11
BRANCH  10  28
ATOM     28  O   UNL d   1      24.999 -17.129  -1.655  0.00  0.00    -0.353 OA
ATOM     29  C   UNL d   1      23.682 -17.347  -1.105  0.00  0.00     0.210 C 
ENDBRANCH  10  28
ENDBRANCH   4   5
ENDBRANCH   1   4
TORSDOF 11
ENDMDL
MODEL 8
REMARK VINA RESULT:    -5.852      5.006     10.015
REMARK INTER + INTRA:         -10.909
REMARK INTER:                  -9.133
REMARK INTRA:                  -1.775
REMARK CONF_INDEPENDENT:        3.281
REMARK UNBOUND:                -1.775
REMARK  11 active torsions:
REMARK  status: ('A' for Active; 'I' for Inactive)
REMARK    1  A    between atoms: O_2  and  C_3 
REMARK    2  A    between atoms: C_5  and  C_6 
REMARK    3  A    between atoms: C_7  and  C_8 
REMARK       I    between atoms: C_8  and  N_10 
REMARK    4  A    between atoms: N_10  and  N_11 
REMARK    5  A    between atoms: N_11  and  C_12 
REMARK    6  A    between atoms: C_12  and  N_14 
REMARK    7  A    between atoms: N_14  and  C_15 
REMARK    8  A    between atoms: C_15  and  C_16 
REMARK    9  A    between atoms: C_16  and  C_17 
REMARK   10  A    between atoms: C_22  and  O_23 
REMARK   11  A    between atoms: O_23  and  C_24 
ROOT
ATOM      1  C   UNL d   1      30.630 -11.072   9.251  0.00  0.00     0.284 C 
ATOM      2  C   UNL d   1      30.322  -9.589   9.125  0.00  0.00     0.006 C 
ATOM      3  N   UNL d   1      30.066  -8.359   9.022  0.00  0.00    -0.099 N 
ENDROOT
BRANCH   1   4
ATOM      4  O   UNL d   1      29.416 -11.771   9.485  0.00  0.00    -0.336 OA
BRANCH   4   5
ATOM      5  C   UNL d   1      29.024 -12.512   8.404  0.00  0.00     0.103 A 
ATOM      6  C   UNL d   1      28.314 -11.740   7.462  0.00  0.00     0.040 A 
ATOM      7  C   UNL d   1      27.930 -12.269   6.228  0.00  0.00     0.014 A 
ATOM      8  C   UNL d   1      28.273 -13.576   5.883  0.00  0.00    -0.033 A 
ATOM      9  C   UNL d   1      28.905 -14.374   6.883  0.00  0.00     0.051 A 
ATOM     10  C   UNL d   1      29.310 -13.866   8.144  0.00  0.00     0.102 A 
BRANCH   8  11
ATOM     11  C   UNL d   1      28.086 -14.071   4.481  0.00  0.00     0.017 C 
ATOM     12  C   UNL d   1      27.325 -13.506   3.512  0.00  0.00     0.076 C 
BRANCH  12  13
ATOM     13  C   UNL d   1      27.253 -14.040   2.106  0.00  0.00     0.259 C 
ATOM     14  O   UNL d   1      26.522 -13.523   1.248  0.00  0.00    -0.267 OA
ATOM     15  N   UNL d   1      28.055 -15.138   1.847  0.00  0.00    -0.264 N 
ATOM     16  H   UNL d   1      28.662 -15.574   2.541  0.00  0.00     0.190 HD
BRANCH  15  17
ATOM     17  N   UNL d   1      28.104 -15.730   0.534  0.00  0.00    -0.274 N 
ATOM     18  H   UNL d   1      28.926 -15.494  -0.019  0.00  0.00     0.189 HD
BRANCH  17  19
ATOM     19  C   UNL d   1      27.083 -16.569   0.091  0.00  0.00     0.186 C 
ATOM     20  S   UNL d   1      27.189 -18.246   0.228  0.00  0.00    -0.040 SA
BRANCH  19  21
ATOM     21  N   UNL d   1      25.990 -15.907  -0.470  0.00  0.00    -0.366 N 
ATOM     22  H   UNL d   1      25.798 -14.950  -0.208  0.00  0.00     0.161 HD
BRANCH  21  23
ATOM     23  C   UNL d   1      25.029 -16.566  -1.371  0.00  0.00     0.122 C 
BRANCH  23  24
ATOM     24  C   UNL d   1      23.548 -16.446  -0.988  0.00  0.00     0.023 C 
BRANCH  24  25
ATOM     25  C   UNL d   1      23.013 -17.735  -0.308  0.00  0.00    -0.021 C 
ATOM     26  C   UNL d   1      21.672 -18.182  -0.895  0.00  0.00     0.009 C 
ATOM     27  C   UNL d   1      24.023 -18.878  -0.448  0.00  0.00     0.009 C 
ENDBRANCH  24  25
ENDBRANCH  23  24
ENDBRANCH  21  23
ENDBRANCH  19  21
ENDBRANCH  17  19
ENDBRANCH  15  17
ENDBRANCH  12  13
ENDBRANCH   8  11
BRANCH  10  28
ATOM     28  O   UNL d   1      30.229 -14.654   8.829  0.00  0.00    -0.353 OA
ATOM     29  C   UNL d   1      31.352 -14.135   9.575  0.00  0.00     0.210 C 
ENDBRANCH  10  28
ENDBRANCH   4   5
ENDBRANCH   1   4
TORSDOF 11
ENDMDL
MODEL 9
REMARK VINA RESULT:    -5.606      3.101      5.032
REMARK INTER + INTRA:         -10.979
REMARK INTER:                  -8.888
REMARK INTRA:                  -2.091
REMARK CONF_INDEPENDENT:        3.281
REMARK UNBOUND:                -2.091
REMARK  11 active torsions:
REMARK  status: ('A' for Active; 'I' for Inactive)
REMARK    1  A    between atoms: O_2  and  C_3 
REMARK    2  A    between atoms: C_5  and  C_6 
REMARK    3  A    between atoms: C_7  and  C_8 
REMARK       I    between atoms: C_8  and  N_10 
REMARK    4  A    between atoms: N_10  and  N_11 
REMARK    5  A    between atoms: N_11  and  C_12 
REMARK    6  A    between atoms: C_12  and  N_14 
REMARK    7  A    between atoms: N_14  and  C_15 
REMARK    8  A    between atoms: C_15  and  C_16 
REMARK    9  A    between atoms: C_16  and  C_17 
REMARK   10  A    between atoms: C_22  and  O_23 
REMARK   11  A    between atoms: O_23  and  C_24 
ROOT
ATOM      1  C   UNL d   1      22.170 -18.765  -0.989  0.00  0.00     0.284 C 
ATOM      2  C   UNL d   1      20.667 -18.980  -0.933  0.00  0.00     0.006 C 
ATOM      3  N   UNL d   1      19.420 -19.158  -0.887  0.00  0.00    -0.099 N 
ENDROOT
BRANCH   1   4
ATOM      4  O   UNL d   1      22.442 -17.391  -0.753  0.00  0.00    -0.336 OA
BRANCH   4   5
ATOM      5  C   UNL d   1      23.780 -17.137  -0.632  0.00  0.00     0.103 A 
ATOM      6  C   UNL d   1      24.425 -18.079   0.197  0.00  0.00     0.040 A 
ATOM      7  C   UNL d   1      25.812 -18.080   0.356  0.00  0.00     0.014 A 
ATOM      8  C   UNL d   1      26.602 -17.161  -0.333  0.00  0.00    -0.033 A 
ATOM      9  C   UNL d   1      25.930 -16.154  -1.090  0.00  0.00     0.051 A 
ATOM     10  C   UNL d   1      24.523 -16.127  -1.273  0.00  0.00     0.102 A 
BRANCH   8  11
ATOM     11  C   UNL d   1      28.093 -17.306  -0.365  0.00  0.00     0.017 C 
ATOM     12  C   UNL d   1      28.912 -17.078  -1.420  0.00  0.00     0.076 C 
BRANCH  12  13
ATOM     13  C   UNL d   1      30.412 -17.185  -1.337  0.00  0.00     0.259 C 
ATOM     14  O   UNL d   1      31.157 -16.369  -1.899  0.00  0.00    -0.267 OA
ATOM     15  N   UNL d   1      30.890 -18.250  -0.593  0.00  0.00    -0.264 N 
ATOM     16  H   UNL d   1      30.291 -18.929  -0.124  0.00  0.00     0.190 HD
BRANCH  15  17
ATOM     17  N   UNL d   1      32.304 -18.452  -0.408  0.00  0.00    -0.274 N 
ATOM     18  H   UNL d   1      32.658 -18.224   0.519  0.00  0.00     0.189 HD
BRANCH  17  19
ATOM     19  C   UNL d   1      33.098 -18.937  -1.447  0.00  0.00     0.186 C 
ATOM     20  S   UNL d   1      34.486 -19.846  -1.154  0.00  0.00    -0.040 SA
BRANCH  19  21
ATOM     21  N   UNL d   1      32.650 -18.600  -2.725  0.00  0.00    -0.366 N 
ATOM     22  H   UNL d   1      32.571 -17.627  -2.986  0.00  0.00     0.161 HD
BRANCH  21  23
ATOM     23  C   UNL d   1      32.190 -19.601  -3.703  0.00  0.00     0.122 C 
BRANCH  23  24
ATOM     24  C   UNL d   1      30.775 -19.402  -4.263  0.00  0.00     0.023 C 
BRANCH  24  25
ATOM     25  C   UNL d   1      30.759 -18.459  -5.495  0.00  0.00    -0.021 C 
ATOM     26  C   UNL d   1      30.120 -17.104  -5.176  0.00  0.00     0.009 C 
ATOM     27  C   UNL d   1      32.181 -18.227  -6.015  0.00  0.00     0.009 C 
ENDBRANCH  24  25
ENDBRANCH  23  24
ENDBRANCH  21  23
ENDBRANCH  19  21
ENDBRANCH  17  19
ENDBRANCH  15  17
ENDBRANCH  12  13
ENDBRANCH   8  11
BRANCH  10  28
ATOM     28  O   UNL d   1      24.081 -15.328  -2.322  0.00  0.00    -0.353 OA
ATOM     29  C   UNL d   1      24.914 -14.392  -3.041  0.00  0.00     0.210 C 
ENDBRANCH  10  28
ENDBRANCH   4   5
ENDBRANCH   1   4
TORSDOF 11
ENDMDL
