MODEL 1
REMARK VINA RESULT:    -9.116      0.000      0.000
REMARK INTER + INTRA:         -14.912
REMARK INTER:                 -12.994
REMARK INTRA:                  -1.918
REMARK CONF_INDEPENDENT:        3.878
REMARK UNBOUND:                -1.918
REMARK  13 active torsions:
REMARK  status: ('A' for Active; 'I' for Inactive)
REMARK    1  A    between atoms: C_2  and  O_3 
REMARK    2  A    between atoms: O_3  and  C_4 
REMARK    3  A    between atoms: C_4  and  C_6 
REMARK    4  A    between atoms: C_10  and  N_11 
REMARK    5  A    between atoms: C_15  and  C_16 
REMARK    6  A    between atoms: N_17  and  N_18 
REMARK       I    between atoms: N_18  and  C_19 
REMARK    7  A    between atoms: C_19  and  C_21 
REMARK    8  A    between atoms: C_21  and  C_22 
REMARK    9  A    between atoms: C_23  and  C_22 
REMARK   10  A    between atoms: C_23  and  C_25 
REMARK   11  A    between atoms: C_23  and  O_24 
REMARK   12  A    between atoms: C_28  and  O_29 
REMARK   13  A    between atoms: O_29  and  C_30 
ROOT
ATOM      1  C   UNL d   1      26.947 -11.937   2.338  0.00  0.00     0.152 C 
ATOM      2  N   UNL d   1      26.868 -12.490   1.159  0.00  0.00    -0.184 NA
ENDROOT
BRANCH   1   3
ATOM      3  C   UNL d   1      27.490 -12.503   3.575  0.00  0.00     0.008 A 
ATOM      4  C   UNL d   1      27.776 -13.847   3.920  0.00  0.00     0.040 A 
ATOM      5  C   UNL d   1      28.308 -13.914   5.174  0.00  0.00     0.014 A 
ATOM      6  N   UNL d   1      28.382 -12.631   5.652  0.00  0.00    -0.319 N 
ATOM      7  C   UNL d   1      28.653 -15.179   5.873  0.00  0.00     0.068 C 
ATOM      8  C   UNL d   1      27.858 -11.756   4.703  0.00  0.00     0.025 A 
ATOM      9  C   UNL d   1      27.842 -10.276   4.934  0.00  0.00     0.070 C 
BRANCH   6  10
ATOM     10  C   UNL d   1      28.909 -12.293   6.908  0.00  0.00     0.040 A 
ATOM     11  C   UNL d   1      29.701 -11.149   7.023  0.00  0.00     0.030 A 
ATOM     12  C   UNL d   1      30.091 -10.737   8.290  0.00  0.00     0.003 A 
ATOM     13  C   UNL d   1      29.708 -11.476   9.417  0.00  0.00     0.018 A 
ATOM     14  C   UNL d   1      28.869 -12.598   9.293  0.00  0.00     0.041 A 
ATOM     15  C   UNL d   1      28.486 -13.023   8.026  0.00  0.00     0.047 A 
BRANCH  14  16
ATOM     16  C   UNL d   1      28.231 -13.177  10.501  0.00  0.00     0.293 C 
ATOM     17  O   UNL d   1      27.105 -12.844  10.855  0.00  0.00    -0.259 OA
BRANCH  16  18
ATOM     18  O   UNL d   1      29.010 -14.114  11.103  0.00  0.00    -0.318 OA
BRANCH  18  19
ATOM     19  C   UNL d   1      30.224 -14.408  10.384  0.00  0.00     0.174 C 
ATOM     20  C   UNL d   1      30.462 -15.910  10.355  0.00  0.00     0.034 C 
ENDBRANCH  18  19
ENDBRANCH  16  18
ENDBRANCH  14  16
ENDBRANCH   6  10
ENDBRANCH   1   3
BRANCH   2  21
ATOM     21  N   UNL d   1      27.323 -13.749   0.958  0.00  0.00    -0.247 N 
ATOM     22  C   UNL d   1      26.902 -14.555  -0.067  0.00  0.00     0.237 C 
ATOM     23  O   UNL d   1      26.070 -14.237  -0.911  0.00  0.00    -0.272 OA
ATOM     24  H   UNL d   1      27.998 -14.138   1.571  0.00  0.00     0.192 HD
BRANCH  22  25
ATOM     25  C   UNL d   1      27.590 -15.920  -0.039  0.00  0.00     0.107 C 
BRANCH  25  26
ATOM     26  C   UNL d   1      26.536 -16.980   0.262  0.00  0.00     0.046 C 
BRANCH  26  27
ATOM     27  C   UNL d   1      25.873 -17.524  -0.996  0.00  0.00     0.151 C 
BRANCH  27  28
ATOM     28  C   UNL d   1      24.372 -17.662  -0.847  0.00  0.00    -0.029 A 
ATOM     29  C   UNL d   1      23.783 -18.937  -0.788  0.00  0.00     0.012 A 
ATOM     30  C   UNL d   1      22.391 -19.080  -0.864  0.00  0.00     0.037 A 
ATOM     31  C   UNL d   1      21.567 -17.955  -0.895  0.00  0.00     0.068 A 
ATOM     32  C   UNL d   1      22.149 -16.690  -0.886  0.00  0.00     0.037 A 
ATOM     33  C   UNL d   1      23.532 -16.545  -0.854  0.00  0.00     0.012 A 
BRANCH  31  34
ATOM     34  O   UNL d   1      20.217 -18.190  -0.925  0.00  0.00    -0.352 OA
BRANCH  34  35
ATOM     35  C   UNL d   1      19.819 -19.514  -0.554  0.00  0.00     0.171 C 
ATOM     36  C   UNL d   1      19.759 -19.610   0.957  0.00  0.00     0.034 C 
ENDBRANCH  34  35
ENDBRANCH  31  34
ENDBRANCH  27  28
BRANCH  27  37
ATOM     37  O   UNL d   1      26.217 -16.665  -2.087  0.00  0.00    -0.391 OA
ATOM     38  H   UNL d   1      25.824 -15.795  -1.896  0.00  0.00     0.210 HD
ENDBRANCH  27  37
ENDBRANCH  26  27
ENDBRANCH  25  26
ENDBRANCH  22  25
ENDBRANCH   2  21
TORSDOF 13
ENDMDL
MODEL 2
REMARK VINA RESULT:    -8.552      3.878      6.563
REMARK INTER + INTRA:         -15.382
REMARK INTER:                 -12.430
REMARK INTRA:                  -2.953
REMARK CONF_INDEPENDENT:        3.878
REMARK UNBOUND:                -2.953
REMARK  13 active torsions:
REMARK  status: ('A' for Active; 'I' for Inactive)
REMARK    1  A    between atoms: C_2  and  O_3 
REMARK    2  A    between atoms: O_3  and  C_4 
REMARK    3  A    between atoms: C_4  and  C_6 
REMARK    4  A    between atoms: C_10  and  N_11 
REMARK    5  A    between atoms: C_15  and  C_16 
REMARK    6  A    between atoms: N_17  and  N_18 
REMARK       I    between atoms: N_18  and  C_19 
REMARK    7  A    between atoms: C_19  and  C_21 
REMARK    8  A    between atoms: C_21  and  C_22 
REMARK    9  A    between atoms: C_23  and  C_22 
REMARK   10  A    between atoms: C_23  and  C_25 
REMARK   11  A    between atoms: C_23  and  O_24 
REMARK   12  A    between atoms: C_28  and  O_29 
REMARK   13  A    between atoms: O_29  and  C_30 
ROOT
ATOM      1  C   UNL d   1      27.425 -13.649  -5.835  0.00  0.00     0.152 C 
ATOM      2  N   UNL d   1      27.325 -14.949  -5.795  0.00  0.00    -0.184 NA
ENDROOT
BRANCH   1   3
ATOM      3  C   UNL d   1      27.177 -12.682  -4.762  0.00  0.00     0.008 A 
ATOM      4  C   UNL d   1      26.292 -11.577  -4.713  0.00  0.00     0.040 A 
ATOM      5  C   UNL d   1      26.361 -10.966  -3.495  0.00  0.00     0.014 A 
ATOM      6  N   UNL d   1      27.273 -11.661  -2.743  0.00  0.00    -0.319 N 
ATOM      7  C   UNL d   1      25.619  -9.730  -3.133  0.00  0.00     0.068 C 
ATOM      8  C   UNL d   1      27.807 -12.695  -3.511  0.00  0.00     0.025 A 
ATOM      9  C   UNL d   1      28.807 -13.652  -2.937  0.00  0.00     0.070 C 
BRANCH   6  10
ATOM     10  C   UNL d   1      27.593 -11.349  -1.414  0.00  0.00     0.040 A 
ATOM     11  C   UNL d   1      27.950 -10.038  -1.094  0.00  0.00     0.030 A 
ATOM     12  C   UNL d   1      28.116  -9.702   0.242  0.00  0.00     0.003 A 
ATOM     13  C   UNL d   1      27.946 -10.676   1.237  0.00  0.00     0.018 A 
ATOM     14  C   UNL d   1      27.538 -11.981   0.906  0.00  0.00     0.041 A 
ATOM     15  C   UNL d   1      27.383 -12.326  -0.432  0.00  0.00     0.047 A 
BRANCH  14  16
ATOM     16  C   UNL d   1      27.071 -12.898   1.974  0.00  0.00     0.293 C 
ATOM     17  O   UNL d   1      26.826 -14.078   1.745  0.00  0.00    -0.259 OA
BRANCH  16  18
ATOM     18  O   UNL d   1      27.000 -12.292   3.188  0.00  0.00    -0.318 OA
BRANCH  18  19
ATOM     19  C   UNL d   1      27.958 -12.790   4.143  0.00  0.00     0.174 C 
ATOM     20  C   UNL d   1      27.954 -14.311   4.138  0.00  0.00     0.034 C 
ENDBRANCH  18  19
ENDBRANCH  16  18
ENDBRANCH  14  16
ENDBRANCH   6  10
ENDBRANCH   1   3
BRANCH   2  21
ATOM     21  N   UNL d   1      26.949 -15.575  -4.655  0.00  0.00    -0.247 N 
ATOM     22  C   UNL d   1      25.746 -15.366  -4.034  0.00  0.00     0.237 C 
ATOM     23  O   UNL d   1      24.879 -14.593  -4.429  0.00  0.00    -0.272 OA
ATOM     24  H   UNL d   1      27.557 -16.227  -4.222  0.00  0.00     0.192 HD
BRANCH  22  25
ATOM     25  C   UNL d   1      25.602 -16.213  -2.768  0.00  0.00     0.107 C 
BRANCH  25  26
ATOM     26  C   UNL d   1      25.810 -15.305  -1.561  0.00  0.00     0.046 C 
BRANCH  26  27
ATOM     27  C   UNL d   1      25.384 -15.959  -0.254  0.00  0.00     0.151 C 
BRANCH  27  28
ATOM     28  C   UNL d   1      24.188 -16.874  -0.425  0.00  0.00    -0.029 A 
ATOM     29  C   UNL d   1      24.371 -18.263  -0.532  0.00  0.00     0.012 A 
ATOM     30  C   UNL d   1      23.304 -19.093  -0.900  0.00  0.00     0.037 A 
ATOM     31  C   UNL d   1      22.024 -18.564  -1.064  0.00  0.00     0.068 A 
ATOM     32  C   UNL d   1      21.829 -17.196  -0.893  0.00  0.00     0.037 A 
ATOM     33  C   UNL d   1      22.895 -16.364  -0.570  0.00  0.00     0.012 A 
BRANCH  31  34
ATOM     34  O   UNL d   1      21.033 -19.458  -1.382  0.00  0.00    -0.352 OA
BRANCH  34  35
ATOM     35  C   UNL d   1      19.853 -19.373  -0.577  0.00  0.00     0.171 C 
ATOM     36  C   UNL d   1      20.210 -19.682   0.862  0.00  0.00     0.034 C 
ENDBRANCH  34  35
ENDBRANCH  31  34
ENDBRANCH  27  28
BRANCH  27  37
ATOM     37  O   UNL d   1      26.511 -16.661   0.281  0.00  0.00    -0.391 OA
ATOM     38  H   UNL d   1      26.784 -16.184   1.085  0.00  0.00     0.210 HD
ENDBRANCH  27  37
ENDBRANCH  26  27
ENDBRANCH  25  26
ENDBRANCH  22  25
ENDBRANCH   2  21
TORSDOF 13
ENDMDL
MODEL 3
REMARK VINA RESULT:    -8.091      4.916      8.021
REMARK INTER + INTRA:         -16.112
REMARK INTER:                 -11.969
REMARK INTRA:                  -4.143
REMARK CONF_INDEPENDENT:        3.878
REMARK UNBOUND:                -4.143
REMARK  13 active torsions:
REMARK  status: ('A' for Active; 'I' for Inactive)
REMARK    1  A    between atoms: C_2  and  O_3 
REMARK    2  A    between atoms: O_3  and  C_4 
REMARK    3  A    between atoms: C_4  and  C_6 
REMARK    4  A    between atoms: C_10  and  N_11 
REMARK    5  A    between atoms: C_15  and  C_16 
REMARK    6  A    between atoms: N_17  and  N_18 
REMARK       I    between atoms: N_18  and  C_19 
REMARK    7  A    between atoms: C_19  and  C_21 
REMARK    8  A    between atoms: C_21  and  C_22 
REMARK    9  A    between atoms: C_23  and  C_22 
REMARK   10  A    between atoms: C_23  and  C_25 
REMARK   11  A    between atoms: C_23  and  O_24 
REMARK   12  A    between atoms: C_28  and  O_29 
REMARK   13  A    between atoms: O_29  and  C_30 
ROOT
ATOM      1  C   UNL d   1      30.960 -14.143   1.365  0.00  0.00     0.152 C 
ATOM      2  N   UNL d   1      31.358 -15.377   1.223  0.00  0.00    -0.184 NA
ENDROOT
BRANCH   1   3
ATOM      3  C   UNL d   1      29.657 -13.561   1.033  0.00  0.00     0.008 A 
ATOM      4  C   UNL d   1      28.631 -13.071   1.877  0.00  0.00     0.040 A 
ATOM      5  C   UNL d   1      27.596 -12.583   1.135  0.00  0.00     0.014 A 
ATOM      6  N   UNL d   1      27.934 -12.739  -0.185  0.00  0.00    -0.319 N 
ATOM      7  C   UNL d   1      26.327 -12.061   1.705  0.00  0.00     0.068 C 
ATOM      8  C   UNL d   1      29.177 -13.365  -0.269  0.00  0.00     0.025 A 
ATOM      9  C   UNL d   1      29.824 -13.633  -1.593  0.00  0.00     0.070 C 
BRANCH   6  10
ATOM     10  C   UNL d   1      27.128 -12.324  -1.255  0.00  0.00     0.040 A 
ATOM     11  C   UNL d   1      27.343 -11.064  -1.814  0.00  0.00     0.030 A 
ATOM     12  C   UNL d   1      26.648 -10.721  -2.965  0.00  0.00     0.003 A 
ATOM     13  C   UNL d   1      25.736 -11.624  -3.530  0.00  0.00     0.018 A 
ATOM     14  C   UNL d   1      25.564 -12.909  -2.986  0.00  0.00     0.041 A 
ATOM     15  C   UNL d   1      26.248 -13.253  -1.825  0.00  0.00     0.047 A 
BRANCH  14  16
ATOM     16  C   UNL d   1      24.838 -13.945  -3.761  0.00  0.00     0.293 C 
ATOM     17  O   UNL d   1      23.744 -13.720  -4.268  0.00  0.00    -0.259 OA
BRANCH  16  18
ATOM     18  O   UNL d   1      25.539 -15.105  -3.864  0.00  0.00    -0.318 OA
BRANCH  18  19
ATOM     19  C   UNL d   1      26.226 -15.258  -5.122  0.00  0.00     0.174 C 
ATOM     20  C   UNL d   1      27.624 -14.667  -5.027  0.00  0.00     0.034 C 
ENDBRANCH  18  19
ENDBRANCH  16  18
ENDBRANCH  14  16
ENDBRANCH   6  10
ENDBRANCH   1   3
BRANCH   2  21
ATOM     21  N   UNL d   1      30.526 -16.313   0.709  0.00  0.00    -0.247 N 
ATOM     22  C   UNL d   1      30.510 -16.673  -0.612  0.00  0.00     0.237 C 
ATOM     23  O   UNL d   1      31.235 -16.194  -1.478  0.00  0.00    -0.272 OA
ATOM     24  H   UNL d   1      29.879 -16.781   1.298  0.00  0.00     0.192 HD
BRANCH  22  25
ATOM     25  C   UNL d   1      29.465 -17.754  -0.898  0.00  0.00     0.107 C 
BRANCH  25  26
ATOM     26  C   UNL d   1      28.212 -17.075  -1.439  0.00  0.00     0.046 C 
BRANCH  26  27
ATOM     27  C   UNL d   1      27.284 -16.588  -0.335  0.00  0.00     0.151 C 
BRANCH  27  28
ATOM     28  C   UNL d   1      25.842 -16.989  -0.570  0.00  0.00    -0.029 A 
ATOM     29  C   UNL d   1      24.945 -16.084  -1.164  0.00  0.00     0.012 A 
ATOM     30  C   UNL d   1      23.572 -16.361  -1.193  0.00  0.00     0.037 A 
ATOM     31  C   UNL d   1      23.090 -17.584  -0.725  0.00  0.00     0.068 A 
ATOM     32  C   UNL d   1      23.987 -18.508  -0.198  0.00  0.00     0.037 A 
ATOM     33  C   UNL d   1      25.346 -18.218  -0.129  0.00  0.00     0.012 A 
BRANCH  31  34
ATOM     34  O   UNL d   1      21.738 -17.785  -0.833  0.00  0.00    -0.352 OA
BRANCH  34  35
ATOM     35  C   UNL d   1      21.253 -19.001  -0.254  0.00  0.00     0.171 C 
ATOM     36  C   UNL d   1      19.896 -19.325  -0.845  0.00  0.00     0.034 C 
ENDBRANCH  34  35
ENDBRANCH  31  34
ENDBRANCH  27  28
BRANCH  27  37
ATOM     37  O   UNL d   1      27.774 -17.090   0.912  0.00  0.00    -0.391 OA
ATOM     38  H   UNL d   1      28.404 -16.430   1.253  0.00  0.00     0.210 HD
ENDBRANCH  27  37
ENDBRANCH  26  27
ENDBRANCH  25  26
ENDBRANCH  22  25
ENDBRANCH   2  21
TORSDOF 13
ENDMDL
MODEL 4
REMARK VINA RESULT:    -8.074      6.307     10.433
REMARK INTER + INTRA:         -15.071
REMARK INTER:                 -11.952
REMARK INTRA:                  -3.119
REMARK CONF_INDEPENDENT:        3.878
REMARK UNBOUND:                -3.119
REMARK  13 active torsions:
REMARK  status: ('A' for Active; 'I' for Inactive)
REMARK    1  A    between atoms: C_2  and  O_3 
REMARK    2  A    between atoms: O_3  and  C_4 
REMARK    3  A    between atoms: C_4  and  C_6 
REMARK    4  A    between atoms: C_10  and  N_11 
REMARK    5  A    between atoms: C_15  and  C_16 
REMARK    6  A    between atoms: N_17  and  N_18 
REMARK       I    between atoms: N_18  and  C_19 
REMARK    7  A    between atoms: C_19  and  C_21 
REMARK    8  A    between atoms: C_21  and  C_22 
REMARK    9  A    between atoms: C_23  and  C_22 
REMARK   10  A    between atoms: C_23  and  C_25 
REMARK   11  A    between atoms: C_23  and  O_24 
REMARK   12  A    between atoms: C_28  and  O_29 
REMARK   13  A    between atoms: O_29  and  C_30 
ROOT
ATOM      1  C   UNL d   1      29.108 -16.195  -3.838  0.00  0.00     0.152 C 
ATOM      2  N   UNL d   1      29.507 -16.880  -2.803  0.00  0.00    -0.184 NA
ENDROOT
BRANCH   1   3
ATOM      3  C   UNL d   1      27.982 -15.262  -3.935  0.00  0.00     0.008 A 
ATOM      4  C   UNL d   1      26.649 -15.385  -3.471  0.00  0.00     0.040 A 
ATOM      5  C   UNL d   1      25.942 -14.251  -3.749  0.00  0.00     0.014 A 
ATOM      6  N   UNL d   1      26.796 -13.386  -4.382  0.00  0.00    -0.319 N 
ATOM      7  C   UNL d   1      24.494 -14.075  -3.466  0.00  0.00     0.068 C 
ATOM      8  C   UNL d   1      28.039 -13.997  -4.534  0.00  0.00     0.025 A 
ATOM      9  C   UNL d   1      29.192 -13.271  -5.160  0.00  0.00     0.070 C 
BRANCH   6  10
ATOM     10  C   UNL d   1      26.437 -12.095  -4.798  0.00  0.00     0.040 A 
ATOM     11  C   UNL d   1      26.205 -11.114  -3.833  0.00  0.00     0.030 A 
ATOM     12  C   UNL d   1      26.000  -9.806  -4.252  0.00  0.00     0.003 A 
ATOM     13  C   UNL d   1      26.009  -9.498  -5.619  0.00  0.00     0.018 A 
ATOM     14  C   UNL d   1      26.293 -10.485  -6.579  0.00  0.00     0.041 A 
ATOM     15  C   UNL d   1      26.486 -11.799  -6.166  0.00  0.00     0.047 A 
BRANCH  14  16
ATOM     16  C   UNL d   1      26.599 -10.088  -7.975  0.00  0.00     0.293 C 
ATOM     17  O   UNL d   1      27.136  -9.016  -8.235  0.00  0.00    -0.259 OA
BRANCH  16  18
ATOM     18  O   UNL d   1      26.259 -11.047  -8.876  0.00  0.00    -0.318 OA
BRANCH  18  19
ATOM     19  C   UNL d   1      27.344 -11.442  -9.739  0.00  0.00     0.174 C 
ATOM     20  C   UNL d   1      28.397 -12.195  -8.940  0.00  0.00     0.034 C 
ENDBRANCH  18  19
ENDBRANCH  16  18
ENDBRANCH  14  16
ENDBRANCH   6  10
ENDBRANCH   1   3
BRANCH   2  21
ATOM     21  N   UNL d   1      28.856 -16.782  -1.619  0.00  0.00    -0.247 N 
ATOM     22  C   UNL d   1      28.924 -15.684  -0.804  0.00  0.00     0.237 C 
ATOM     23  O   UNL d   1      29.576 -14.673  -1.043  0.00  0.00    -0.272 OA
ATOM     24  H   UNL d   1      28.292 -17.531  -1.298  0.00  0.00     0.192 HD
BRANCH  22  25
ATOM     25  C   UNL d   1      28.086 -15.861   0.464  0.00  0.00     0.107 C 
BRANCH  25  26
ATOM     26  C   UNL d   1      26.630 -16.047   0.051  0.00  0.00     0.046 C 
BRANCH  26  27
ATOM     27  C   UNL d   1      26.119 -17.456   0.321  0.00  0.00     0.151 C 
BRANCH  27  28
ATOM     28  C   UNL d   1      24.700 -17.662  -0.169  0.00  0.00    -0.029 A 
ATOM     29  C   UNL d   1      23.924 -16.561  -0.570  0.00  0.00     0.012 A 
ATOM     30  C   UNL d   1      22.554 -16.711  -0.821  0.00  0.00     0.037 A 
ATOM     31  C   UNL d   1      21.964 -17.975  -0.776  0.00  0.00     0.068 A 
ATOM     32  C   UNL d   1      22.747 -19.077  -0.444  0.00  0.00     0.037 A 
ATOM     33  C   UNL d   1      24.099 -18.924  -0.152  0.00  0.00     0.012 A 
BRANCH  31  34
ATOM     34  O   UNL d   1      20.628 -18.033  -1.079  0.00  0.00    -0.352 OA
BRANCH  34  35
ATOM     35  C   UNL d   1      20.014 -19.312  -0.893  0.00  0.00     0.171 C 
ATOM     36  C   UNL d   1      19.536 -19.431   0.540  0.00  0.00     0.034 C 
ENDBRANCH  34  35
ENDBRANCH  31  34
ENDBRANCH  27  28
BRANCH  27  37
ATOM     37  O   UNL d   1      27.025 -18.383  -0.285  0.00  0.00    -0.391 OA
ATOM     38  H   UNL d   1      27.744 -18.533   0.354  0.00  0.00     0.210 HD
ENDBRANCH  27  37
ENDBRANCH  26  27
ENDBRANCH  25  26
ENDBRANCH  22  25
ENDBRANCH   2  21
TORSDOF 13
ENDMDL
MODEL 5
REMARK VINA RESULT:    -7.966      5.877      9.291
REMARK INTER + INTRA:         -15.046
REMARK INTER:                 -11.844
REMARK INTRA:                  -3.202
REMARK CONF_INDEPENDENT:        3.878
REMARK UNBOUND:                -3.202
REMARK  13 active torsions:
REMARK  status: ('A' for Active; 'I' for Inactive)
REMARK    1  A    between atoms: C_2  and  O_3 
REMARK    2  A    between atoms: O_3  and  C_4 
REMARK    3  A    between atoms: C_4  and  C_6 
REMARK    4  A    between atoms: C_10  and  N_11 
REMARK    5  A    between atoms: C_15  and  C_16 
REMARK    6  A    between atoms: N_17  and  N_18 
REMARK       I    between atoms: N_18  and  C_19 
REMARK    7  A    between atoms: C_19  and  C_21 
REMARK    8  A    between atoms: C_21  and  C_22 
REMARK    9  A    between atoms: C_23  and  C_22 
REMARK   10  A    between atoms: C_23  and  C_25 
REMARK   11  A    between atoms: C_23  and  O_24 
REMARK   12  A    between atoms: C_28  and  O_29 
REMARK   13  A    between atoms: O_29  and  C_30 
ROOT
ATOM      1  C   UNL d   1      27.841 -11.835  -0.324  0.00  0.00     0.152 C 
ATOM      2  N   UNL d   1      29.046 -11.947   0.161  0.00  0.00    -0.184 NA
ENDROOT
BRANCH   1   3
ATOM      3  C   UNL d   1      26.998 -12.874  -0.921  0.00  0.00     0.008 A 
ATOM      4  C   UNL d   1      26.364 -12.924  -2.187  0.00  0.00     0.040 A 
ATOM      5  C   UNL d   1      25.701 -14.106  -2.341  0.00  0.00     0.014 A 
ATOM      6  N   UNL d   1      25.899 -14.835  -1.197  0.00  0.00    -0.319 N 
ATOM      7  C   UNL d   1      24.869 -14.454  -3.523  0.00  0.00     0.068 C 
ATOM      8  C   UNL d   1      26.662 -14.086  -0.303  0.00  0.00     0.025 A 
ATOM      9  C   UNL d   1      27.072 -14.644   1.027  0.00  0.00     0.070 C 
BRANCH   6  10
ATOM     10  C   UNL d   1      25.393 -16.128  -0.994  0.00  0.00     0.040 A 
ATOM     11  C   UNL d   1      26.213 -17.089  -0.402  0.00  0.00     0.030 A 
ATOM     12  C   UNL d   1      25.660 -18.317  -0.066  0.00  0.00     0.003 A 
ATOM     13  C   UNL d   1      24.310 -18.578  -0.341  0.00  0.00     0.018 A 
ATOM     14  C   UNL d   1      23.482 -17.584  -0.892  0.00  0.00     0.041 A 
ATOM     15  C   UNL d   1      24.033 -16.357  -1.243  0.00  0.00     0.047 A 
BRANCH  14  16
ATOM     16  C   UNL d   1      22.010 -17.769  -0.890  0.00  0.00     0.293 C 
ATOM     17  O   UNL d   1      21.242 -16.812  -0.899  0.00  0.00    -0.259 OA
BRANCH  16  18
ATOM     18  O   UNL d   1      21.649 -19.079  -0.922  0.00  0.00    -0.318 OA
BRANCH  18  19
ATOM     19  C   UNL d   1      20.919 -19.508   0.244  0.00  0.00     0.174 C 
ATOM     20  C   UNL d   1      19.576 -20.090  -0.167  0.00  0.00     0.034 C 
ENDBRANCH  18  19
ENDBRANCH  16  18
ENDBRANCH  14  16
ENDBRANCH   6  10
ENDBRANCH   1   3
BRANCH   2  21
ATOM     21  N   UNL d   1      29.682 -13.143   0.155  0.00  0.00    -0.247 N 
ATOM     22  C   UNL d   1      30.176 -13.735  -0.976  0.00  0.00     0.237 C 
ATOM     23  O   UNL d   1      30.101 -13.261  -2.106  0.00  0.00    -0.272 OA
ATOM     24  H   UNL d   1      29.810 -13.642   1.002  0.00  0.00     0.192 HD
BRANCH  22  25
ATOM     25  C   UNL d   1      30.842 -15.079  -0.674  0.00  0.00     0.107 C 
BRANCH  25  26
ATOM     26  C   UNL d   1      29.796 -16.000  -0.056  0.00  0.00     0.046 C 
BRANCH  26  27
ATOM     27  C   UNL d   1      29.303 -17.064  -1.027  0.00  0.00     0.151 C 
BRANCH  27  28
ATOM     28  C   UNL d   1      29.282 -16.576  -2.461  0.00  0.00    -0.029 A 
ATOM     29  C   UNL d   1      28.198 -15.817  -2.934  0.00  0.00     0.012 A 
ATOM     30  C   UNL d   1      28.065 -15.542  -4.301  0.00  0.00     0.037 A 
ATOM     31  C   UNL d   1      29.062 -15.930  -5.198  0.00  0.00     0.068 A 
ATOM     32  C   UNL d   1      30.170 -16.624  -4.719  0.00  0.00     0.037 A 
ATOM     33  C   UNL d   1      30.283 -16.936  -3.369  0.00  0.00     0.012 A 
BRANCH  31  34
ATOM     34  O   UNL d   1      28.869 -15.581  -6.509  0.00  0.00    -0.352 OA
BRANCH  34  35
ATOM     35  C   UNL d   1      29.728 -14.547  -7.000  0.00  0.00     0.171 C 
ATOM     36  C   UNL d   1      28.886 -13.359  -7.418  0.00  0.00     0.034 C 
ENDBRANCH  34  35
ENDBRANCH  31  34
ENDBRANCH  27  28
BRANCH  27  37
ATOM     37  O   UNL d   1      30.129 -18.222  -0.877  0.00  0.00    -0.391 OA
ATOM     38  H   UNL d   1      29.887 -18.633  -0.027  0.00  0.00     0.210 HD
ENDBRANCH  27  37
ENDBRANCH  26  27
ENDBRANCH  25  26
ENDBRANCH  22  25
ENDBRANCH   2  21
TORSDOF 13
ENDMDL
MODEL 6
REMARK VINA RESULT:    -7.965      6.654     10.086
REMARK INTER + INTRA:         -14.897
REMARK INTER:                 -11.843
REMARK INTRA:                  -3.054
REMARK CONF_INDEPENDENT:        3.878
REMARK UNBOUND:                -3.054
REMARK  13 active torsions:
REMARK  status: ('A' for Active; 'I' for Inactive)
REMARK    1  A    between atoms: C_2  and  O_3 
REMARK    2  A    between atoms: O_3  and  C_4 
REMARK    3  A    between atoms: C_4  and  C_6 
REMARK    4  A    between atoms: C_10  and  N_11 
REMARK    5  A    between atoms: C_15  and  C_16 
REMARK    6  A    between atoms: N_17  and  N_18 
REMARK       I    between atoms: N_18  and  C_19 
REMARK    7  A    between atoms: C_19  and  C_21 
REMARK    8  A    between atoms: C_21  and  C_22 
REMARK    9  A    between atoms: C_23  and  C_22 
REMARK   10  A    between atoms: C_23  and  C_25 
REMARK   11  A    between atoms: C_23  and  O_24 
REMARK   12  A    between atoms: C_28  and  O_29 
REMARK   13  A    between atoms: O_29  and  C_30 
ROOT
ATOM      1  C   UNL d   1      29.198 -16.234  -4.685  0.00  0.00     0.152 C 
ATOM      2  N   UNL d   1      29.748 -16.814  -3.654  0.00  0.00    -0.184 NA
ENDROOT
BRANCH   1   3
ATOM      3  C   UNL d   1      28.155 -15.204  -4.702  0.00  0.00     0.008 A 
ATOM      4  C   UNL d   1      26.851 -15.212  -4.148  0.00  0.00     0.040 A 
ATOM      5  C   UNL d   1      26.231 -14.018  -4.375  0.00  0.00     0.014 A 
ATOM      6  N   UNL d   1      27.113 -13.227  -5.064  0.00  0.00    -0.319 N 
ATOM      7  C   UNL d   1      24.827 -13.716  -3.992  0.00  0.00     0.068 C 
ATOM      8  C   UNL d   1      28.284 -13.944  -5.302  0.00  0.00     0.025 A 
ATOM      9  C   UNL d   1      29.450 -13.319  -6.006  0.00  0.00     0.070 C 
BRANCH   6  10
ATOM     10  C   UNL d   1      26.842 -11.906  -5.452  0.00  0.00     0.040 A 
ATOM     11  C   UNL d   1      26.884 -11.578  -6.808  0.00  0.00     0.030 A 
ATOM     12  C   UNL d   1      26.467 -10.313  -7.198  0.00  0.00     0.003 A 
ATOM     13  C   UNL d   1      26.036  -9.388  -6.235  0.00  0.00     0.018 A 
ATOM     14  C   UNL d   1      25.951  -9.747  -4.878  0.00  0.00     0.041 A 
ATOM     15  C   UNL d   1      26.380 -11.009  -4.481  0.00  0.00     0.047 A 
BRANCH  14  16
ATOM     16  C   UNL d   1      25.214  -8.875  -3.932  0.00  0.00     0.293 C 
ATOM     17  O   UNL d   1      25.155  -9.132  -2.733  0.00  0.00    -0.259 OA
BRANCH  16  18
ATOM     18  O   UNL d   1      24.677  -7.784  -4.538  0.00  0.00    -0.318 OA
BRANCH  18  19
ATOM     19  C   UNL d   1      23.343  -7.997  -5.039  0.00  0.00     0.174 C 
ATOM     20  C   UNL d   1      23.084  -7.092  -6.233  0.00  0.00     0.034 C 
ENDBRANCH  18  19
ENDBRANCH  16  18
ENDBRANCH  14  16
ENDBRANCH   6  10
ENDBRANCH   1   3
BRANCH   2  21
ATOM     21  N   UNL d   1      29.369 -16.486  -2.397  0.00  0.00    -0.247 N 
ATOM     22  C   UNL d   1      29.531 -15.239  -1.854  0.00  0.00     0.237 C 
ATOM     23  O   UNL d   1      30.036 -14.283  -2.435  0.00  0.00    -0.272 OA
ATOM     24  H   UNL d   1      28.950 -17.166  -1.811  0.00  0.00     0.192 HD
BRANCH  22  25
ATOM     25  C   UNL d   1      29.010 -15.168  -0.418  0.00  0.00     0.107 C 
BRANCH  25  26
ATOM     26  C   UNL d   1      27.511 -15.444  -0.440  0.00  0.00     0.046 C 
BRANCH  26  27
ATOM     27  C   UNL d   1      27.162 -16.833   0.077  0.00  0.00     0.151 C 
BRANCH  27  28
ATOM     28  C   UNL d   1      25.774 -17.276  -0.341  0.00  0.00    -0.029 A 
ATOM     29  C   UNL d   1      25.037 -18.152   0.474  0.00  0.00     0.012 A 
ATOM     30  C   UNL d   1      23.852 -18.732   0.004  0.00  0.00     0.037 A 
ATOM     31  C   UNL d   1      23.334 -18.368  -1.240  0.00  0.00     0.068 A 
ATOM     32  C   UNL d   1      24.031 -17.449  -2.020  0.00  0.00     0.037 A 
ATOM     33  C   UNL d   1      25.230 -16.904  -1.573  0.00  0.00     0.012 A 
BRANCH  31  34
ATOM     34  O   UNL d   1      22.148 -18.954  -1.600  0.00  0.00    -0.352 OA
BRANCH  34  35
ATOM     35  C   UNL d   1      21.295 -19.325  -0.512  0.00  0.00     0.171 C 
ATOM     36  C   UNL d   1      19.855 -19.050  -0.895  0.00  0.00     0.034 C 
ENDBRANCH  34  35
ENDBRANCH  31  34
ENDBRANCH  27  28
BRANCH  27  37
ATOM     37  O   UNL d   1      28.165 -17.744  -0.381  0.00  0.00    -0.391 OA
ATOM     38  H   UNL d   1      28.810 -17.840   0.342  0.00  0.00     0.210 HD
ENDBRANCH  27  37
ENDBRANCH  26  27
ENDBRANCH  25  26
ENDBRANCH  22  25
ENDBRANCH   2  21
TORSDOF 13
ENDMDL
MODEL 7
REMARK VINA RESULT:    -7.392      5.928      9.915
REMARK INTER + INTRA:         -14.890
REMARK INTER:                 -11.270
REMARK INTRA:                  -3.620
REMARK CONF_INDEPENDENT:        3.878
REMARK UNBOUND:                -3.620
REMARK  13 active torsions:
REMARK  status: ('A' for Active; 'I' for Inactive)
REMARK    1  A    between atoms: C_2  and  O_3 
REMARK    2  A    between atoms: O_3  and  C_4 
REMARK    3  A    between atoms: C_4  and  C_6 
REMARK    4  A    between atoms: C_10  and  N_11 
REMARK    5  A    between atoms: C_15  and  C_16 
REMARK    6  A    between atoms: N_17  and  N_18 
REMARK       I    between atoms: N_18  and  C_19 
REMARK    7  A    between atoms: C_19  and  C_21 
REMARK    8  A    between atoms: C_21  and  C_22 
REMARK    9  A    between atoms: C_23  and  C_22 
REMARK   10  A    between atoms: C_23  and  C_25 
REMARK   11  A    between atoms: C_23  and  O_24 
REMARK   12  A    between atoms: C_28  and  O_29 
REMARK   13  A    between atoms: O_29  and  C_30 
ROOT
ATOM      1  C   UNL d   1      26.625 -12.468  -4.463  0.00  0.00     0.152 C 
ATOM      2  N   UNL d   1      27.556 -12.512  -5.375  0.00  0.00    -0.184 NA
ENDROOT
BRANCH   1   3
ATOM      3  C   UNL d   1      26.505 -13.270  -3.243  0.00  0.00     0.008 A 
ATOM      4  C   UNL d   1      26.792 -12.936  -1.896  0.00  0.00     0.040 A 
ATOM      5  C   UNL d   1      26.498 -13.984  -1.073  0.00  0.00     0.014 A 
ATOM      6  N   UNL d   1      26.016 -14.996  -1.862  0.00  0.00    -0.319 N 
ATOM      7  C   UNL d   1      26.750 -13.997   0.392  0.00  0.00     0.068 C 
ATOM      8  C   UNL d   1      26.042 -14.591  -3.195  0.00  0.00     0.025 A 
ATOM      9  C   UNL d   1      25.534 -15.482  -4.288  0.00  0.00     0.070 C 
BRANCH   6  10
ATOM     10  C   UNL d   1      25.576 -16.233  -1.367  0.00  0.00     0.040 A 
ATOM     11  C   UNL d   1      26.436 -16.987  -0.568  0.00  0.00     0.030 A 
ATOM     12  C   UNL d   1      25.944 -18.132   0.042  0.00  0.00     0.003 A 
ATOM     13  C   UNL d   1      24.614 -18.522  -0.167  0.00  0.00     0.018 A 
ATOM     14  C   UNL d   1      23.742 -17.728  -0.934  0.00  0.00     0.041 A 
ATOM     15  C   UNL d   1      24.233 -16.587  -1.558  0.00  0.00     0.047 A 
BRANCH  14  16
ATOM     16  C   UNL d   1      22.282 -17.987  -0.892  0.00  0.00     0.293 C 
ATOM     17  O   UNL d   1      21.466 -17.071  -0.904  0.00  0.00    -0.259 OA
BRANCH  16  18
ATOM     18  O   UNL d   1      21.988 -19.314  -0.883  0.00  0.00    -0.318 OA
BRANCH  18  19
ATOM     19  C   UNL d   1      20.575 -19.594  -0.861  0.00  0.00     0.174 C 
ATOM     20  C   UNL d   1      20.093 -19.726   0.576  0.00  0.00     0.034 C 
ENDBRANCH  18  19
ENDBRANCH  16  18
ENDBRANCH  14  16
ENDBRANCH   6  10
ENDBRANCH   1   3
BRANCH   2  21
ATOM     21  N   UNL d   1      28.588 -13.382  -5.263  0.00  0.00    -0.247 N 
ATOM     22  C   UNL d   1      28.542 -14.676  -5.708  0.00  0.00     0.237 C 
ATOM     23  O   UNL d   1      27.573 -15.197  -6.252  0.00  0.00    -0.272 OA
ATOM     24  H   UNL d   1      29.436 -13.095  -4.838  0.00  0.00     0.192 HD
BRANCH  22  25
ATOM     25  C   UNL d   1      29.854 -15.418  -5.445  0.00  0.00     0.107 C 
BRANCH  25  26
ATOM     26  C   UNL d   1      29.639 -16.367  -4.272  0.00  0.00     0.046 C 
BRANCH  26  27
ATOM     27  C   UNL d   1      29.405 -15.635  -2.958  0.00  0.00     0.151 C 
BRANCH  27  28
ATOM     28  C   UNL d   1      30.079 -16.317  -1.785  0.00  0.00    -0.029 A 
ATOM     29  C   UNL d   1      30.027 -15.737  -0.506  0.00  0.00     0.012 A 
ATOM     30  C   UNL d   1      30.817 -16.242   0.535  0.00  0.00     0.037 A 
ATOM     31  C   UNL d   1      31.587 -17.390   0.343  0.00  0.00     0.068 A 
ATOM     32  C   UNL d   1      31.587 -18.003  -0.907  0.00  0.00     0.037 A 
ATOM     33  C   UNL d   1      30.837 -17.479  -1.954  0.00  0.00     0.012 A 
BRANCH  31  34
ATOM     34  O   UNL d   1      32.294 -17.837   1.429  0.00  0.00    -0.352 OA
BRANCH  34  35
ATOM     35  C   UNL d   1      33.115 -16.856   2.070  0.00  0.00     0.171 C 
ATOM     36  C   UNL d   1      34.084 -16.280   1.058  0.00  0.00     0.034 C 
ENDBRANCH  34  35
ENDBRANCH  31  34
ENDBRANCH  27  28
BRANCH  27  37
ATOM     37  O   UNL d   1      29.858 -14.286  -3.114  0.00  0.00    -0.391 OA
ATOM     38  H   UNL d   1      30.614 -14.171  -2.511  0.00  0.00     0.210 HD
ENDBRANCH  27  37
ENDBRANCH  26  27
ENDBRANCH  25  26
ENDBRANCH  22  25
ENDBRANCH   2  21
TORSDOF 13
ENDMDL
MODEL 8
REMARK VINA RESULT:    -7.309      6.238      9.674
REMARK INTER + INTRA:         -15.032
REMARK INTER:                 -11.187
REMARK INTRA:                  -3.845
REMARK CONF_INDEPENDENT:        3.878
REMARK UNBOUND:                -3.845
REMARK  13 active torsions:
REMARK  status: ('A' for Active; 'I' for Inactive)
REMARK    1  A    between atoms: C_2  and  O_3 
REMARK    2  A    between atoms: O_3  and  C_4 
REMARK    3  A    between atoms: C_4  and  C_6 
REMARK    4  A    between atoms: C_10  and  N_11 
REMARK    5  A    between atoms: C_15  and  C_16 
REMARK    6  A    between atoms: N_17  and  N_18 
REMARK       I    between atoms: N_18  and  C_19 
REMARK    7  A    between atoms: C_19  and  C_21 
REMARK    8  A    between atoms: C_21  and  C_22 
REMARK    9  A    between atoms: C_23  and  C_22 
REMARK   10  A    between atoms: C_23  and  C_25 
REMARK   11  A    between atoms: C_23  and  O_24 
REMARK   12  A    between atoms: C_28  and  O_29 
REMARK   13  A    between atoms: O_29  and  C_30 
ROOT
ATOM      1  C   UNL d   1      26.500 -12.123  -4.436  0.00  0.00     0.152 C 
ATOM      2  N   UNL d   1      27.419 -12.107  -5.361  0.00  0.00    -0.184 NA
ENDROOT
BRANCH   1   3
ATOM      3  C   UNL d   1      26.426 -12.964  -3.239  0.00  0.00     0.008 A 
ATOM      4  C   UNL d   1      26.716 -12.659  -1.886  0.00  0.00     0.040 A 
ATOM      5  C   UNL d   1      26.474 -13.740  -1.091  0.00  0.00     0.014 A 
ATOM      6  N   UNL d   1      26.022 -14.748  -1.904  0.00  0.00    -0.319 N 
ATOM      7  C   UNL d   1      26.744 -13.786   0.370  0.00  0.00     0.068 C 
ATOM      8  C   UNL d   1      26.016 -14.304  -3.225  0.00  0.00     0.025 A 
ATOM      9  C   UNL d   1      25.530 -15.182  -4.338  0.00  0.00     0.070 C 
BRANCH   6  10
ATOM     10  C   UNL d   1      25.637 -16.015  -1.440  0.00  0.00     0.040 A 
ATOM     11  C   UNL d   1      26.559 -16.784  -0.729  0.00  0.00     0.030 A 
ATOM     12  C   UNL d   1      26.127 -17.966  -0.144  0.00  0.00     0.003 A 
ATOM     13  C   UNL d   1      24.795 -18.375  -0.291  0.00  0.00     0.018 A 
ATOM     14  C   UNL d   1      23.863 -17.569  -0.968  0.00  0.00     0.041 A 
ATOM     15  C   UNL d   1      24.293 -16.390  -1.567  0.00  0.00     0.047 A 
BRANCH  14  16
ATOM     16  C   UNL d   1      22.413 -17.862  -0.851  0.00  0.00     0.293 C 
ATOM     17  O   UNL d   1      21.572 -16.970  -0.895  0.00  0.00    -0.259 OA
BRANCH  16  18
ATOM     18  O   UNL d   1      22.158 -19.192  -0.740  0.00  0.00    -0.318 OA
BRANCH  18  19
ATOM     19  C   UNL d   1      20.972 -19.493   0.021  0.00  0.00     0.174 C 
ATOM     20  C   UNL d   1      19.761 -19.535  -0.897  0.00  0.00     0.034 C 
ENDBRANCH  18  19
ENDBRANCH  16  18
ENDBRANCH  14  16
ENDBRANCH   6  10
ENDBRANCH   1   3
BRANCH   2  21
ATOM     21  N   UNL d   1      28.482 -12.942  -5.289  0.00  0.00    -0.247 N 
ATOM     22  C   UNL d   1      29.777 -12.543  -5.485  0.00  0.00     0.237 C 
ATOM     23  O   UNL d   1      30.124 -11.396  -5.749  0.00  0.00    -0.272 OA
ATOM     24  H   UNL d   1      28.346 -13.903  -5.087  0.00  0.00     0.192 HD
BRANCH  22  25
ATOM     25  C   UNL d   1      30.761 -13.704  -5.341  0.00  0.00     0.107 C 
BRANCH  25  26
ATOM     26  C   UNL d   1      30.652 -14.579  -6.585  0.00  0.00     0.046 C 
BRANCH  26  27
ATOM     27  C   UNL d   1      29.645 -15.709  -6.423  0.00  0.00     0.151 C 
BRANCH  27  28
ATOM     28  C   UNL d   1      29.670 -16.313  -5.034  0.00  0.00    -0.029 A 
ATOM     29  C   UNL d   1      28.705 -15.938  -4.083  0.00  0.00     0.012 A 
ATOM     30  C   UNL d   1      28.840 -16.324  -2.744  0.00  0.00     0.037 A 
ATOM     31  C   UNL d   1      29.879 -17.171  -2.356  0.00  0.00     0.068 A 
ATOM     32  C   UNL d   1      30.797 -17.597  -3.311  0.00  0.00     0.037 A 
ATOM     33  C   UNL d   1      30.690 -17.181  -4.634  0.00  0.00     0.012 A 
BRANCH  31  34
ATOM     34  O   UNL d   1      29.908 -17.532  -1.033  0.00  0.00    -0.352 OA
BRANCH  34  35
ATOM     35  C   UNL d   1      29.804 -16.450  -0.102  0.00  0.00     0.171 C 
ATOM     36  C   UNL d   1      30.869 -15.420  -0.417  0.00  0.00     0.034 C 
ENDBRANCH  34  35
ENDBRANCH  31  34
ENDBRANCH  27  28
BRANCH  27  37
ATOM     37  O   UNL d   1      28.349 -15.200  -6.753  0.00  0.00    -0.391 OA
ATOM     38  H   UNL d   1      28.456 -14.651  -7.550  0.00  0.00     0.210 HD
ENDBRANCH  27  37
ENDBRANCH  26  27
ENDBRANCH  25  26
ENDBRANCH  22  25
ENDBRANCH   2  21
TORSDOF 13
ENDMDL
MODEL 9
REMARK VINA RESULT:    -7.277      5.091      9.181
REMARK INTER + INTRA:         -15.067
REMARK INTER:                 -11.155
REMARK INTRA:                  -3.912
REMARK CONF_INDEPENDENT:        3.878
REMARK UNBOUND:                -3.912
REMARK  13 active torsions:
REMARK  status: ('A' for Active; 'I' for Inactive)
REMARK    1  A    between atoms: C_2  and  O_3 
REMARK    2  A    between atoms: O_3  and  C_4 
REMARK    3  A    between atoms: C_4  and  C_6 
REMARK    4  A    between atoms: C_10  and  N_11 
REMARK    5  A    between atoms: C_15  and  C_16 
REMARK    6  A    between atoms: N_17  and  N_18 
REMARK       I    between atoms: N_18  and  C_19 
REMARK    7  A    between atoms: C_19  and  C_21 
REMARK    8  A    between atoms: C_21  and  C_22 
REMARK    9  A    between atoms: C_23  and  C_22 
REMARK   10  A    between atoms: C_23  and  C_25 
REMARK   11  A    between atoms: C_23  and  O_24 
REMARK   12  A    between atoms: C_28  and  O_29 
REMARK   13  A    between atoms: O_29  and  C_30 
ROOT
ATOM      1  C   UNL d   1      32.214 -15.017   0.278  0.00  0.00     0.152 C 
ATOM      2  N   UNL d   1      31.701 -14.718   1.439  0.00  0.00    -0.184 NA
ENDROOT
BRANCH   1   3
ATOM      3  C   UNL d   1      31.526 -15.487  -0.928  0.00  0.00     0.008 A 
ATOM      4  C   UNL d   1      31.345 -16.801  -1.425  0.00  0.00     0.040 A 
ATOM      5  C   UNL d   1      30.606 -16.778  -2.572  0.00  0.00     0.014 A 
ATOM      6  N   UNL d   1      30.296 -15.467  -2.828  0.00  0.00    -0.319 N 
ATOM      7  C   UNL d   1      30.294 -17.977  -3.393  0.00  0.00     0.068 C 
ATOM      8  C   UNL d   1      30.876 -14.659  -1.853  0.00  0.00     0.025 A 
ATOM      9  C   UNL d   1      30.674 -13.174  -1.852  0.00  0.00     0.070 C 
BRANCH   6  10
ATOM     10  C   UNL d   1      29.515 -15.045  -3.915  0.00  0.00     0.040 A 
ATOM     11  C   UNL d   1      30.152 -14.649  -5.092  0.00  0.00     0.030 A 
ATOM     12  C   UNL d   1      29.374 -14.380  -6.209  0.00  0.00     0.003 A 
ATOM     13  C   UNL d   1      27.978 -14.488  -6.135  0.00  0.00     0.018 A 
ATOM     14  C   UNL d   1      27.351 -14.936  -4.959  0.00  0.00     0.041 A 
ATOM     15  C   UNL d   1      28.124 -15.195  -3.832  0.00  0.00     0.047 A 
BRANCH  14  16
ATOM     16  C   UNL d   1      25.922 -15.335  -4.992  0.00  0.00     0.293 C 
ATOM     17  O   UNL d   1      25.526 -16.245  -5.712  0.00  0.00    -0.259 OA
BRANCH  16  18
ATOM     18  O   UNL d   1      25.161 -14.617  -4.125  0.00  0.00    -0.318 OA
BRANCH  18  19
ATOM     19  C   UNL d   1      25.270 -13.190  -4.302  0.00  0.00     0.174 C 
ATOM     20  C   UNL d   1      25.798 -12.547  -3.029  0.00  0.00     0.034 C 
ENDBRANCH  18  19
ENDBRANCH  16  18
ENDBRANCH  14  16
ENDBRANCH   6  10
ENDBRANCH   1   3
BRANCH   2  21
ATOM     21  N   UNL d   1      30.368 -14.825   1.652  0.00  0.00    -0.247 N 
ATOM     22  C   UNL d   1      29.471 -13.830   1.367  0.00  0.00     0.237 C 
ATOM     23  O   UNL d   1      29.764 -12.737   0.895  0.00  0.00    -0.272 OA
ATOM     24  H   UNL d   1      29.991 -15.658   2.035  0.00  0.00     0.192 HD
BRANCH  22  25
ATOM     25  C   UNL d   1      28.038 -14.238   1.713  0.00  0.00     0.107 C 
BRANCH  25  26
ATOM     26  C   UNL d   1      27.819 -15.668   1.232  0.00  0.00     0.046 C 
BRANCH  26  27
ATOM     27  C   UNL d   1      27.577 -15.752  -0.269  0.00  0.00     0.151 C 
BRANCH  27  28
ATOM     28  C   UNL d   1      26.405 -16.647  -0.618  0.00  0.00    -0.029 A 
ATOM     29  C   UNL d   1      25.469 -16.238  -1.584  0.00  0.00     0.012 A 
ATOM     30  C   UNL d   1      24.276 -16.951  -1.762  0.00  0.00     0.037 A 
ATOM     31  C   UNL d   1      24.049 -18.134  -1.057  0.00  0.00     0.068 A 
ATOM     32  C   UNL d   1      25.007 -18.574  -0.148  0.00  0.00     0.037 A 
ATOM     33  C   UNL d   1      26.173 -17.845   0.062  0.00  0.00     0.012 A 
BRANCH  31  34
ATOM     34  O   UNL d   1      22.874 -18.787  -1.327  0.00  0.00    -0.352 OA
BRANCH  34  35
ATOM     35  C   UNL d   1      21.690 -18.134  -0.861  0.00  0.00     0.171 C 
ATOM     36  C   UNL d   1      20.537 -19.117  -0.888  0.00  0.00     0.034 C 
ENDBRANCH  34  35
ENDBRANCH  31  34
ENDBRANCH  27  28
BRANCH  27  37
ATOM     37  O   UNL d   1      27.392 -14.423  -0.766  0.00  0.00    -0.391 OA
ATOM     38  H   UNL d   1      28.208 -13.932  -0.566  0.00  0.00     0.210 HD
ENDBRANCH  27  37
ENDBRANCH  26  27
ENDBRANCH  25  26
ENDBRANCH  22  25
ENDBRANCH   2  21
TORSDOF 13
ENDMDL
