MODEL 1
REMARK VINA RESULT:    -8.888      0.000      0.000
REMARK INTER + INTRA:         -10.979
REMARK INTER:                 -10.380
REMARK INTRA:                  -0.599
REMARK CONF_INDEPENDENT:        1.492
REMARK UNBOUND:                -0.599
REMARK  5 active torsions:
REMARK  status: ('A' for Active; 'I' for Inactive)
REMARK    1  A    between atoms: C_2  and  C_3 
REMARK       I    between atoms: C_2  and  N_14 
REMARK    2  A    between atoms: C_3  and  C_4 
REMARK    3  A    between atoms: N_14  and  O_15 
REMARK    4  A    between atoms: O_15  and  C_16 
REMARK    5  A    between atoms: C_16  and  C_17 
ROOT
ATOM      1  O   UNL d   1      24.554 -18.256   1.068  0.00  0.00    -0.271 OA
ATOM      2  C   UNL d   1      23.870 -18.126   0.047  0.00  0.00     0.245 C 
ATOM      3  N   UNL d   1      23.130 -19.197  -0.343  0.00  0.00    -0.234 N 
ATOM      4  H   UNL d   1      23.164 -20.035   0.224  0.00  0.00     0.197 HD
ENDROOT
BRANCH   2   5
ATOM      5  C   UNL d   1      23.818 -16.854  -0.799  0.00  0.00     0.145 C 
BRANCH   5   6
ATOM      6  C   UNL d   1      25.136 -16.508  -1.451  0.00  0.00    -0.021 A 
ATOM      7  C   UNL d   1      26.361 -17.083  -1.165  0.00  0.00     0.097 A 
ATOM      8  N   UNL d   1      27.308 -16.531  -1.986  0.00  0.00    -0.365 N 
ATOM      9  C   UNL d   1      26.744 -15.556  -2.774  0.00  0.00     0.044 A 
ATOM     10  H   UNL d   1      28.285 -16.786  -2.003  0.00  0.00     0.165 HD
ATOM     11  C   UNL d   1      27.334 -14.718  -3.731  0.00  0.00     0.054 A 
ATOM     12  C   UNL d   1      25.384 -15.511  -2.459  0.00  0.00    -0.001 A 
ATOM     13  C   UNL d   1      26.506 -13.794  -4.375  0.00  0.00     0.036 A 
ATOM     14 CL   UNL d   1      27.189 -12.711  -5.530  0.00  0.00    -0.084 Cl
ATOM     15  C   UNL d   1      25.146 -13.722  -4.094  0.00  0.00     0.025 A 
ATOM     16  C   UNL d   1      24.575 -14.578  -3.144  0.00  0.00     0.016 A 
ENDBRANCH   5   6
ENDBRANCH   2   5
BRANCH   3  17
ATOM     17  O   UNL d   1      22.258 -19.130  -1.437  0.00  0.00    -0.273 OA
BRANCH  17  18
ATOM     18  C   UNL d   1      21.031 -18.481  -1.053  0.00  0.00     0.240 C 
BRANCH  18  19
ATOM     19  C   UNL d   1      20.260 -19.351  -0.088  0.00  0.00    -0.032 A 
ATOM     20  C   UNL d   1      19.138 -20.077  -0.520  0.00  0.00     0.009 A 
ATOM     21  C   UNL d   1      18.345 -20.764   0.405  0.00  0.00     0.001 A 
ATOM     22  C   UNL d   1      18.709 -20.798   1.751  0.00  0.00     0.000 A 
ATOM     23  C   UNL d   1      19.844 -20.121   2.181  0.00  0.00     0.001 A 
ATOM     24  C   UNL d   1      20.607 -19.398   1.269  0.00  0.00     0.009 A 
ENDBRANCH  18  19
ENDBRANCH  17  18
ENDBRANCH   3  17
TORSDOF 5
ENDMDL
MODEL 2
REMARK VINA RESULT:    -7.527      4.041      8.829
REMARK INTER + INTRA:          -9.678
REMARK INTER:                  -9.018
REMARK INTRA:                  -0.660
REMARK CONF_INDEPENDENT:        1.492
REMARK UNBOUND:                -0.660
REMARK  5 active torsions:
REMARK  status: ('A' for Active; 'I' for Inactive)
REMARK    1  A    between atoms: C_2  and  C_3 
REMARK       I    between atoms: C_2  and  N_14 
REMARK    2  A    between atoms: C_3  and  C_4 
REMARK    3  A    between atoms: N_14  and  O_15 
REMARK    4  A    between atoms: O_15  and  C_16 
REMARK    5  A    between atoms: C_16  and  C_17 
ROOT
ATOM      1  O   UNL d   1      24.401 -14.106  -3.662  0.00  0.00    -0.271 OA
ATOM      2  C   UNL d   1      25.527 -14.616  -3.678  0.00  0.00     0.245 C 
ATOM      3  N   UNL d   1      25.989 -15.057  -4.877  0.00  0.00    -0.234 N 
ATOM      4  H   UNL d   1      25.401 -14.936  -5.691  0.00  0.00     0.197 HD
ENDROOT
BRANCH   2   5
ATOM      5  C   UNL d   1      26.411 -14.788  -2.444  0.00  0.00     0.145 C 
BRANCH   5   6
ATOM      6  C   UNL d   1      26.125 -16.050  -1.666  0.00  0.00    -0.021 A 
ATOM      7  C   UNL d   1      27.063 -16.972  -1.238  0.00  0.00     0.097 A 
ATOM      8  N   UNL d   1      26.422 -17.959  -0.538  0.00  0.00    -0.365 N 
ATOM      9  C   UNL d   1      25.065 -17.740  -0.540  0.00  0.00     0.044 A 
ATOM     10  H   UNL d   1      26.872 -18.748  -0.095  0.00  0.00     0.165 HD
ATOM     11  C   UNL d   1      24.027 -18.498   0.021  0.00  0.00     0.054 A 
ATOM     12  C   UNL d   1      24.844 -16.554  -1.245  0.00  0.00    -0.001 A 
ATOM     13  C   UNL d   1      22.721 -18.033  -0.158  0.00  0.00     0.036 A 
ATOM     14 CL   UNL d   1      21.406 -18.951   0.478  0.00  0.00    -0.084 Cl
ATOM     15  C   UNL d   1      22.460 -16.855  -0.847  0.00  0.00     0.025 A 
ATOM     16  C   UNL d   1      23.512 -16.106  -1.389  0.00  0.00     0.016 A 
ENDBRANCH   5   6
ENDBRANCH   2   5
BRANCH   3  17
ATOM     17  O   UNL d   1      27.283 -15.575  -5.020  0.00  0.00    -0.273 OA
BRANCH  17  18
ATOM     18  C   UNL d   1      28.038 -14.772  -5.948  0.00  0.00     0.240 C 
BRANCH  18  19
ATOM     19  C   UNL d   1      29.396 -15.390  -6.188  0.00  0.00    -0.032 A 
ATOM     20  C   UNL d   1      30.371 -14.705  -6.932  0.00  0.00     0.009 A 
ATOM     21  C   UNL d   1      31.569 -15.339  -7.273  0.00  0.00     0.001 A 
ATOM     22  C   UNL d   1      31.838 -16.627  -6.809  0.00  0.00     0.000 A 
ATOM     23  C   UNL d   1      30.898 -17.296  -6.034  0.00  0.00     0.001 A 
ATOM     24  C   UNL d   1      29.686 -16.683  -5.733  0.00  0.00     0.009 A 
ENDBRANCH  18  19
ENDBRANCH  17  18
ENDBRANCH   3  17
TORSDOF 5
ENDMDL
MODEL 3
REMARK VINA RESULT:    -7.435      3.590      5.545
REMARK INTER + INTRA:          -9.627
REMARK INTER:                  -8.927
REMARK INTRA:                  -0.701
REMARK CONF_INDEPENDENT:        1.492
REMARK UNBOUND:                -0.701
REMARK  5 active torsions:
REMARK  status: ('A' for Active; 'I' for Inactive)
REMARK    1  A    between atoms: C_2  and  C_3 
REMARK       I    between atoms: C_2  and  N_14 
REMARK    2  A    between atoms: C_3  and  C_4 
REMARK    3  A    between atoms: N_14  and  O_15 
REMARK    4  A    between atoms: O_15  and  C_16 
REMARK    5  A    between atoms: C_16  and  C_17 
ROOT
ATOM      1  O   UNL d   1      25.155 -14.993  -4.732  0.00  0.00    -0.271 OA
ATOM      2  C   UNL d   1      25.984 -15.231  -3.845  0.00  0.00     0.245 C 
ATOM      3  N   UNL d   1      25.602 -16.077  -2.853  0.00  0.00    -0.234 N 
ATOM      4  H   UNL d   1      24.673 -16.477  -2.896  0.00  0.00     0.197 HD
ENDROOT
BRANCH   2   5
ATOM      5  C   UNL d   1      27.387 -14.629  -3.794  0.00  0.00     0.145 C 
BRANCH   5   6
ATOM      6  C   UNL d   1      28.209 -14.905  -5.030  0.00  0.00    -0.021 A 
ATOM      7  C   UNL d   1      28.154 -14.199  -6.218  0.00  0.00     0.097 A 
ATOM      8  N   UNL d   1      29.072 -14.727  -7.086  0.00  0.00    -0.365 N 
ATOM      9  C   UNL d   1      29.699 -15.809  -6.516  0.00  0.00     0.044 A 
ATOM     10  H   UNL d   1      29.257 -14.386  -8.020  0.00  0.00     0.165 HD
ATOM     11  C   UNL d   1      30.677 -16.666  -7.042  0.00  0.00     0.054 A 
ATOM     12  C   UNL d   1      29.176 -15.953  -5.229  0.00  0.00    -0.001 A 
ATOM     13  C   UNL d   1      31.123 -17.710  -6.227  0.00  0.00     0.036 A 
ATOM     14 CL   UNL d   1      32.296 -18.816  -6.842  0.00  0.00    -0.084 Cl
ATOM     15  C   UNL d   1      30.633 -17.882  -4.938  0.00  0.00     0.025 A 
ATOM     16  C   UNL d   1      29.665 -17.009  -4.428  0.00  0.00     0.016 A 
ENDBRANCH   5   6
ENDBRANCH   2   5
BRANCH   3  17
ATOM     17  O   UNL d   1      26.489 -16.478  -1.847  0.00  0.00    -0.273 OA
BRANCH  17  18
ATOM     18  C   UNL d   1      25.855 -16.376  -0.558  0.00  0.00     0.240 C 
BRANCH  18  19
ATOM     19  C   UNL d   1      24.550 -17.139  -0.556  0.00  0.00    -0.032 A 
ATOM     20  C   UNL d   1      24.536 -18.532  -0.377  0.00  0.00     0.009 A 
ATOM     21  C   UNL d   1      23.343 -19.248  -0.520  0.00  0.00     0.001 A 
ATOM     22  C   UNL d   1      22.146 -18.574  -0.762  0.00  0.00     0.000 A 
ATOM     23  C   UNL d   1      22.142 -17.191  -0.895  0.00  0.00     0.001 A 
ATOM     24  C   UNL d   1      23.336 -16.482  -0.799  0.00  0.00     0.009 A 
ENDBRANCH  18  19
ENDBRANCH  17  18
ENDBRANCH   3  17
TORSDOF 5
ENDMDL
MODEL 4
REMARK VINA RESULT:    -7.376      4.307      6.321
REMARK INTER + INTRA:          -9.814
REMARK INTER:                  -8.867
REMARK INTRA:                  -0.946
REMARK CONF_INDEPENDENT:        1.492
REMARK UNBOUND:                -0.946
REMARK  5 active torsions:
REMARK  status: ('A' for Active; 'I' for Inactive)
REMARK    1  A    between atoms: C_2  and  C_3 
REMARK       I    between atoms: C_2  and  N_14 
REMARK    2  A    between atoms: C_3  and  C_4 
REMARK    3  A    between atoms: N_14  and  O_15 
REMARK    4  A    between atoms: O_15  and  C_16 
REMARK    5  A    between atoms: C_16  and  C_17 
ROOT
ATOM      1  O   UNL d   1      25.574 -11.756  -5.571  0.00  0.00    -0.271 OA
ATOM      2  C   UNL d   1      25.828 -12.760  -4.896  0.00  0.00     0.245 C 
ATOM      3  N   UNL d   1      24.797 -13.607  -4.636  0.00  0.00    -0.234 N 
ATOM      4  H   UNL d   1      23.886 -13.384  -5.016  0.00  0.00     0.197 HD
ENDROOT
BRANCH   2   5
ATOM      5  C   UNL d   1      27.209 -13.093  -4.333  0.00  0.00     0.145 C 
BRANCH   5   6
ATOM      6  C   UNL d   1      28.050 -13.940  -5.258  0.00  0.00    -0.021 A 
ATOM      7  C   UNL d   1      28.275 -13.700  -6.601  0.00  0.00     0.097 A 
ATOM      8  N   UNL d   1      29.115 -14.667  -7.086  0.00  0.00    -0.365 N 
ATOM      9  C   UNL d   1      29.409 -15.580  -6.101  0.00  0.00     0.044 A 
ATOM     10  H   UNL d   1      29.460 -14.718  -8.034  0.00  0.00     0.165 HD
ATOM     11  C   UNL d   1      30.197 -16.738  -6.151  0.00  0.00     0.054 A 
ATOM     12  C   UNL d   1      28.751 -15.157  -4.943  0.00  0.00    -0.001 A 
ATOM     13  C   UNL d   1      30.304 -17.495  -4.981  0.00  0.00     0.036 A 
ATOM     14 CL   UNL d   1      31.228 -18.951  -5.000  0.00  0.00    -0.084 Cl
ATOM     15  C   UNL d   1      29.670 -17.105  -3.806  0.00  0.00     0.025 A 
ATOM     16  C   UNL d   1      28.898 -15.937  -3.775  0.00  0.00     0.016 A 
ENDBRANCH   5   6
ENDBRANCH   2   5
BRANCH   3  17
ATOM     17  O   UNL d   1      24.992 -14.813  -3.951  0.00  0.00    -0.273 OA
BRANCH  17  18
ATOM     18  C   UNL d   1      25.139 -14.563  -2.541  0.00  0.00     0.240 C 
BRANCH  18  19
ATOM     19  C   UNL d   1      25.196 -15.869  -1.782  0.00  0.00    -0.032 A 
ATOM     20  C   UNL d   1      24.038 -16.642  -1.602  0.00  0.00     0.009 A 
ATOM     21  C   UNL d   1      24.067 -17.773  -0.779  0.00  0.00     0.001 A 
ATOM     22  C   UNL d   1      25.266 -18.185  -0.196  0.00  0.00     0.000 A 
ATOM     23  C   UNL d   1      26.428 -17.452  -0.406  0.00  0.00     0.001 A 
ATOM     24  C   UNL d   1      26.390 -16.300  -1.186  0.00  0.00     0.009 A 
ENDBRANCH  18  19
ENDBRANCH  17  18
ENDBRANCH   3  17
TORSDOF 5
ENDMDL
MODEL 5
REMARK VINA RESULT:    -7.318      3.804      8.646
REMARK INTER + INTRA:          -9.524
REMARK INTER:                  -8.809
REMARK INTRA:                  -0.715
REMARK CONF_INDEPENDENT:        1.492
REMARK UNBOUND:                -0.715
REMARK  5 active torsions:
REMARK  status: ('A' for Active; 'I' for Inactive)
REMARK    1  A    between atoms: C_2  and  C_3 
REMARK       I    between atoms: C_2  and  N_14 
REMARK    2  A    between atoms: C_3  and  C_4 
REMARK    3  A    between atoms: N_14  and  O_15 
REMARK    4  A    between atoms: O_15  and  C_16 
REMARK    5  A    between atoms: C_16  and  C_17 
ROOT
ATOM      1  O   UNL d   1      24.404 -14.130  -3.560  0.00  0.00    -0.271 OA
ATOM      2  C   UNL d   1      25.527 -14.643  -3.626  0.00  0.00     0.245 C 
ATOM      3  N   UNL d   1      25.946 -15.056  -4.851  0.00  0.00    -0.234 N 
ATOM      4  H   UNL d   1      25.332 -14.913  -5.642  0.00  0.00     0.197 HD
ENDROOT
BRANCH   2   5
ATOM      5  C   UNL d   1      26.451 -14.849  -2.428  0.00  0.00     0.145 C 
BRANCH   5   6
ATOM      6  C   UNL d   1      26.150 -16.101  -1.640  0.00  0.00    -0.021 A 
ATOM      7  C   UNL d   1      27.080 -17.017  -1.182  0.00  0.00     0.097 A 
ATOM      8  N   UNL d   1      26.425 -17.995  -0.482  0.00  0.00    -0.365 N 
ATOM      9  C   UNL d   1      25.069 -17.777  -0.514  0.00  0.00     0.044 A 
ATOM     10  H   UNL d   1      26.867 -18.778  -0.020  0.00  0.00     0.165 HD
ATOM     11  C   UNL d   1      24.021 -18.528   0.037  0.00  0.00     0.054 A 
ATOM     12  C   UNL d   1      24.861 -16.601  -1.238  0.00  0.00    -0.001 A 
ATOM     13  C   UNL d   1      22.718 -18.067  -0.174  0.00  0.00     0.036 A 
ATOM     14 CL   UNL d   1      21.391 -18.977   0.447  0.00  0.00    -0.084 Cl
ATOM     15  C   UNL d   1      22.470 -16.897  -0.883  0.00  0.00     0.025 A 
ATOM     16  C   UNL d   1      23.532 -16.155  -1.414  0.00  0.00     0.016 A 
ENDBRANCH   5   6
ENDBRANCH   2   5
BRANCH   3  17
ATOM     17  O   UNL d   1      27.232 -15.575  -5.051  0.00  0.00    -0.273 OA
BRANCH  17  18
ATOM     18  C   UNL d   1      28.216 -14.535  -4.894  0.00  0.00     0.240 C 
BRANCH  18  19
ATOM     19  C   UNL d   1      27.889 -13.367  -5.796  0.00  0.00    -0.032 A 
ATOM     20  C   UNL d   1      28.364 -13.329  -7.117  0.00  0.00     0.009 A 
ATOM     21  C   UNL d   1      28.181 -12.184  -7.898  0.00  0.00     0.001 A 
ATOM     22  C   UNL d   1      27.456 -11.102  -7.398  0.00  0.00     0.000 A 
ATOM     23  C   UNL d   1      26.943 -11.148  -6.107  0.00  0.00     0.001 A 
ATOM     24  C   UNL d   1      27.164 -12.269  -5.312  0.00  0.00     0.009 A 
ENDBRANCH  18  19
ENDBRANCH  17  18
ENDBRANCH   3  17
TORSDOF 5
ENDMDL
MODEL 6
REMARK VINA RESULT:    -7.155      2.989      4.959
REMARK INTER + INTRA:          -9.266
REMARK INTER:                  -8.646
REMARK INTRA:                  -0.620
REMARK CONF_INDEPENDENT:        1.492
REMARK UNBOUND:                -0.620
REMARK  5 active torsions:
REMARK  status: ('A' for Active; 'I' for Inactive)
REMARK    1  A    between atoms: C_2  and  C_3 
REMARK       I    between atoms: C_2  and  N_14 
REMARK    2  A    between atoms: C_3  and  C_4 
REMARK    3  A    between atoms: N_14  and  O_15 
REMARK    4  A    between atoms: O_15  and  C_16 
REMARK    5  A    between atoms: C_16  and  C_17 
ROOT
ATOM      1  O   UNL d   1      25.199 -14.946  -4.764  0.00  0.00    -0.271 OA
ATOM      2  C   UNL d   1      25.996 -15.301  -3.888  0.00  0.00     0.245 C 
ATOM      3  N   UNL d   1      25.471 -15.818  -2.747  0.00  0.00    -0.234 N 
ATOM      4  H   UNL d   1      24.465 -15.900  -2.676  0.00  0.00     0.197 HD
ENDROOT
BRANCH   2   5
ATOM      5  C   UNL d   1      27.515 -15.181  -4.007  0.00  0.00     0.145 C 
BRANCH   5   6
ATOM      6  C   UNL d   1      27.973 -14.559  -5.305  0.00  0.00    -0.021 A 
ATOM      7  C   UNL d   1      28.877 -15.108  -6.195  0.00  0.00     0.097 A 
ATOM      8  N   UNL d   1      29.008 -14.265  -7.266  0.00  0.00    -0.365 N 
ATOM      9  C   UNL d   1      28.248 -13.135  -7.077  0.00  0.00     0.044 A 
ATOM     10  H   UNL d   1      29.591 -14.433  -8.074  0.00  0.00     0.165 HD
ATOM     11  C   UNL d   1      28.099 -12.002  -7.890  0.00  0.00     0.054 A 
ATOM     12  C   UNL d   1      27.591 -13.284  -5.853  0.00  0.00    -0.001 A 
ATOM     13  C   UNL d   1      27.260 -10.984  -7.427  0.00  0.00     0.036 A 
ATOM     14 CL   UNL d   1      27.074  -9.552  -8.370  0.00  0.00    -0.084 Cl
ATOM     15  C   UNL d   1      26.583 -11.098  -6.218  0.00  0.00     0.025 A 
ATOM     16  C   UNL d   1      26.737 -12.243  -5.427  0.00  0.00     0.016 A 
ENDBRANCH   5   6
ENDBRANCH   2   5
BRANCH   3  17
ATOM     17  O   UNL d   1      26.286 -16.325  -1.727  0.00  0.00    -0.273 OA
BRANCH  17  18
ATOM     18  C   UNL d   1      25.558 -16.364  -0.485  0.00  0.00     0.240 C 
BRANCH  18  19
ATOM     19  C   UNL d   1      24.298 -17.183  -0.642  0.00  0.00    -0.032 A 
ATOM     20  C   UNL d   1      23.066 -16.559  -0.894  0.00  0.00     0.009 A 
ATOM     21  C   UNL d   1      21.885 -17.308  -0.895  0.00  0.00     0.001 A 
ATOM     22  C   UNL d   1      21.932 -18.691  -0.725  0.00  0.00     0.000 A 
ATOM     23  C   UNL d   1      23.152 -19.325  -0.520  0.00  0.00     0.001 A 
ATOM     24  C   UNL d   1      24.323 -18.575  -0.473  0.00  0.00     0.009 A 
ENDBRANCH  18  19
ENDBRANCH  17  18
ENDBRANCH   3  17
TORSDOF 5
ENDMDL
MODEL 7
REMARK VINA RESULT:    -6.950      3.606      7.934
REMARK INTER + INTRA:          -9.483
REMARK INTER:                  -8.442
REMARK INTRA:                  -1.042
REMARK CONF_INDEPENDENT:        1.492
REMARK UNBOUND:                -1.042
REMARK  5 active torsions:
REMARK  status: ('A' for Active; 'I' for Inactive)
REMARK    1  A    between atoms: C_2  and  C_3 
REMARK       I    between atoms: C_2  and  N_14 
REMARK    2  A    between atoms: C_3  and  C_4 
REMARK    3  A    between atoms: N_14  and  O_15 
REMARK    4  A    between atoms: O_15  and  C_16 
REMARK    5  A    between atoms: C_16  and  C_17 
ROOT
ATOM      1  O   UNL d   1      28.463 -15.088  -2.517  0.00  0.00    -0.271 OA
ATOM      2  C   UNL d   1      27.228 -15.062  -2.451  0.00  0.00     0.245 C 
ATOM      3  N   UNL d   1      26.547 -15.004  -3.626  0.00  0.00    -0.234 N 
ATOM      4  H   UNL d   1      27.078 -15.000  -4.488  0.00  0.00     0.197 HD
ENDROOT
BRANCH   2   5
ATOM      5  C   UNL d   1      26.435 -15.077  -1.146  0.00  0.00     0.145 C 
BRANCH   5   6
ATOM      6  C   UNL d   1      25.933 -16.448  -0.759  0.00  0.00    -0.021 A 
ATOM      7  C   UNL d   1      26.716 -17.524  -0.383  0.00  0.00     0.097 A 
ATOM      8  N   UNL d   1      25.897 -18.577  -0.075  0.00  0.00    -0.365 N 
ATOM      9  C   UNL d   1      24.583 -18.238  -0.295  0.00  0.00     0.044 A 
ATOM     10  H   UNL d   1      26.207 -19.482   0.251  0.00  0.00     0.165 HD
ATOM     11  C   UNL d   1      23.417 -19.002  -0.144  0.00  0.00     0.054 A 
ATOM     12  C   UNL d   1      24.570 -16.911  -0.731  0.00  0.00    -0.001 A 
ATOM     13  C   UNL d   1      22.201 -18.391  -0.464  0.00  0.00     0.036 A 
ATOM     14 CL   UNL d   1      20.741 -19.300  -0.336  0.00  0.00    -0.084 Cl
ATOM     15  C   UNL d   1      22.146 -17.070  -0.895  0.00  0.00     0.025 A 
ATOM     16  C   UNL d   1      23.322 -16.321  -1.027  0.00  0.00     0.016 A 
ENDBRANCH   5   6
ENDBRANCH   2   5
BRANCH   3  17
ATOM     17  O   UNL d   1      25.148 -15.053  -3.668  0.00  0.00    -0.273 OA
BRANCH  17  18
ATOM     18  C   UNL d   1      24.628 -13.850  -4.265  0.00  0.00     0.240 C 
BRANCH  18  19
ATOM     19  C   UNL d   1      25.632 -12.727  -4.136  0.00  0.00    -0.032 A 
ATOM     20  C   UNL d   1      25.815 -12.069  -2.909  0.00  0.00     0.009 A 
ATOM     21  C   UNL d   1      26.637 -10.940  -2.833  0.00  0.00     0.001 A 
ATOM     22  C   UNL d   1      27.343 -10.509  -3.956  0.00  0.00     0.000 A 
ATOM     23  C   UNL d   1      27.204 -11.181  -5.164  0.00  0.00     0.001 A 
ATOM     24  C   UNL d   1      26.350 -12.277  -5.253  0.00  0.00     0.009 A 
ENDBRANCH  18  19
ENDBRANCH  17  18
ENDBRANCH   3  17
TORSDOF 5
ENDMDL
MODEL 8
REMARK VINA RESULT:    -6.693      4.620      7.893
REMARK INTER + INTRA:          -9.369
REMARK INTER:                  -8.185
REMARK INTRA:                  -1.184
REMARK CONF_INDEPENDENT:        1.492
REMARK UNBOUND:                -1.184
REMARK  5 active torsions:
REMARK  status: ('A' for Active; 'I' for Inactive)
REMARK    1  A    between atoms: C_2  and  C_3 
REMARK       I    between atoms: C_2  and  N_14 
REMARK    2  A    between atoms: C_3  and  C_4 
REMARK    3  A    between atoms: N_14  and  O_15 
REMARK    4  A    between atoms: O_15  and  C_16 
REMARK    5  A    between atoms: C_16  and  C_17 
ROOT
ATOM      1  O   UNL d   1      30.627 -16.424  -3.829  0.00  0.00    -0.271 OA
ATOM      2  C   UNL d   1      29.511 -15.940  -4.055  0.00  0.00     0.245 C 
ATOM      3  N   UNL d   1      29.052 -16.017  -5.332  0.00  0.00    -0.234 N 
ATOM      4  H   UNL d   1      29.632 -16.473  -6.024  0.00  0.00     0.197 HD
ENDROOT
BRANCH   2   5
ATOM      5  C   UNL d   1      28.638 -15.260  -3.002  0.00  0.00     0.145 C 
BRANCH   5   6
ATOM      6  C   UNL d   1      28.159 -16.196  -1.918  0.00  0.00    -0.021 A 
ATOM      7  C   UNL d   1      28.960 -16.877  -1.019  0.00  0.00     0.097 A 
ATOM      8  N   UNL d   1      28.158 -17.595  -0.173  0.00  0.00    -0.365 N 
ATOM      9  C   UNL d   1      26.839 -17.449  -0.528  0.00  0.00     0.044 A 
ATOM     10  H   UNL d   1      28.484 -18.167   0.595  0.00  0.00     0.165 HD
ATOM     11  C   UNL d   1      25.685 -18.016   0.032  0.00  0.00     0.054 A 
ATOM     12  C   UNL d   1      26.804 -16.583  -1.623  0.00  0.00    -0.001 A 
ATOM     13  C   UNL d   1      24.459 -17.697  -0.558  0.00  0.00     0.036 A 
ATOM     14 CL   UNL d   1      23.014 -18.401   0.067  0.00  0.00    -0.084 Cl
ATOM     15  C   UNL d   1      24.382 -16.834  -1.645  0.00  0.00     0.025 A 
ATOM     16  C   UNL d   1      25.545 -16.268  -2.182  0.00  0.00     0.016 A 
ENDBRANCH   5   6
ENDBRANCH   2   5
BRANCH   3  17
ATOM     17  O   UNL d   1      27.769 -15.575  -5.679  0.00  0.00    -0.273 OA
BRANCH  17  18
ATOM     18  C   UNL d   1      27.824 -14.213  -6.145  0.00  0.00     0.240 C 
BRANCH  18  19
ATOM     19  C   UNL d   1      26.978 -13.325  -5.262  0.00  0.00    -0.032 A 
ATOM     20  C   UNL d   1      27.306 -11.970  -5.089  0.00  0.00     0.009 A 
ATOM     21  C   UNL d   1      26.608 -11.191  -4.161  0.00  0.00     0.001 A 
ATOM     22  C   UNL d   1      25.530 -11.732  -3.460  0.00  0.00     0.000 A 
ATOM     23  C   UNL d   1      25.169 -13.059  -3.659  0.00  0.00     0.001 A 
ATOM     24  C   UNL d   1      25.892 -13.848  -4.547  0.00  0.00     0.009 A 
ENDBRANCH  18  19
ENDBRANCH  17  18
ENDBRANCH   3  17
TORSDOF 5
ENDMDL
MODEL 9
REMARK VINA RESULT:    -6.543      3.758      7.290
REMARK INTER + INTRA:          -9.305
REMARK INTER:                  -8.034
REMARK INTRA:                  -1.270
REMARK CONF_INDEPENDENT:        1.492
REMARK UNBOUND:                -1.270
REMARK  5 active torsions:
REMARK  status: ('A' for Active; 'I' for Inactive)
REMARK    1  A    between atoms: C_2  and  C_3 
REMARK       I    between atoms: C_2  and  N_14 
REMARK    2  A    between atoms: C_3  and  C_4 
REMARK    3  A    between atoms: N_14  and  O_15 
REMARK    4  A    between atoms: O_15  and  C_16 
REMARK    5  A    between atoms: C_16  and  C_17 
ROOT
ATOM      1  O   UNL d   1      29.635 -14.830   0.306  0.00  0.00    -0.271 OA
ATOM      2  C   UNL d   1      28.815 -15.312  -0.484  0.00  0.00     0.245 C 
ATOM      3  N   UNL d   1      29.309 -15.938  -1.584  0.00  0.00    -0.234 N 
ATOM      4  H   UNL d   1      30.314 -15.990  -1.695  0.00  0.00     0.197 HD
ENDROOT
BRANCH   2   5
ATOM      5  C   UNL d   1      27.299 -15.236  -0.304  0.00  0.00     0.145 C 
BRANCH   5   6
ATOM      6  C   UNL d   1      26.638 -16.586  -0.166  0.00  0.00    -0.021 A 
ATOM      7  C   UNL d   1      27.268 -17.770   0.174  0.00  0.00     0.097 A 
ATOM      8  N   UNL d   1      26.331 -18.766   0.231  0.00  0.00    -0.365 N 
ATOM      9  C   UNL d   1      25.095 -18.278  -0.121  0.00  0.00     0.044 A 
ATOM     10  H   UNL d   1      26.516 -19.728   0.479  0.00  0.00     0.165 HD
ATOM     11  C   UNL d   1      23.862 -18.938  -0.229  0.00  0.00     0.054 A 
ATOM     12  C   UNL d   1      25.253 -16.916  -0.383  0.00  0.00    -0.001 A 
ATOM     13  C   UNL d   1      22.760 -18.179  -0.632  0.00  0.00     0.036 A 
ATOM     14 CL   UNL d   1      21.229 -18.951  -0.820  0.00  0.00    -0.084 Cl
ATOM     15  C   UNL d   1      22.875 -16.819  -0.895  0.00  0.00     0.025 A 
ATOM     16  C   UNL d   1      24.113 -16.177  -0.769  0.00  0.00     0.016 A 
ENDBRANCH   5   6
ENDBRANCH   2   5
BRANCH   3  17
ATOM     17  O   UNL d   1      28.471 -16.589  -2.498  0.00  0.00    -0.273 OA
BRANCH  17  18
ATOM     18  C   UNL d   1      28.510 -15.916  -3.771  0.00  0.00     0.240 C 
BRANCH  18  19
ATOM     19  C   UNL d   1      27.354 -14.950  -3.885  0.00  0.00    -0.032 A 
ATOM     20  C   UNL d   1      26.109 -15.252  -3.310  0.00  0.00     0.009 A 
ATOM     21  C   UNL d   1      25.006 -14.424  -3.542  0.00  0.00     0.001 A 
ATOM     22  C   UNL d   1      25.155 -13.249  -4.280  0.00  0.00     0.000 A 
ATOM     23  C   UNL d   1      26.394 -12.918  -4.815  0.00  0.00     0.001 A 
ATOM     24  C   UNL d   1      27.480 -13.765  -4.624  0.00  0.00     0.009 A 
ENDBRANCH  18  19
ENDBRANCH  17  18
ENDBRANCH   3  17
TORSDOF 5
ENDMDL
