MODEL 1
REMARK VINA RESULT:    -7.392      0.000      0.000
REMARK INTER + INTRA:         -10.322
REMARK INTER:                  -8.585
REMARK INTRA:                  -1.737
REMARK CONF_INDEPENDENT:        1.193
REMARK UNBOUND:                -1.737
REMARK  4 active torsions:
REMARK  status: ('A' for Active; 'I' for Inactive)
REMARK    1  A    between atoms: C_5  and  C_6 
REMARK       I    between atoms: C_6  and  N_8 
REMARK    2  A    between atoms: N_8  and  N_9 
REMARK       I    between atoms: N_9  and  C_10 
REMARK    3  A    between atoms: C_12  and  C_10 
REMARK    4  A    between atoms: C_16  and  O_17 
ROOT
ATOM      1  C   UNL d   1      24.178 -17.900  -0.134  0.00  0.00     0.272 C 
ATOM      2  O   UNL d   1      24.503 -18.200   1.017  0.00  0.00    -0.266 OA
ATOM      3  N   UNL d   1      22.919 -18.210  -0.652  0.00  0.00    -0.263 N 
ATOM      4  H   UNL d   1      22.620 -18.012  -1.603  0.00  0.00     0.190 HD
ENDROOT
BRANCH   1   5
ATOM      5  C   UNL d   1      25.180 -17.166  -1.004  0.00  0.00     0.066 A 
ATOM      6  C   UNL d   1      24.788 -16.320  -2.055  0.00  0.00     0.020 A 
ATOM      7  C   UNL d   1      25.739 -15.625  -2.830  0.00  0.00     0.008 A 
ATOM      8  C   UNL d   1      27.106 -15.748  -2.571  0.00  0.00    -0.059 A 
ATOM      9  C   UNL d   1      28.143 -15.001  -3.363  0.00  0.00     0.048 C 
ATOM     10  C   UNL d   1      27.511 -16.596  -1.538  0.00  0.00     0.044 A 
ATOM     11  C   UNL d   1      26.567 -17.300  -0.775  0.00  0.00     0.082 A 
BRANCH  11  12
ATOM     12  O   UNL d   1      27.110 -18.107   0.194  0.00  0.00    -0.360 OA
ATOM     13  H   UNL d   1      26.593 -17.987   1.018  0.00  0.00     0.217 HD
ENDBRANCH  11  12
ENDBRANCH   1   5
BRANCH   3  14
ATOM     14  N   UNL d   1      21.927 -18.854   0.170  0.00  0.00    -0.267 N 
ATOM     15  C   UNL d   1      20.836 -19.464  -0.450  0.00  0.00     0.240 C 
ATOM     16  O   UNL d   1      20.617 -19.323  -1.657  0.00  0.00    -0.271 OA
ATOM     17  H   UNL d   1      22.181 -19.011   1.141  0.00  0.00     0.190 HD
BRANCH  15  18
ATOM     18  C   UNL d   1      20.043 -20.487   0.319  0.00  0.00     0.083 A 
ATOM     19  C   UNL d   1      19.790 -20.385   1.806  0.00  0.00     0.019 A 
ATOM     20  C   UNL d   1      18.618 -20.381   0.861  0.00  0.00    -0.005 A 
ATOM     21  C   UNL d   1      17.703 -21.582   0.819  0.00  0.00     0.011 C 
ENDBRANCH  15  18
ENDBRANCH   3  14
TORSDOF 4
ENDMDL
MODEL 2
REMARK VINA RESULT:    -7.054      1.109      1.687
REMARK INTER + INTRA:         -10.011
REMARK INTER:                  -8.247
REMARK INTRA:                  -1.764
REMARK CONF_INDEPENDENT:        1.193
REMARK UNBOUND:                -1.764
REMARK  4 active torsions:
REMARK  status: ('A' for Active; 'I' for Inactive)
REMARK    1  A    between atoms: C_5  and  C_6 
REMARK       I    between atoms: C_6  and  N_8 
REMARK    2  A    between atoms: N_8  and  N_9 
REMARK       I    between atoms: N_9  and  C_10 
REMARK    3  A    between atoms: C_12  and  C_10 
REMARK    4  A    between atoms: C_16  and  O_17 
ROOT
ATOM      1  C   UNL d   1      24.609 -17.782  -0.261  0.00  0.00     0.272 C 
ATOM      2  O   UNL d   1      25.099 -18.337   0.726  0.00  0.00    -0.266 OA
ATOM      3  N   UNL d   1      23.263 -17.934  -0.601  0.00  0.00    -0.263 N 
ATOM      4  H   UNL d   1      22.824 -17.524  -1.420  0.00  0.00     0.190 HD
ENDROOT
BRANCH   1   5
ATOM      5  C   UNL d   1      25.499 -16.906  -1.121  0.00  0.00     0.066 A 
ATOM      6  C   UNL d   1      26.893 -17.075  -1.177  0.00  0.00     0.020 A 
ATOM      7  C   UNL d   1      27.695 -16.267  -2.008  0.00  0.00     0.008 A 
ATOM      8  C   UNL d   1      27.127 -15.276  -2.814  0.00  0.00    -0.059 A 
ATOM      9  C   UNL d   1      27.953 -14.415  -3.728  0.00  0.00     0.048 C 
ATOM     10  C   UNL d   1      25.744 -15.089  -2.757  0.00  0.00     0.044 A 
ATOM     11  C   UNL d   1      24.946 -15.882  -1.921  0.00  0.00     0.082 A 
BRANCH  11  12
ATOM     12  O   UNL d   1      23.608 -15.576  -1.956  0.00  0.00    -0.360 OA
ATOM     13  H   UNL d   1      23.459 -14.937  -2.685  0.00  0.00     0.217 HD
ENDBRANCH  11  12
ENDBRANCH   1   5
BRANCH   3  14
ATOM     14  N   UNL d   1      22.380 -18.712   0.230  0.00  0.00    -0.267 N 
ATOM     15  C   UNL d   1      21.068 -18.922  -0.197  0.00  0.00     0.240 C 
ATOM     16  O   UNL d   1      20.605 -18.326  -1.173  0.00  0.00    -0.271 OA
ATOM     17  H   UNL d   1      22.818 -19.242   0.979  0.00  0.00     0.190 HD
BRANCH  15  18
ATOM     18  C   UNL d   1      20.281 -20.054   0.406  0.00  0.00     0.083 A 
ATOM     19  C   UNL d   1      19.906 -20.108   1.870  0.00  0.00     0.019 A 
ATOM     20  C   UNL d   1      18.813 -20.076   0.834  0.00  0.00    -0.005 A 
ATOM     21  C   UNL d   1      17.980 -21.314   0.605  0.00  0.00     0.011 C 
ENDBRANCH  15  18
ENDBRANCH   3  14
TORSDOF 4
ENDMDL
MODEL 3
REMARK VINA RESULT:    -7.009      1.440      7.870
REMARK INTER + INTRA:          -9.890
REMARK INTER:                  -8.202
REMARK INTRA:                  -1.688
REMARK CONF_INDEPENDENT:        1.193
REMARK UNBOUND:                -1.688
REMARK  4 active torsions:
REMARK  status: ('A' for Active; 'I' for Inactive)
REMARK    1  A    between atoms: C_5  and  C_6 
REMARK       I    between atoms: C_6  and  N_8 
REMARK    2  A    between atoms: N_8  and  N_9 
REMARK       I    between atoms: N_9  and  C_10 
REMARK    3  A    between atoms: C_12  and  C_10 
REMARK    4  A    between atoms: C_16  and  O_17 
ROOT
ATOM      1  C   UNL d   1      22.083 -18.163  -0.177  0.00  0.00     0.272 C 
ATOM      2  O   UNL d   1      21.833 -17.270  -0.990  0.00  0.00    -0.266 OA
ATOM      3  N   UNL d   1      23.367 -18.357   0.337  0.00  0.00    -0.263 N 
ATOM      4  H   UNL d   1      23.626 -19.098   0.983  0.00  0.00     0.190 HD
ENDROOT
BRANCH   1   5
ATOM      5  C   UNL d   1      20.956 -19.070   0.278  0.00  0.00     0.066 A 
ATOM      6  C   UNL d   1      20.672 -19.296   1.635  0.00  0.00     0.020 A 
ATOM      7  C   UNL d   1      19.598 -20.119   2.032  0.00  0.00     0.008 A 
ATOM      8  C   UNL d   1      18.773 -20.731   1.084  0.00  0.00    -0.059 A 
ATOM      9  C   UNL d   1      17.606 -21.594   1.476  0.00  0.00     0.048 C 
ATOM     10  C   UNL d   1      19.052 -20.526  -0.268  0.00  0.00     0.044 A 
ATOM     11  C   UNL d   1      20.128 -19.718  -0.665  0.00  0.00     0.082 A 
BRANCH  11  12
ATOM     12  O   UNL d   1      20.292 -19.620  -2.024  0.00  0.00    -0.360 OA
ATOM     13  H   UNL d   1      20.994 -18.958  -2.202  0.00  0.00     0.217 HD
ENDBRANCH  11  12
ENDBRANCH   1   5
BRANCH   3  14
ATOM     14  N   UNL d   1      24.445 -17.475  -0.031  0.00  0.00    -0.267 N 
ATOM     15  C   UNL d   1      25.723 -17.732   0.468  0.00  0.00     0.240 C 
ATOM     16  O   UNL d   1      25.916 -18.586   1.337  0.00  0.00    -0.271 OA
ATOM     17  H   UNL d   1      24.260 -16.837  -0.800  0.00  0.00     0.190 HD
BRANCH  15  18
ATOM     18  C   UNL d   1      26.909 -17.115  -0.224  0.00  0.00     0.083 A 
ATOM     19  C   UNL d   1      26.791 -15.948  -1.178  0.00  0.00     0.019 A 
ATOM     20  C   UNL d   1      27.607 -15.789   0.078  0.00  0.00    -0.005 A 
ATOM     21  C   UNL d   1      29.110 -15.686  -0.030  0.00  0.00     0.011 C 
ENDBRANCH  15  18
ENDBRANCH   3  14
TORSDOF 4
ENDMDL
MODEL 4
REMARK VINA RESULT:    -6.860      1.858      2.353
REMARK INTER + INTRA:          -9.125
REMARK INTER:                  -8.053
REMARK INTRA:                  -1.072
REMARK CONF_INDEPENDENT:        1.193
REMARK UNBOUND:                -1.072
REMARK  4 active torsions:
REMARK  status: ('A' for Active; 'I' for Inactive)
REMARK    1  A    between atoms: C_5  and  C_6 
REMARK       I    between atoms: C_6  and  N_8 
REMARK    2  A    between atoms: N_8  and  N_9 
REMARK       I    between atoms: N_9  and  C_10 
REMARK    3  A    between atoms: C_12  and  C_10 
REMARK    4  A    between atoms: C_16  and  O_17 
ROOT
ATOM      1  C   UNL d   1      24.217 -16.469  -1.140  0.00  0.00     0.272 C 
ATOM      2  O   UNL d   1      23.404 -15.678  -1.622  0.00  0.00    -0.266 OA
ATOM      3  N   UNL d   1      23.830 -17.485  -0.263  0.00  0.00    -0.263 N 
ATOM      4  H   UNL d   1      24.468 -18.138   0.184  0.00  0.00     0.190 HD
ENDROOT
BRANCH   1   5
ATOM      5  C   UNL d   1      25.679 -16.333  -1.521  0.00  0.00     0.066 A 
ATOM      6  C   UNL d   1      26.714 -16.873  -0.740  0.00  0.00     0.020 A 
ATOM      7  C   UNL d   1      28.064 -16.759  -1.132  0.00  0.00     0.008 A 
ATOM      8  C   UNL d   1      28.415 -16.112  -2.320  0.00  0.00    -0.059 A 
ATOM      9  C   UNL d   1      29.842 -15.995  -2.777  0.00  0.00     0.048 C 
ATOM     10  C   UNL d   1      27.397 -15.558  -3.099  0.00  0.00     0.044 A 
ATOM     11  C   UNL d   1      26.055 -15.659  -2.704  0.00  0.00     0.082 A 
BRANCH  11  12
ATOM     12  O   UNL d   1      25.165 -15.055  -3.557  0.00  0.00    -0.360 OA
ATOM     13  H   UNL d   1      24.491 -14.589  -3.019  0.00  0.00     0.217 HD
ENDBRANCH  11  12
ENDBRANCH   1   5
BRANCH   3  14
ATOM     14  N   UNL d   1      22.442 -17.675   0.071  0.00  0.00    -0.267 N 
ATOM     15  C   UNL d   1      21.716 -18.653  -0.610  0.00  0.00     0.240 C 
ATOM     16  O   UNL d   1      22.183 -19.234  -1.594  0.00  0.00    -0.271 OA
ATOM     17  H   UNL d   1      22.122 -17.234   0.929  0.00  0.00     0.190 HD
BRANCH  15  18
ATOM     18  C   UNL d   1      20.436 -19.161  -0.003  0.00  0.00     0.083 A 
ATOM     19  C   UNL d   1      19.163 -19.342  -0.799  0.00  0.00     0.019 A 
ATOM     20  C   UNL d   1      19.795 -20.542  -0.143  0.00  0.00    -0.005 A 
ATOM     21  C   UNL d   1      19.109 -21.178   1.043  0.00  0.00     0.011 C 
ENDBRANCH  15  18
ENDBRANCH   3  14
TORSDOF 4
ENDMDL
MODEL 5
REMARK VINA RESULT:    -5.728      3.866      5.628
REMARK INTER + INTRA:          -8.649
REMARK INTER:                  -6.922
REMARK INTRA:                  -1.727
REMARK CONF_INDEPENDENT:        1.193
REMARK UNBOUND:                -1.727
REMARK  4 active torsions:
REMARK  status: ('A' for Active; 'I' for Inactive)
REMARK    1  A    between atoms: C_5  and  C_6 
REMARK       I    between atoms: C_6  and  N_8 
REMARK    2  A    between atoms: N_8  and  N_9 
REMARK       I    between atoms: N_9  and  C_10 
REMARK    3  A    between atoms: C_12  and  C_10 
REMARK    4  A    between atoms: C_16  and  O_17 
ROOT
ATOM      1  C   UNL d   1      26.070 -15.011  -4.598  0.00  0.00     0.272 C 
ATOM      2  O   UNL d   1      26.160 -15.950  -5.393  0.00  0.00    -0.266 OA
ATOM      3  N   UNL d   1      25.556 -15.180  -3.311  0.00  0.00    -0.263 N 
ATOM      4  H   UNL d   1      25.433 -14.431  -2.635  0.00  0.00     0.190 HD
ENDROOT
BRANCH   1   5
ATOM      5  C   UNL d   1      26.541 -13.638  -5.037  0.00  0.00     0.066 A 
ATOM      6  C   UNL d   1      27.546 -13.460  -6.003  0.00  0.00     0.020 A 
ATOM      7  C   UNL d   1      27.945 -12.172  -6.416  0.00  0.00     0.008 A 
ATOM      8  C   UNL d   1      27.344 -11.028  -5.884  0.00  0.00    -0.059 A 
ATOM      9  C   UNL d   1      27.730  -9.643  -6.323  0.00  0.00     0.048 C 
ATOM     10  C   UNL d   1      26.353 -11.190  -4.914  0.00  0.00     0.044 A 
ATOM     11  C   UNL d   1      25.965 -12.470  -4.491  0.00  0.00     0.082 A 
BRANCH  11  12
ATOM     12  O   UNL d   1      24.993 -12.477  -3.522  0.00  0.00    -0.360 OA
ATOM     13  H   UNL d   1      24.404 -11.707  -3.673  0.00  0.00     0.217 HD
ENDBRANCH  11  12
ENDBRANCH   1   5
BRANCH   3  14
ATOM     14  N   UNL d   1      25.156 -16.483  -2.846  0.00  0.00    -0.267 N 
ATOM     15  C   UNL d   1      24.673 -16.612  -1.543  0.00  0.00     0.240 C 
ATOM     16  O   UNL d   1      24.738 -15.680  -0.736  0.00  0.00    -0.271 OA
ATOM     17  H   UNL d   1      25.048 -17.201  -3.558  0.00  0.00     0.190 HD
BRANCH  15  18
ATOM     18  C   UNL d   1      23.864 -17.829  -1.186  0.00  0.00     0.083 A 
ATOM     19  C   UNL d   1      23.773 -18.375   0.221  0.00  0.00     0.019 A 
ATOM     20  C   UNL d   1      22.518 -17.904  -0.465  0.00  0.00    -0.005 A 
ATOM     21  C   UNL d   1      21.488 -18.921  -0.893  0.00  0.00     0.011 C 
ENDBRANCH  15  18
ENDBRANCH   3  14
TORSDOF 4
ENDMDL
MODEL 6
REMARK VINA RESULT:    -5.693      3.152      8.238
REMARK INTER + INTRA:          -8.554
REMARK INTER:                  -6.886
REMARK INTRA:                  -1.668
REMARK CONF_INDEPENDENT:        1.193
REMARK UNBOUND:                -1.668
REMARK  4 active torsions:
REMARK  status: ('A' for Active; 'I' for Inactive)
REMARK    1  A    between atoms: C_5  and  C_6 
REMARK       I    between atoms: C_6  and  N_8 
REMARK    2  A    between atoms: N_8  and  N_9 
REMARK       I    between atoms: N_9  and  C_10 
REMARK    3  A    between atoms: C_12  and  C_10 
REMARK    4  A    between atoms: C_16  and  O_17 
ROOT
ATOM      1  C   UNL d   1      26.009 -16.090  -1.672  0.00  0.00     0.272 C 
ATOM      2  O   UNL d   1      26.945 -15.784  -0.929  0.00  0.00    -0.266 OA
ATOM      3  N   UNL d   1      26.032 -15.816  -3.041  0.00  0.00    -0.263 N 
ATOM      4  H   UNL d   1      25.272 -16.020  -3.684  0.00  0.00     0.190 HD
ENDROOT
BRANCH   1   5
ATOM      5  C   UNL d   1      24.804 -16.789  -1.073  0.00  0.00     0.066 A 
ATOM      6  C   UNL d   1      23.491 -16.329  -1.270  0.00  0.00     0.020 A 
ATOM      7  C   UNL d   1      22.385 -17.014  -0.728  0.00  0.00     0.008 A 
ATOM      8  C   UNL d   1      22.558 -18.184   0.017  0.00  0.00    -0.059 A 
ATOM      9  C   UNL d   1      21.398 -18.951   0.587  0.00  0.00     0.048 C 
ATOM     10  C   UNL d   1      23.859 -18.646   0.232  0.00  0.00     0.044 A 
ATOM     11  C   UNL d   1      24.962 -17.957  -0.295  0.00  0.00     0.082 A 
BRANCH  11  12
ATOM     12  O   UNL d   1      26.177 -18.516   0.010  0.00  0.00    -0.360 OA
ATOM     13  H   UNL d   1      26.858 -17.812  -0.032  0.00  0.00     0.217 HD
ENDBRANCH  11  12
ENDBRANCH   1   5
BRANCH   3  14
ATOM     14  N   UNL d   1      27.187 -15.207  -3.648  0.00  0.00    -0.267 N 
ATOM     15  C   UNL d   1      27.215 -15.054  -5.035  0.00  0.00     0.240 C 
ATOM     16  O   UNL d   1      26.360 -15.573  -5.758  0.00  0.00    -0.271 OA
ATOM     17  H   UNL d   1      27.827 -14.731  -3.017  0.00  0.00     0.190 HD
BRANCH  15  18
ATOM     18  C   UNL d   1      28.172 -14.061  -5.636  0.00  0.00     0.083 A 
ATOM     19  C   UNL d   1      29.673 -14.250  -5.622  0.00  0.00     0.019 A 
ATOM     20  C   UNL d   1      28.957 -14.161  -6.944  0.00  0.00    -0.005 A 
ATOM     21  C   UNL d   1      29.150 -12.935  -7.804  0.00  0.00     0.011 C 
ENDBRANCH  15  18
ENDBRANCH   3  14
TORSDOF 4
ENDMDL
MODEL 7
REMARK VINA RESULT:    -5.681      3.738      5.611
REMARK INTER + INTRA:          -8.646
REMARK INTER:                  -6.874
REMARK INTRA:                  -1.771
REMARK CONF_INDEPENDENT:        1.193
REMARK UNBOUND:                -1.771
REMARK  4 active torsions:
REMARK  status: ('A' for Active; 'I' for Inactive)
REMARK    1  A    between atoms: C_5  and  C_6 
REMARK       I    between atoms: C_6  and  N_8 
REMARK    2  A    between atoms: N_8  and  N_9 
REMARK       I    between atoms: N_9  and  C_10 
REMARK    3  A    between atoms: C_12  and  C_10 
REMARK    4  A    between atoms: C_16  and  O_17 
ROOT
ATOM      1  C   UNL d   1      25.551 -14.627  -4.204  0.00  0.00     0.272 C 
ATOM      2  O   UNL d   1      24.405 -14.198  -4.361  0.00  0.00    -0.266 OA
ATOM      3  N   UNL d   1      25.837 -15.663  -3.312  0.00  0.00    -0.263 N 
ATOM      4  H   UNL d   1      26.768 -16.026  -3.126  0.00  0.00     0.190 HD
ENDROOT
BRANCH   1   5
ATOM      5  C   UNL d   1      26.676 -14.010  -5.012  0.00  0.00     0.066 A 
ATOM      6  C   UNL d   1      27.779 -14.757  -5.461  0.00  0.00     0.020 A 
ATOM      7  C   UNL d   1      28.797 -14.167  -6.237  0.00  0.00     0.008 A 
ATOM      8  C   UNL d   1      28.736 -12.818  -6.596  0.00  0.00    -0.059 A 
ATOM      9  C   UNL d   1      29.793 -12.166  -7.443  0.00  0.00     0.048 C 
ATOM     10  C   UNL d   1      27.653 -12.060  -6.145  0.00  0.00     0.044 A 
ATOM     11  C   UNL d   1      26.646 -12.642  -5.361  0.00  0.00     0.082 A 
BRANCH  11  12
ATOM     12  O   UNL d   1      25.654 -11.775  -4.978  0.00  0.00    -0.360 OA
ATOM     13  H   UNL d   1      24.790 -12.220  -5.110  0.00  0.00     0.217 HD
ENDBRANCH  11  12
ENDBRANCH   1   5
BRANCH   3  14
ATOM     14  N   UNL d   1      24.781 -16.308  -2.575  0.00  0.00    -0.267 N 
ATOM     15  C   UNL d   1      25.119 -17.129  -1.498  0.00  0.00     0.240 C 
ATOM     16  O   UNL d   1      26.290 -17.445  -1.270  0.00  0.00    -0.271 OA
ATOM     17  H   UNL d   1      23.839 -15.964  -2.745  0.00  0.00     0.190 HD
BRANCH  15  18
ATOM     18  C   UNL d   1      24.065 -17.451  -0.473  0.00  0.00     0.083 A 
ATOM     19  C   UNL d   1      22.898 -16.537  -0.176  0.00  0.00     0.019 A 
ATOM     20  C   UNL d   1      22.628 -17.924  -0.696  0.00  0.00    -0.005 A 
ATOM     21  C   UNL d   1      22.020 -18.951   0.228  0.00  0.00     0.011 C 
ENDBRANCH  15  18
ENDBRANCH   3  14
TORSDOF 4
ENDMDL
MODEL 8
REMARK VINA RESULT:    -5.573      2.901      4.708
REMARK INTER + INTRA:          -8.542
REMARK INTER:                  -6.766
REMARK INTRA:                  -1.776
REMARK CONF_INDEPENDENT:        1.193
REMARK UNBOUND:                -1.776
REMARK  4 active torsions:
REMARK  status: ('A' for Active; 'I' for Inactive)
REMARK    1  A    between atoms: C_5  and  C_6 
REMARK       I    between atoms: C_6  and  N_8 
REMARK    2  A    between atoms: N_8  and  N_9 
REMARK       I    between atoms: N_9  and  C_10 
REMARK    3  A    between atoms: C_12  and  C_10 
REMARK    4  A    between atoms: C_16  and  O_17 
ROOT
ATOM      1  C   UNL d   1      26.190 -15.382  -3.352  0.00  0.00     0.272 C 
ATOM      2  O   UNL d   1      25.204 -14.921  -3.933  0.00  0.00    -0.266 OA
ATOM      3  N   UNL d   1      26.074 -16.351  -2.353  0.00  0.00    -0.263 N 
ATOM      4  H   UNL d   1      26.853 -16.734  -1.826  0.00  0.00     0.190 HD
ENDROOT
BRANCH   1   5
ATOM      5  C   UNL d   1      27.566 -14.880  -3.745  0.00  0.00     0.066 A 
ATOM      6  C   UNL d   1      28.511 -14.452  -2.797  0.00  0.00     0.020 A 
ATOM      7  C   UNL d   1      29.795 -14.018  -3.186  0.00  0.00     0.008 A 
ATOM      8  C   UNL d   1      30.174 -14.011  -4.530  0.00  0.00    -0.059 A 
ATOM      9  C   UNL d   1      31.544 -13.578  -4.974  0.00  0.00     0.048 C 
ATOM     10  C   UNL d   1      29.241 -14.422  -5.485  0.00  0.00     0.044 A 
ATOM     11  C   UNL d   1      27.958 -14.840  -5.101  0.00  0.00     0.082 A 
BRANCH  11  12
ATOM     12  O   UNL d   1      27.143 -15.200  -6.145  0.00  0.00    -0.360 OA
ATOM     13  H   UNL d   1      26.220 -15.232  -5.816  0.00  0.00     0.217 HD
ENDBRANCH  11  12
ENDBRANCH   1   5
BRANCH   3  14
ATOM     14  N   UNL d   1      24.785 -16.889  -2.000  0.00  0.00    -0.267 N 
ATOM     15  C   UNL d   1      24.690 -17.728  -0.889  0.00  0.00     0.240 C 
ATOM     16  O   UNL d   1      25.695 -18.149  -0.311  0.00  0.00    -0.271 OA
ATOM     17  H   UNL d   1      23.981 -16.461  -2.452  0.00  0.00     0.190 HD
BRANCH  15  18
ATOM     18  C   UNL d   1      23.342 -17.943  -0.256  0.00  0.00     0.083 A 
ATOM     19  C   UNL d   1      22.155 -17.043  -0.520  0.00  0.00     0.019 A 
ATOM     20  C   UNL d   1      22.067 -18.501  -0.890  0.00  0.00    -0.005 A 
ATOM     21  C   UNL d   1      21.162 -19.409  -0.090  0.00  0.00     0.011 C 
ENDBRANCH  15  18
ENDBRANCH   3  14
TORSDOF 4
ENDMDL
MODEL 9
REMARK VINA RESULT:    -5.406      5.148      8.742
REMARK INTER + INTRA:          -8.400
REMARK INTER:                  -6.599
REMARK INTRA:                  -1.801
REMARK CONF_INDEPENDENT:        1.193
REMARK UNBOUND:                -1.801
REMARK  4 active torsions:
REMARK  status: ('A' for Active; 'I' for Inactive)
REMARK    1  A    between atoms: C_5  and  C_6 
REMARK       I    between atoms: C_6  and  N_8 
REMARK    2  A    between atoms: N_8  and  N_9 
REMARK       I    between atoms: N_9  and  C_10 
REMARK    3  A    between atoms: C_12  and  C_10 
REMARK    4  A    between atoms: C_16  and  O_17 
ROOT
ATOM      1  C   UNL d   1      25.174 -14.129  -3.155  0.00  0.00     0.272 C 
ATOM      2  O   UNL d   1      24.563 -14.448  -4.178  0.00  0.00    -0.266 OA
ATOM      3  N   UNL d   1      25.556 -12.809  -2.904  0.00  0.00    -0.263 N 
ATOM      4  H   UNL d   1      26.088 -12.505  -2.093  0.00  0.00     0.190 HD
ENDROOT
BRANCH   1   5
ATOM      5  C   UNL d   1      25.511 -15.206  -2.143  0.00  0.00     0.066 A 
ATOM      6  C   UNL d   1      24.758 -16.386  -2.020  0.00  0.00     0.020 A 
ATOM      7  C   UNL d   1      25.110 -17.387  -1.092  0.00  0.00     0.008 A 
ATOM      8  C   UNL d   1      26.229 -17.241  -0.268  0.00  0.00    -0.059 A 
ATOM      9  C   UNL d   1      26.645 -18.301   0.714  0.00  0.00     0.048 C 
ATOM     10  C   UNL d   1      26.980 -16.068  -0.370  0.00  0.00     0.044 A 
ATOM     11  C   UNL d   1      26.623 -15.065  -1.284  0.00  0.00     0.082 A 
BRANCH  11  12
ATOM     12  O   UNL d   1      27.440 -13.962  -1.263  0.00  0.00    -0.360 OA
ATOM     13  H   UNL d   1      28.314 -14.235  -0.913  0.00  0.00     0.217 HD
ENDBRANCH  11  12
ENDBRANCH   1   5
BRANCH   3  14
ATOM     14  N   UNL d   1      25.199 -11.756  -3.819  0.00  0.00    -0.267 N 
ATOM     15  C   UNL d   1      25.691 -10.471  -3.588  0.00  0.00     0.240 C 
ATOM     16  O   UNL d   1      26.280 -10.184  -2.542  0.00  0.00    -0.271 OA
ATOM     17  H   UNL d   1      24.780 -12.047  -4.698  0.00  0.00     0.190 HD
BRANCH  15  18
ATOM     18  C   UNL d   1      25.700  -9.482  -4.723  0.00  0.00     0.083 A 
ATOM     19  C   UNL d   1      25.342  -9.856  -6.144  0.00  0.00     0.019 A 
ATOM     20  C   UNL d   1      24.511  -8.825  -5.426  0.00  0.00    -0.005 A 
ATOM     21  C   UNL d   1      24.596  -7.381  -5.860  0.00  0.00     0.011 C 
ENDBRANCH  15  18
ENDBRANCH   3  14
TORSDOF 4
ENDMDL
