MODEL 1
REMARK VINA RESULT:    -8.999      0.000      0.000
REMARK INTER + INTRA:         -12.812
REMARK INTER:                 -11.087
REMARK INTRA:                  -1.725
REMARK CONF_INDEPENDENT:        2.088
REMARK UNBOUND:                -1.725
REMARK  7 active torsions:
REMARK  status: ('A' for Active; 'I' for Inactive)
REMARK    1  A    between atoms: C_5  and  S_6 
REMARK    2  A    between atoms: S_6  and  N_9 
REMARK    3  A    between atoms: C_12  and  N_13 
REMARK    4  A    between atoms: N_13  and  N_14 
REMARK       I    between atoms: N_14  and  C_15 
REMARK    5  A    between atoms: C_15  and  C_17 
REMARK    6  A    between atoms: C_19  and  O_20 
REMARK    7  A    between atoms: C_22  and  O_23 
ROOT
ATOM      1  N   UNL d   1      24.825 -17.012  -0.252  0.00  0.00    -0.160 NA
ATOM      2  C   UNL d   1      25.886 -16.310  -0.578  0.00  0.00     0.079 A 
ATOM      3  C   UNL d   1      27.000 -16.200   0.428  0.00  0.00     0.067 A 
ATOM      4  C   UNL d   1      28.171 -15.563   0.217  0.00  0.00     0.096 A 
ATOM      5  C   UNL d   1      28.415 -14.859  -1.088  0.00  0.00     0.206 A 
ATOM      6  O   UNL d   1      29.474 -14.249  -1.285  0.00  0.00    -0.285 OA
ATOM      7  C   UNL d   1      27.365 -14.919  -2.112  0.00  0.00     0.007 A 
ATOM      8  C   UNL d   1      26.221 -15.574  -1.855  0.00  0.00    -0.015 A 
ATOM      9  C   UNL d   1      25.222 -15.645  -2.931  0.00  0.00     0.068 C 
ATOM     10  C   UNL d   1      25.597 -15.373  -4.313  0.00  0.00    -0.026 C 
ATOM     11  C   UNL d   1      26.733 -14.740  -4.577  0.00  0.00    -0.026 C 
ATOM     12  C   UNL d   1      27.630 -14.266  -3.458  0.00  0.00     0.070 C 
ENDROOT
BRANCH   4  13
ATOM     13  N   UNL d   1      29.238 -15.509   1.107  0.00  0.00    -0.311 N 
ATOM     14  H   UNL d   1      29.623 -16.433   1.355  0.00  0.00     0.181 HD
BRANCH  13  15
ATOM     15  N   UNL d   1      30.025 -14.356   1.305  0.00  0.00    -0.169 NA
ATOM     16  C   UNL d   1      29.424 -13.194   1.775  0.00  0.00     0.249 C 
ATOM     17  O   UNL d   1      29.532 -12.143   1.147  0.00  0.00    -0.272 OA
ATOM     18  H   UNL d   1      30.588 -14.154   0.484  0.00  0.00     0.156 HD
BRANCH  16  19
ATOM     19  C   UNL d   1      28.801 -13.207   3.129  0.00  0.00     0.033 A 
ATOM     20  C   UNL d   1      28.380 -11.999   3.712  0.00  0.00     0.053 A 
ATOM     21  C   UNL d   1      27.880 -12.008   5.016  0.00  0.00     0.069 A 
ATOM     22  C   UNL d   1      27.784 -13.194   5.742  0.00  0.00     0.073 A 
ATOM     23  C   UNL d   1      28.204 -14.378   5.158  0.00  0.00     0.069 A 
ATOM     24  C   UNL d   1      28.728 -14.387   3.876  0.00  0.00     0.053 A 
BRANCH  21  25
ATOM     25  O   UNL d   1      27.477 -10.863   5.640  0.00  0.00    -0.361 OA
ATOM     26  H   UNL d   1      27.116 -11.082   6.515  0.00  0.00     0.217 HD
ENDBRANCH  21  25
BRANCH  23  27
ATOM     27  O   UNL d   1      28.148 -15.578   5.797  0.00  0.00    -0.361 OA
ATOM     28  H   UNL d   1      28.806 -15.594   6.510  0.00  0.00     0.217 HD
ENDBRANCH  23  27
ENDBRANCH  16  19
ENDBRANCH  13  15
ENDBRANCH   4  13
BRANCH   1  29
ATOM     29  S   UNL d   1      23.539 -17.236  -1.252  0.00  0.00     0.283 S 
ATOM     30  O   UNL d   1      23.950 -18.040  -2.389  0.00  0.00    -0.198 OA
ATOM     31  O   UNL d   1      22.841 -15.971  -1.400  0.00  0.00    -0.198 OA
BRANCH  29  32
ATOM     32  C   UNL d   1      22.298 -18.247  -0.601  0.00  0.00     0.081 A 
ATOM     33  C   UNL d   1      22.152 -18.223   0.801  0.00  0.00     0.026 A 
ATOM     34  C   UNL d   1      21.133 -18.950   1.378  0.00  0.00     0.008 A 
ATOM     35  C   UNL d   1      20.282 -19.682   0.544  0.00  0.00    -0.062 A 
ATOM     36  C   UNL d   1      19.158 -20.472   1.129  0.00  0.00     0.048 C 
ATOM     37  C   UNL d   1      20.458 -19.682  -0.854  0.00  0.00     0.008 A 
ATOM     38  C   UNL d   1      21.475 -18.957  -1.440  0.00  0.00     0.026 A 
ENDBRANCH  29  32
ENDBRANCH   1  29
TORSDOF 7
ENDMDL
MODEL 2
REMARK VINA RESULT:    -8.993      3.957      6.233
REMARK INTER + INTRA:         -12.645
REMARK INTER:                 -11.081
REMARK INTRA:                  -1.563
REMARK CONF_INDEPENDENT:        2.088
REMARK UNBOUND:                -1.563
REMARK  7 active torsions:
REMARK  status: ('A' for Active; 'I' for Inactive)
REMARK    1  A    between atoms: C_5  and  S_6 
REMARK    2  A    between atoms: S_6  and  N_9 
REMARK    3  A    between atoms: C_12  and  N_13 
REMARK    4  A    between atoms: N_13  and  N_14 
REMARK       I    between atoms: N_14  and  C_15 
REMARK    5  A    between atoms: C_15  and  C_17 
REMARK    6  A    between atoms: C_19  and  O_20 
REMARK    7  A    between atoms: C_22  and  O_23 
ROOT
ATOM      1  N   UNL d   1      23.453 -16.741  -1.298  0.00  0.00    -0.160 NA
ATOM      2  C   UNL d   1      24.560 -16.116  -1.623  0.00  0.00     0.079 A 
ATOM      3  C   UNL d   1      24.448 -14.829  -2.395  0.00  0.00     0.067 A 
ATOM      4  C   UNL d   1      25.490 -14.047  -2.750  0.00  0.00     0.096 A 
ATOM      5  C   UNL d   1      26.892 -14.471  -2.410  0.00  0.00     0.206 A 
ATOM      6  O   UNL d   1      27.858 -13.777  -2.754  0.00  0.00    -0.285 OA
ATOM      7  C   UNL d   1      27.074 -15.722  -1.666  0.00  0.00     0.007 A 
ATOM      8  C   UNL d   1      26.003 -16.458  -1.328  0.00  0.00    -0.015 A 
ATOM      9  C   UNL d   1      26.237 -17.677  -0.541  0.00  0.00     0.068 C 
ATOM     10  C   UNL d   1      27.495 -17.874   0.170  0.00  0.00    -0.026 C 
ATOM     11  C   UNL d   1      28.554 -17.140  -0.146  0.00  0.00    -0.026 C 
ATOM     12  C   UNL d   1      28.483 -16.123  -1.261  0.00  0.00     0.070 C 
ENDROOT
BRANCH   4  13
ATOM     13  N   UNL d   1      25.401 -12.823  -3.402  0.00  0.00    -0.311 N 
ATOM     14  H   UNL d   1      25.750 -12.027  -2.847  0.00  0.00     0.181 HD
BRANCH  13  15
ATOM     15  N   UNL d   1      25.297 -12.695  -4.803  0.00  0.00    -0.169 NA
ATOM     16  C   UNL d   1      26.331 -12.093  -5.510  0.00  0.00     0.249 C 
ATOM     17  O   UNL d   1      26.104 -11.133  -6.243  0.00  0.00    -0.272 OA
ATOM     18  H   UNL d   1      24.405 -12.286  -5.066  0.00  0.00     0.156 HD
BRANCH  16  19
ATOM     19  C   UNL d   1      27.676 -12.736  -5.500  0.00  0.00     0.033 A 
ATOM     20  C   UNL d   1      28.766 -12.057  -4.929  0.00  0.00     0.053 A 
ATOM     21  C   UNL d   1      30.040 -12.625  -5.004  0.00  0.00     0.069 A 
ATOM     22  C   UNL d   1      30.243 -13.857  -5.625  0.00  0.00     0.073 A 
ATOM     23  C   UNL d   1      29.161 -14.515  -6.186  0.00  0.00     0.069 A 
ATOM     24  C   UNL d   1      27.895 -13.956  -6.147  0.00  0.00     0.053 A 
BRANCH  21  25
ATOM     25  O   UNL d   1      31.138 -12.001  -4.487  0.00  0.00    -0.361 OA
ATOM     26  H   UNL d   1      31.874 -12.064  -5.120  0.00  0.00     0.217 HD
ENDBRANCH  21  25
BRANCH  23  27
ATOM     27  O   UNL d   1      29.272 -15.719  -6.813  0.00  0.00    -0.361 OA
ATOM     28  H   UNL d   1      29.459 -15.574  -7.754  0.00  0.00     0.217 HD
ENDBRANCH  23  27
ENDBRANCH  16  19
ENDBRANCH  13  15
ENDBRANCH   4  13
BRANCH   1  29
ATOM     29  S   UNL d   1      23.417 -18.145  -0.441  0.00  0.00     0.283 S 
ATOM     30  O   UNL d   1      23.835 -17.884   0.924  0.00  0.00    -0.198 OA
ATOM     31  O   UNL d   1      24.004 -19.197  -1.252  0.00  0.00    -0.198 OA
BRANCH  29  32
ATOM     32  C   UNL d   1      21.829 -18.766  -0.158  0.00  0.00     0.081 A 
ATOM     33  C   UNL d   1      21.093 -19.129  -1.303  0.00  0.00     0.026 A 
ATOM     34  C   UNL d   1      19.848 -19.699  -1.143  0.00  0.00     0.008 A 
ATOM     35  C   UNL d   1      19.368 -19.896   0.155  0.00  0.00    -0.062 A 
ATOM     36  C   UNL d   1      18.030 -20.523   0.372  0.00  0.00     0.048 C 
ATOM     37  C   UNL d   1      20.133 -19.521   1.277  0.00  0.00     0.008 A 
ATOM     38  C   UNL d   1      21.380 -18.950   1.127  0.00  0.00     0.026 A 
ENDBRANCH  29  32
ENDBRANCH   1  29
TORSDOF 7
ENDMDL
MODEL 3
REMARK VINA RESULT:    -8.883      4.775      7.917
REMARK INTER + INTRA:         -12.241
REMARK INTER:                 -10.971
REMARK INTRA:                  -1.271
REMARK CONF_INDEPENDENT:        2.088
REMARK UNBOUND:                -1.271
REMARK  7 active torsions:
REMARK  status: ('A' for Active; 'I' for Inactive)
REMARK    1  A    between atoms: C_5  and  S_6 
REMARK    2  A    between atoms: S_6  and  N_9 
REMARK    3  A    between atoms: C_12  and  N_13 
REMARK    4  A    between atoms: N_13  and  N_14 
REMARK       I    between atoms: N_14  and  C_15 
REMARK    5  A    between atoms: C_15  and  C_17 
REMARK    6  A    between atoms: C_19  and  O_20 
REMARK    7  A    between atoms: C_22  and  O_23 
ROOT
ATOM      1  N   UNL d   1      26.193 -15.468  -3.552  0.00  0.00    -0.160 NA
ATOM      2  C   UNL d   1      26.879 -14.652  -4.318  0.00  0.00     0.079 A 
ATOM      3  C   UNL d   1      27.811 -15.250  -5.336  0.00  0.00     0.067 A 
ATOM      4  C   UNL d   1      28.537 -14.545  -6.229  0.00  0.00     0.096 A 
ATOM      5  C   UNL d   1      28.477 -13.043  -6.220  0.00  0.00     0.206 A 
ATOM      6  O   UNL d   1      29.159 -12.382  -7.015  0.00  0.00    -0.285 OA
ATOM      7  C   UNL d   1      27.594 -12.392  -5.244  0.00  0.00     0.007 A 
ATOM      8  C   UNL d   1      26.886 -13.141  -4.385  0.00  0.00    -0.015 A 
ATOM      9  C   UNL d   1      25.980 -12.443  -3.461  0.00  0.00     0.068 C 
ATOM     10  C   UNL d   1      25.571 -11.068  -3.718  0.00  0.00    -0.026 C 
ATOM     11  C   UNL d   1      26.255 -10.325  -4.579  0.00  0.00    -0.026 C 
ATOM     12  C   UNL d   1      27.478 -10.877  -5.272  0.00  0.00     0.070 C 
ENDROOT
BRANCH   4  13
ATOM     13  N   UNL d   1      29.350 -15.081  -7.221  0.00  0.00    -0.311 N 
ATOM     14  H   UNL d   1      28.895 -15.146  -8.144  0.00  0.00     0.181 HD
BRANCH  13  15
ATOM     15  N   UNL d   1      30.758 -15.110  -7.139  0.00  0.00    -0.169 NA
ATOM     16  C   UNL d   1      31.371 -16.024  -6.292  0.00  0.00     0.249 C 
ATOM     17  O   UNL d   1      32.162 -15.640  -5.433  0.00  0.00    -0.272 OA
ATOM     18  H   UNL d   1      31.132 -14.178  -6.983  0.00  0.00     0.156 HD
BRANCH  16  19
ATOM     19  C   UNL d   1      31.189 -17.480  -6.555  0.00  0.00     0.033 A 
ATOM     20  C   UNL d   1      31.040 -17.935  -7.877  0.00  0.00     0.053 A 
ATOM     21  C   UNL d   1      30.779 -19.287  -8.108  0.00  0.00     0.069 A 
ATOM     22  C   UNL d   1      30.675 -20.192  -7.052  0.00  0.00     0.073 A 
ATOM     23  C   UNL d   1      30.822 -19.731  -5.754  0.00  0.00     0.069 A 
ATOM     24  C   UNL d   1      31.054 -18.389  -5.501  0.00  0.00     0.053 A 
BRANCH  21  25
ATOM     25  O   UNL d   1      30.602 -19.781  -9.369  0.00  0.00    -0.361 OA
ATOM     26  H   UNL d   1      29.658 -19.957  -9.518  0.00  0.00     0.217 HD
ENDBRANCH  21  25
BRANCH  23  27
ATOM     27  O   UNL d   1      30.734 -20.546  -4.666  0.00  0.00    -0.361 OA
ATOM     28  H   UNL d   1      29.929 -21.083  -4.733  0.00  0.00     0.217 HD
ENDBRANCH  23  27
ENDBRANCH  16  19
ENDBRANCH  13  15
ENDBRANCH   4  13
BRANCH   1  29
ATOM     29  S   UNL d   1      25.124 -14.962  -2.408  0.00  0.00     0.283 S 
ATOM     30  O   UNL d   1      24.026 -14.265  -3.054  0.00  0.00    -0.198 OA
ATOM     31  O   UNL d   1      25.868 -14.391  -1.299  0.00  0.00    -0.198 OA
BRANCH  29  32
ATOM     32  C   UNL d   1      24.257 -16.237  -1.629  0.00  0.00     0.081 A 
ATOM     33  C   UNL d   1      22.925 -15.950  -1.269  0.00  0.00     0.026 A 
ATOM     34  C   UNL d   1      22.155 -16.947  -0.710  0.00  0.00     0.008 A 
ATOM     35  C   UNL d   1      22.730 -18.208  -0.525  0.00  0.00    -0.062 A 
ATOM     36  C   UNL d   1      21.926 -19.319   0.064  0.00  0.00     0.048 C 
ATOM     37  C   UNL d   1      24.066 -18.459  -0.898  0.00  0.00     0.008 A 
ATOM     38  C   UNL d   1      24.843 -17.467  -1.459  0.00  0.00     0.026 A 
ENDBRANCH  29  32
ENDBRANCH   1  29
TORSDOF 7
ENDMDL
MODEL 4
REMARK VINA RESULT:    -8.839      5.087      8.398
REMARK INTER + INTRA:         -12.441
REMARK INTER:                 -10.927
REMARK INTRA:                  -1.515
REMARK CONF_INDEPENDENT:        2.088
REMARK UNBOUND:                -1.515
REMARK  7 active torsions:
REMARK  status: ('A' for Active; 'I' for Inactive)
REMARK    1  A    between atoms: C_5  and  S_6 
REMARK    2  A    between atoms: S_6  and  N_9 
REMARK    3  A    between atoms: C_12  and  N_13 
REMARK    4  A    between atoms: N_13  and  N_14 
REMARK       I    between atoms: N_14  and  C_15 
REMARK    5  A    between atoms: C_15  and  C_17 
REMARK    6  A    between atoms: C_19  and  O_20 
REMARK    7  A    between atoms: C_22  and  O_23 
ROOT
ATOM      1  N   UNL d   1      27.334 -15.030  -4.267  0.00  0.00    -0.160 NA
ATOM      2  C   UNL d   1      27.909 -14.347  -5.229  0.00  0.00     0.079 A 
ATOM      3  C   UNL d   1      29.103 -14.955  -5.914  0.00  0.00     0.067 A 
ATOM      4  C   UNL d   1      29.763 -14.401  -6.953  0.00  0.00     0.096 A 
ATOM      5  C   UNL d   1      29.340 -13.057  -7.476  0.00  0.00     0.206 A 
ATOM      6  O   UNL d   1      29.954 -12.525  -8.411  0.00  0.00    -0.285 OA
ATOM      7  C   UNL d   1      28.187 -12.402  -6.846  0.00  0.00     0.007 A 
ATOM      8  C   UNL d   1      27.560 -13.001  -5.821  0.00  0.00    -0.015 A 
ATOM      9  C   UNL d   1      26.382 -12.325  -5.257  0.00  0.00     0.068 C 
ATOM     10  C   UNL d   1      25.695 -11.279  -6.006  0.00  0.00    -0.026 C 
ATOM     11  C   UNL d   1      26.302 -10.693  -7.030  0.00  0.00    -0.026 C 
ATOM     12  C   UNL d   1      27.713 -11.073  -7.411  0.00  0.00     0.070 C 
ENDROOT
BRANCH   4  13
ATOM     13  N   UNL d   1      30.823 -14.978  -7.643  0.00  0.00    -0.311 N 
ATOM     14  H   UNL d   1      30.852 -14.734  -8.645  0.00  0.00     0.181 HD
BRANCH  13  15
ATOM     15  N   UNL d   1      31.991 -15.455  -7.013  0.00  0.00    -0.169 NA
ATOM     16  C   UNL d   1      31.882 -16.418  -6.017  0.00  0.00     0.249 C 
ATOM     17  O   UNL d   1      32.368 -16.219  -4.906  0.00  0.00    -0.272 OA
ATOM     18  H   UNL d   1      32.574 -14.685  -6.696  0.00  0.00     0.156 HD
BRANCH  16  19
ATOM     19  C   UNL d   1      31.325 -17.755  -6.370  0.00  0.00     0.033 A 
ATOM     20  C   UNL d   1      31.057 -18.687  -5.353  0.00  0.00     0.053 A 
ATOM     21  C   UNL d   1      30.621 -19.968  -5.699  0.00  0.00     0.069 A 
ATOM     22  C   UNL d   1      30.438 -20.331  -7.033  0.00  0.00     0.073 A 
ATOM     23  C   UNL d   1      30.708 -19.404  -8.027  0.00  0.00     0.069 A 
ATOM     24  C   UNL d   1      31.167 -18.137  -7.706  0.00  0.00     0.053 A 
BRANCH  21  25
ATOM     25  O   UNL d   1      30.367 -20.921  -4.755  0.00  0.00    -0.361 OA
ATOM     26  H   UNL d   1      30.029 -21.723  -5.188  0.00  0.00     0.217 HD
ENDBRANCH  21  25
BRANCH  23  27
ATOM     27  O   UNL d   1      30.559 -19.677  -9.352  0.00  0.00    -0.361 OA
ATOM     28  H   UNL d   1      29.651 -19.976  -9.518  0.00  0.00     0.217 HD
ENDBRANCH  23  27
ENDBRANCH  16  19
ENDBRANCH  13  15
ENDBRANCH   4  13
BRANCH   1  29
ATOM     29  S   UNL d   1      26.013 -14.504  -3.440  0.00  0.00     0.283 S 
ATOM     30  O   UNL d   1      24.874 -14.450  -4.340  0.00  0.00    -0.198 OA
ATOM     31  O   UNL d   1      26.405 -13.381  -2.607  0.00  0.00    -0.198 OA
BRANCH  29  32
ATOM     32  C   UNL d   1      25.416 -15.621  -2.264  0.00  0.00     0.081 A 
ATOM     33  C   UNL d   1      24.028 -15.579  -2.019  0.00  0.00     0.026 A 
ATOM     34  C   UNL d   1      23.477 -16.493  -1.147  0.00  0.00     0.008 A 
ATOM     35  C   UNL d   1      24.321 -17.428  -0.541  0.00  0.00    -0.062 A 
ATOM     36  C   UNL d   1      23.762 -18.443   0.400  0.00  0.00     0.048 C 
ATOM     37  C   UNL d   1      25.705 -17.439  -0.810  0.00  0.00     0.008 A 
ATOM     38  C   UNL d   1      26.265 -16.529  -1.682  0.00  0.00     0.026 A 
ENDBRANCH  29  32
ENDBRANCH   1  29
TORSDOF 7
ENDMDL
MODEL 5
REMARK VINA RESULT:    -8.793      2.913      5.771
REMARK INTER + INTRA:         -12.768
REMARK INTER:                 -10.881
REMARK INTRA:                  -1.887
REMARK CONF_INDEPENDENT:        2.088
REMARK UNBOUND:                -1.887
REMARK  7 active torsions:
REMARK  status: ('A' for Active; 'I' for Inactive)
REMARK    1  A    between atoms: C_5  and  S_6 
REMARK    2  A    between atoms: S_6  and  N_9 
REMARK    3  A    between atoms: C_12  and  N_13 
REMARK    4  A    between atoms: N_13  and  N_14 
REMARK       I    between atoms: N_14  and  C_15 
REMARK    5  A    between atoms: C_15  and  C_17 
REMARK    6  A    between atoms: C_19  and  O_20 
REMARK    7  A    between atoms: C_22  and  O_23 
ROOT
ATOM      1  N   UNL d   1      26.578 -16.853  -1.503  0.00  0.00    -0.160 NA
ATOM      2  C   UNL d   1      27.740 -16.248  -1.589  0.00  0.00     0.079 A 
ATOM      3  C   UNL d   1      28.485 -16.325  -2.894  0.00  0.00     0.067 A 
ATOM      4  C   UNL d   1      29.658 -15.710  -3.151  0.00  0.00     0.096 A 
ATOM      5  C   UNL d   1      30.335 -14.911  -2.073  0.00  0.00     0.206 A 
ATOM      6  O   UNL d   1      31.426 -14.364  -2.287  0.00  0.00    -0.285 OA
ATOM      7  C   UNL d   1      29.668 -14.802  -0.770  0.00  0.00     0.007 A 
ATOM      8  C   UNL d   1      28.496 -15.426  -0.570  0.00  0.00    -0.015 A 
ATOM      9  C   UNL d   1      27.845 -15.246   0.736  0.00  0.00     0.068 C 
ATOM     10  C   UNL d   1      28.234 -14.151   1.616  0.00  0.00    -0.026 C 
ATOM     11  C   UNL d   1      29.383 -13.518   1.415  0.00  0.00    -0.026 C 
ATOM     12  C   UNL d   1      30.313 -13.942   0.303  0.00  0.00     0.070 C 
ENDROOT
BRANCH   4  13
ATOM     13  N   UNL d   1      30.327 -15.713  -4.370  0.00  0.00    -0.311 N 
ATOM     14  H   UNL d   1      30.933 -16.535  -4.513  0.00  0.00     0.181 HD
BRANCH  13  15
ATOM     15  N   UNL d   1      29.906 -14.962  -5.487  0.00  0.00    -0.169 NA
ATOM     16  C   UNL d   1      28.550 -14.876  -5.778  0.00  0.00     0.249 C 
ATOM     17  O   UNL d   1      28.133 -15.200  -6.888  0.00  0.00    -0.272 OA
ATOM     18  H   UNL d   1      30.430 -15.222  -6.318  0.00  0.00     0.156 HD
BRANCH  16  19
ATOM     19  C   UNL d   1      27.643 -14.227  -4.789  0.00  0.00     0.033 A 
ATOM     20  C   UNL d   1      26.274 -14.541  -4.790  0.00  0.00     0.053 A 
ATOM     21  C   UNL d   1      25.417 -13.862  -3.921  0.00  0.00     0.069 A 
ATOM     22  C   UNL d   1      25.900 -12.889  -3.048  0.00  0.00     0.073 A 
ATOM     23  C   UNL d   1      27.252 -12.586  -3.057  0.00  0.00     0.069 A 
ATOM     24  C   UNL d   1      28.114 -13.228  -3.931  0.00  0.00     0.053 A 
BRANCH  21  25
ATOM     25  O   UNL d   1      24.074 -14.110  -3.895  0.00  0.00    -0.361 OA
ATOM     26  H   UNL d   1      23.655 -13.700  -4.670  0.00  0.00     0.217 HD
ENDBRANCH  21  25
BRANCH  23  27
ATOM     27  O   UNL d   1      27.805 -11.648  -2.241  0.00  0.00    -0.361 OA
ATOM     28  H   UNL d   1      28.514 -11.186  -2.716  0.00  0.00     0.217 HD
ENDBRANCH  23  27
ENDBRANCH  16  19
ENDBRANCH  13  15
ENDBRANCH   4  13
BRANCH   1  29
ATOM     29  S   UNL d   1      25.642 -16.841  -0.150  0.00  0.00     0.283 S 
ATOM     30  O   UNL d   1      25.234 -15.478   0.139  0.00  0.00    -0.198 OA
ATOM     31  O   UNL d   1      26.257 -17.702   0.845  0.00  0.00    -0.198 OA
BRANCH  29  32
ATOM     32  C   UNL d   1      24.094 -17.584  -0.347  0.00  0.00     0.081 A 
ATOM     33  C   UNL d   1      23.026 -16.717  -0.653  0.00  0.00     0.026 A 
ATOM     34  C   UNL d   1      21.780 -17.254  -0.895  0.00  0.00     0.008 A 
ATOM     35  C   UNL d   1      21.628 -18.642  -0.828  0.00  0.00    -0.062 A 
ATOM     36  C   UNL d   1      20.298 -19.265  -1.097  0.00  0.00     0.048 C 
ATOM     37  C   UNL d   1      22.720 -19.478  -0.520  0.00  0.00     0.008 A 
ATOM     38  C   UNL d   1      23.971 -18.950  -0.277  0.00  0.00     0.026 A 
ENDBRANCH  29  32
ENDBRANCH   1  29
TORSDOF 7
ENDMDL
MODEL 6
REMARK VINA RESULT:    -8.787      2.597      3.704
REMARK INTER + INTRA:         -12.293
REMARK INTER:                 -10.875
REMARK INTRA:                  -1.418
REMARK CONF_INDEPENDENT:        2.088
REMARK UNBOUND:                -1.418
REMARK  7 active torsions:
REMARK  status: ('A' for Active; 'I' for Inactive)
REMARK    1  A    between atoms: C_5  and  S_6 
REMARK    2  A    between atoms: S_6  and  N_9 
REMARK    3  A    between atoms: C_12  and  N_13 
REMARK    4  A    between atoms: N_13  and  N_14 
REMARK       I    between atoms: N_14  and  C_15 
REMARK    5  A    between atoms: C_15  and  C_17 
REMARK    6  A    between atoms: C_19  and  O_20 
REMARK    7  A    between atoms: C_22  and  O_23 
ROOT
ATOM      1  N   UNL d   1      26.386 -15.967   0.544  0.00  0.00    -0.160 NA
ATOM      2  C   UNL d   1      27.597 -15.512   0.771  0.00  0.00     0.079 A 
ATOM      3  C   UNL d   1      27.768 -14.441   1.813  0.00  0.00     0.067 A 
ATOM      4  C   UNL d   1      28.952 -13.917   2.196  0.00  0.00     0.096 A 
ATOM      5  C   UNL d   1      30.221 -14.373   1.532  0.00  0.00     0.206 A 
ATOM      6  O   UNL d   1      31.310 -13.881   1.854  0.00  0.00    -0.285 OA
ATOM      7  C   UNL d   1      30.125 -15.411   0.498  0.00  0.00     0.007 A 
ATOM      8  C   UNL d   1      28.923 -15.906   0.162  0.00  0.00    -0.015 A 
ATOM      9  C   UNL d   1      28.887 -16.977  -0.845  0.00  0.00     0.068 C 
ATOM     10  C   UNL d   1      30.091 -17.733  -1.169  0.00  0.00    -0.026 C 
ATOM     11  C   UNL d   1      31.281 -17.259  -0.826  0.00  0.00    -0.026 C 
ATOM     12  C   UNL d   1      31.409 -15.924  -0.131  0.00  0.00     0.070 C 
ENDROOT
BRANCH   4  13
ATOM     13  N   UNL d   1      29.136 -12.977   3.204  0.00  0.00    -0.311 N 
ATOM     14  H   UNL d   1      29.960 -12.372   3.065  0.00  0.00     0.181 HD
BRANCH  13  15
ATOM     15  N   UNL d   1      28.106 -12.555   4.070  0.00  0.00    -0.169 NA
ATOM     16  C   UNL d   1      27.905 -13.231   5.267  0.00  0.00     0.249 C 
ATOM     17  O   UNL d   1      26.801 -13.700   5.536  0.00  0.00    -0.272 OA
ATOM     18  H   UNL d   1      27.228 -12.456   3.569  0.00  0.00     0.156 HD
BRANCH  16  19
ATOM     19  C   UNL d   1      28.993 -13.226   6.286  0.00  0.00     0.033 A 
ATOM     20  C   UNL d   1      30.174 -12.506   6.037  0.00  0.00     0.053 A 
ATOM     21  C   UNL d   1      31.225 -12.580   6.955  0.00  0.00     0.069 A 
ATOM     22  C   UNL d   1      31.115 -13.345   8.115  0.00  0.00     0.073 A 
ATOM     23  C   UNL d   1      29.947 -14.053   8.348  0.00  0.00     0.069 A 
ATOM     24  C   UNL d   1      28.904 -14.015   7.437  0.00  0.00     0.053 A 
BRANCH  21  25
ATOM     25  O   UNL d   1      32.403 -11.920   6.755  0.00  0.00    -0.361 OA
ATOM     26  H   UNL d   1      32.899 -12.353   6.040  0.00  0.00     0.217 HD
ENDBRANCH  21  25
BRANCH  23  27
ATOM     27  O   UNL d   1      29.758 -14.826   9.452  0.00  0.00    -0.361 OA
ATOM     28  H   UNL d   1      29.795 -15.762   9.199  0.00  0.00     0.217 HD
ENDBRANCH  23  27
ENDBRANCH  16  19
ENDBRANCH  13  15
ENDBRANCH   4  13
BRANCH   1  29
ATOM     29  S   UNL d   1      26.047 -17.147  -0.550  0.00  0.00     0.283 S 
ATOM     30  O   UNL d   1      26.678 -18.386  -0.130  0.00  0.00    -0.198 OA
ATOM     31  O   UNL d   1      26.208 -16.601  -1.886  0.00  0.00    -0.198 OA
BRANCH  29  32
ATOM     32  C   UNL d   1      24.392 -17.644  -0.572  0.00  0.00     0.081 A 
ATOM     33  C   UNL d   1      23.443 -16.626  -0.796  0.00  0.00     0.026 A 
ATOM     34  C   UNL d   1      22.112 -16.967  -0.899  0.00  0.00     0.008 A 
ATOM     35  C   UNL d   1      21.757 -18.313  -0.777  0.00  0.00    -0.062 A 
ATOM     36  C   UNL d   1      20.327 -18.725  -0.895  0.00  0.00     0.048 C 
ATOM     37  C   UNL d   1      22.734 -19.304  -0.553  0.00  0.00     0.008 A 
ATOM     38  C   UNL d   1      24.069 -18.973  -0.450  0.00  0.00     0.026 A 
ENDBRANCH  29  32
ENDBRANCH   1  29
TORSDOF 7
ENDMDL
MODEL 7
REMARK VINA RESULT:    -8.385      3.535      6.053
REMARK INTER + INTRA:         -12.730
REMARK INTER:                 -10.473
REMARK INTRA:                  -2.257
REMARK CONF_INDEPENDENT:        2.088
REMARK UNBOUND:                -2.257
REMARK  7 active torsions:
REMARK  status: ('A' for Active; 'I' for Inactive)
REMARK    1  A    between atoms: C_5  and  S_6 
REMARK    2  A    between atoms: S_6  and  N_9 
REMARK    3  A    between atoms: C_12  and  N_13 
REMARK    4  A    between atoms: N_13  and  N_14 
REMARK       I    between atoms: N_14  and  C_15 
REMARK    5  A    between atoms: C_15  and  C_17 
REMARK    6  A    between atoms: C_19  and  O_20 
REMARK    7  A    between atoms: C_22  and  O_23 
ROOT
ATOM      1  N   UNL d   1      26.072 -15.110  -0.904  0.00  0.00    -0.160 NA
ATOM      2  C   UNL d   1      27.182 -14.435  -1.090  0.00  0.00     0.079 A 
ATOM      3  C   UNL d   1      27.077 -12.966  -1.397  0.00  0.00     0.067 A 
ATOM      4  C   UNL d   1      28.126 -12.132  -1.557  0.00  0.00     0.096 A 
ATOM      5  C   UNL d   1      29.528 -12.670  -1.474  0.00  0.00     0.206 A 
ATOM      6  O   UNL d   1      30.499 -11.922  -1.645  0.00  0.00    -0.285 OA
ATOM      7  C   UNL d   1      29.703 -14.099  -1.187  0.00  0.00     0.007 A 
ATOM      8  C   UNL d   1      28.625 -14.883  -1.026  0.00  0.00    -0.015 A 
ATOM      9  C   UNL d   1      28.856 -16.296  -0.693  0.00  0.00     0.068 C 
ATOM     10  C   UNL d   1      30.146 -16.737  -0.176  0.00  0.00    -0.026 C 
ATOM     11  C   UNL d   1      31.214 -15.961  -0.316  0.00  0.00    -0.026 C 
ATOM     12  C   UNL d   1      31.116 -14.637  -1.036  0.00  0.00     0.070 C 
ENDROOT
BRANCH   4  13
ATOM     13  N   UNL d   1      28.049 -10.761  -1.772  0.00  0.00    -0.311 N 
ATOM     14  H   UNL d   1      28.865 -10.236  -1.420  0.00  0.00     0.181 HD
BRANCH  13  15
ATOM     15  N   UNL d   1      27.217 -10.174  -2.748  0.00  0.00    -0.169 NA
ATOM     16  C   UNL d   1      27.231 -10.676  -4.044  0.00  0.00     0.249 C 
ATOM     17  O   UNL d   1      27.462  -9.932  -4.994  0.00  0.00    -0.272 OA
ATOM     18  H   UNL d   1      27.327  -9.164  -2.760  0.00  0.00     0.156 HD
BRANCH  16  19
ATOM     19  C   UNL d   1      26.792 -12.082  -4.273  0.00  0.00     0.033 A 
ATOM     20  C   UNL d   1      27.673 -12.996  -4.877  0.00  0.00     0.053 A 
ATOM     21  C   UNL d   1      27.223 -14.285  -5.170  0.00  0.00     0.069 A 
ATOM     22  C   UNL d   1      25.922 -14.681  -4.864  0.00  0.00     0.073 A 
ATOM     23  C   UNL d   1      25.063 -13.771  -4.271  0.00  0.00     0.069 A 
ATOM     24  C   UNL d   1      25.480 -12.479  -3.997  0.00  0.00     0.053 A 
BRANCH  21  25
ATOM     25  O   UNL d   1      28.028 -15.207  -5.776  0.00  0.00    -0.361 OA
ATOM     26  H   UNL d   1      28.711 -14.749  -6.293  0.00  0.00     0.217 HD
ENDBRANCH  21  25
BRANCH  23  27
ATOM     27  O   UNL d   1      23.777 -14.075  -3.943  0.00  0.00    -0.361 OA
ATOM     28  H   UNL d   1      23.184 -13.765  -4.645  0.00  0.00     0.217 HD
ENDBRANCH  23  27
ENDBRANCH  16  19
ENDBRANCH  13  15
ENDBRANCH   4  13
BRANCH   1  29
ATOM     29  S   UNL d   1      26.030 -16.714  -0.544  0.00  0.00     0.283 S 
ATOM     30  O   UNL d   1      26.428 -16.906   0.839  0.00  0.00    -0.198 OA
ATOM     31  O   UNL d   1      26.633 -17.450  -1.642  0.00  0.00    -0.198 OA
BRANCH  29  32
ATOM     32  C   UNL d   1      24.442 -17.393  -0.499  0.00  0.00     0.081 A 
ATOM     33  C   UNL d   1      23.386 -16.523  -0.840  0.00  0.00     0.026 A 
ATOM     34  C   UNL d   1      22.103 -17.021  -0.894  0.00  0.00     0.008 A 
ATOM     35  C   UNL d   1      21.900 -18.374  -0.610  0.00  0.00    -0.062 A 
ATOM     36  C   UNL d   1      20.526 -18.956  -0.671  0.00  0.00     0.048 C 
ATOM     37  C   UNL d   1      22.980 -19.215  -0.273  0.00  0.00     0.008 A 
ATOM     38  C   UNL d   1      24.269 -18.726  -0.217  0.00  0.00     0.026 A 
ENDBRANCH  29  32
ENDBRANCH   1  29
TORSDOF 7
ENDMDL
MODEL 8
REMARK VINA RESULT:    -8.029      2.454      3.727
REMARK INTER + INTRA:         -12.251
REMARK INTER:                 -10.117
REMARK INTRA:                  -2.134
REMARK CONF_INDEPENDENT:        2.088
REMARK UNBOUND:                -2.134
REMARK  7 active torsions:
REMARK  status: ('A' for Active; 'I' for Inactive)
REMARK    1  A    between atoms: C_5  and  S_6 
REMARK    2  A    between atoms: S_6  and  N_9 
REMARK    3  A    between atoms: C_12  and  N_13 
REMARK    4  A    between atoms: N_13  and  N_14 
REMARK       I    between atoms: N_14  and  C_15 
REMARK    5  A    between atoms: C_15  and  C_17 
REMARK    6  A    between atoms: C_19  and  O_20 
REMARK    7  A    between atoms: C_22  and  O_23 
ROOT
ATOM      1  N   UNL d   1      25.926 -14.944   0.080  0.00  0.00    -0.160 NA
ATOM      2  C   UNL d   1      26.964 -14.147   0.184  0.00  0.00     0.079 A 
ATOM      3  C   UNL d   1      26.717 -12.704   0.533  0.00  0.00     0.067 A 
ATOM      4  C   UNL d   1      27.682 -11.780   0.730  0.00  0.00     0.096 A 
ATOM      5  C   UNL d   1      29.126 -12.160   0.558  0.00  0.00     0.206 A 
ATOM      6  O   UNL d   1      30.020 -11.316   0.709  0.00  0.00    -0.285 OA
ATOM      7  C   UNL d   1      29.438 -13.551   0.208  0.00  0.00     0.007 A 
ATOM      8  C   UNL d   1      28.441 -14.433   0.033  0.00  0.00    -0.015 A 
ATOM      9  C   UNL d   1      28.809 -15.824  -0.269  0.00  0.00     0.068 C 
ATOM     10  C   UNL d   1      30.158 -16.311  -0.006  0.00  0.00    -0.026 C 
ATOM     11  C   UNL d   1      31.146 -15.446   0.185  0.00  0.00    -0.026 C 
ATOM     12  C   UNL d   1      30.898 -13.959   0.098  0.00  0.00     0.070 C 
ENDROOT
BRANCH   4  13
ATOM     13  N   UNL d   1      27.477 -10.462   1.120  0.00  0.00    -0.311 N 
ATOM     14  H   UNL d   1      26.737  -9.979   0.587  0.00  0.00     0.181 HD
BRANCH  13  15
ATOM     15  N   UNL d   1      27.869  -9.954   2.376  0.00  0.00    -0.169 NA
ATOM     16  C   UNL d   1      27.688 -10.734   3.511  0.00  0.00     0.249 C 
ATOM     17  O   UNL d   1      27.051 -10.299   4.468  0.00  0.00    -0.272 OA
ATOM     18  H   UNL d   1      27.492  -9.022   2.525  0.00  0.00     0.156 HD
BRANCH  16  19
ATOM     19  C   UNL d   1      28.423 -12.027   3.617  0.00  0.00     0.033 A 
ATOM     20  C   UNL d   1      27.713 -13.209   3.891  0.00  0.00     0.053 A 
ATOM     21  C   UNL d   1      28.418 -14.400   4.079  0.00  0.00     0.069 A 
ATOM     22  C   UNL d   1      29.808 -14.437   3.987  0.00  0.00     0.073 A 
ATOM     23  C   UNL d   1      30.497 -13.265   3.718  0.00  0.00     0.069 A 
ATOM     24  C   UNL d   1      29.819 -12.067   3.557  0.00  0.00     0.053 A 
BRANCH  21  25
ATOM     25  O   UNL d   1      27.783 -15.574   4.369  0.00  0.00    -0.361 OA
ATOM     26  H   UNL d   1      28.400 -16.314   4.244  0.00  0.00     0.217 HD
ENDBRANCH  21  25
BRANCH  23  27
ATOM     27  O   UNL d   1      31.853 -13.211   3.615  0.00  0.00    -0.361 OA
ATOM     28  H   UNL d   1      32.251 -13.698   4.354  0.00  0.00     0.217 HD
ENDBRANCH  23  27
ENDBRANCH  16  19
ENDBRANCH  13  15
ENDBRANCH   4  13
BRANCH   1  29
ATOM     29  S   UNL d   1      26.041 -16.546  -0.277  0.00  0.00     0.283 S 
ATOM     30  O   UNL d   1      26.635 -17.247   0.848  0.00  0.00    -0.198 OA
ATOM     31  O   UNL d   1      26.537 -16.683  -1.635  0.00  0.00    -0.198 OA
BRANCH  29  32
ATOM     32  C   UNL d   1      24.522 -17.364  -0.375  0.00  0.00     0.081 A 
ATOM     33  C   UNL d   1      23.387 -16.546  -0.546  0.00  0.00     0.026 A 
ATOM     34  C   UNL d   1      22.154 -17.140  -0.705  0.00  0.00     0.008 A 
ATOM     35  C   UNL d   1      22.080 -18.535  -0.691  0.00  0.00    -0.062 A 
ATOM     36  C   UNL d   1      20.765 -19.219  -0.874  0.00  0.00     0.048 C 
ATOM     37  C   UNL d   1      23.237 -19.323  -0.519  0.00  0.00     0.008 A 
ATOM     38  C   UNL d   1      24.475 -18.737  -0.360  0.00  0.00     0.026 A 
ENDBRANCH  29  32
ENDBRANCH   1  29
TORSDOF 7
ENDMDL
MODEL 9
REMARK VINA RESULT:    -7.858      4.458      8.096
REMARK INTER + INTRA:         -12.356
REMARK INTER:                  -9.946
REMARK INTRA:                  -2.410
REMARK CONF_INDEPENDENT:        2.088
REMARK UNBOUND:                -2.410
REMARK  7 active torsions:
REMARK  status: ('A' for Active; 'I' for Inactive)
REMARK    1  A    between atoms: C_5  and  S_6 
REMARK    2  A    between atoms: S_6  and  N_9 
REMARK    3  A    between atoms: C_12  and  N_13 
REMARK    4  A    between atoms: N_13  and  N_14 
REMARK       I    between atoms: N_14  and  C_15 
REMARK    5  A    between atoms: C_15  and  C_17 
REMARK    6  A    between atoms: C_19  and  O_20 
REMARK    7  A    between atoms: C_22  and  O_23 
ROOT
ATOM      1  N   UNL d   1      27.263 -14.795  -3.087  0.00  0.00    -0.160 NA
ATOM      2  C   UNL d   1      27.199 -15.782  -2.224  0.00  0.00     0.079 A 
ATOM      3  C   UNL d   1      28.488 -16.329  -1.675  0.00  0.00     0.067 A 
ATOM      4  C   UNL d   1      28.581 -17.300  -0.742  0.00  0.00     0.096 A 
ATOM      5  C   UNL d   1      27.333 -17.948  -0.210  0.00  0.00     0.206 A 
ATOM      6  O   UNL d   1      27.405 -18.859   0.625  0.00  0.00    -0.285 OA
ATOM      7  C   UNL d   1      26.039 -17.468  -0.711  0.00  0.00     0.007 A 
ATOM      8  C   UNL d   1      26.002 -16.492  -1.632  0.00  0.00    -0.015 A 
ATOM      9  C   UNL d   1      24.680 -16.016  -2.065  0.00  0.00     0.068 C 
ATOM     10  C   UNL d   1      23.492 -16.294  -1.268  0.00  0.00    -0.026 C 
ATOM     11  C   UNL d   1      23.524 -17.247  -0.344  0.00  0.00    -0.026 C 
ATOM     12  C   UNL d   1      24.771 -18.072  -0.130  0.00  0.00     0.070 C 
ENDROOT
BRANCH   4  13
ATOM     13  N   UNL d   1      29.759 -17.770  -0.173  0.00  0.00    -0.311 N 
ATOM     14  H   UNL d   1      29.681 -18.717   0.230  0.00  0.00     0.181 HD
BRANCH  13  15
ATOM     15  N   UNL d   1      31.034 -17.258  -0.493  0.00  0.00    -0.169 NA
ATOM     16  C   UNL d   1      31.766 -17.847  -1.516  0.00  0.00     0.249 C 
ATOM     17  O   UNL d   1      32.904 -18.260  -1.306  0.00  0.00    -0.272 OA
ATOM     18  H   UNL d   1      31.607 -17.162   0.341  0.00  0.00     0.156 HD
BRANCH  16  19
ATOM     19  C   UNL d   1      31.218 -17.812  -2.902  0.00  0.00     0.033 A 
ATOM     20  C   UNL d   1      30.687 -16.614  -3.410  0.00  0.00     0.053 A 
ATOM     21  C   UNL d   1      30.093 -16.611  -4.674  0.00  0.00     0.069 A 
ATOM     22  C   UNL d   1      30.030 -17.773  -5.442  0.00  0.00     0.073 A 
ATOM     23  C   UNL d   1      30.555 -18.949  -4.930  0.00  0.00     0.069 A 
ATOM     24  C   UNL d   1      31.123 -18.979  -3.667  0.00  0.00     0.053 A 
BRANCH  21  25
ATOM     25  O   UNL d   1      29.542 -15.482  -5.208  0.00  0.00    -0.361 OA
ATOM     26  H   UNL d   1      28.790 -15.200  -4.661  0.00  0.00     0.217 HD
ENDBRANCH  21  25
BRANCH  23  27
ATOM     27  O   UNL d   1      30.532 -20.127  -5.612  0.00  0.00    -0.361 OA
ATOM     28  H   UNL d   1      30.377 -20.855  -4.989  0.00  0.00     0.217 HD
ENDBRANCH  23  27
ENDBRANCH  16  19
ENDBRANCH  13  15
ENDBRANCH   4  13
BRANCH   1  29
ATOM     29  S   UNL d   1      25.940 -14.084  -3.758  0.00  0.00     0.283 S 
ATOM     30  O   UNL d   1      25.243 -13.314  -2.743  0.00  0.00    -0.198 OA
ATOM     31  O   UNL d   1      25.268 -15.059  -4.600  0.00  0.00    -0.198 OA
BRANCH  29  32
ATOM     32  C   UNL d   1      26.302 -12.832  -4.893  0.00  0.00     0.081 A 
ATOM     33  C   UNL d   1      27.357 -13.096  -5.790  0.00  0.00     0.026 A 
ATOM     34  C   UNL d   1      27.648 -12.169  -6.767  0.00  0.00     0.008 A 
ATOM     35  C   UNL d   1      26.881 -11.002  -6.829  0.00  0.00    -0.062 A 
ATOM     36  C   UNL d   1      27.155  -9.979  -7.881  0.00  0.00     0.048 C 
ATOM     37  C   UNL d   1      25.833 -10.773  -5.915  0.00  0.00     0.008 A 
ATOM     38  C   UNL d   1      25.533 -11.695  -4.934  0.00  0.00     0.026 A 
ENDBRANCH  29  32
ENDBRANCH   1  29
TORSDOF 7
ENDMDL
