MODEL 1
REMARK VINA RESULT:    -9.531      0.000      0.000
REMARK INTER + INTRA:         -12.667
REMARK INTER:                 -11.320
REMARK INTRA:                  -1.347
REMARK CONF_INDEPENDENT:        1.790
REMARK UNBOUND:                -1.347
REMARK  6 active torsions:
REMARK  status: ('A' for Active; 'I' for Inactive)
REMARK    1  A    between atoms: C_2  and  C_3 
REMARK       I    between atoms: C_2  and  N_22 
REMARK    2  A    between atoms: C_3  and  O_4 
REMARK    3  A    between atoms: O_4  and  C_5 
REMARK    4  A    between atoms: C_5  and  C_7 
REMARK       I    between atoms: N_10  and  C_11 
REMARK    5  A    between atoms: C_11  and  C_13 
REMARK    6  A    between atoms: N_22  and  C_23 
ROOT
ATOM      1  O   UNL d   1      28.859 -14.529  -4.541  0.00  0.00    -0.312 OA
ENDROOT
BRANCH   1   2
ATOM      2  C   UNL d   1      29.607 -13.735  -5.448  0.00  0.00     0.281 C 
BRANCH   2   3
ATOM      3  C   UNL d   1      29.580 -14.251  -6.914  0.00  0.00     0.246 C 
ATOM      4  O   UNL d   1      30.135 -15.294  -7.267  0.00  0.00    -0.271 OA
ATOM      5  N   UNL d   1      28.833 -13.541  -7.838  0.00  0.00    -0.325 N 
ATOM      6  H   UNL d   1      28.647 -14.041  -8.702  0.00  0.00     0.169 HD
BRANCH   5   7
ATOM      7  C   UNL d   1      28.184 -12.316  -7.616  0.00  0.00     0.037 A 
ATOM      8  C   UNL d   1      28.511 -11.201  -8.419  0.00  0.00     0.032 A 
ATOM      9  C   UNL d   1      27.815  -9.986  -8.280  0.00  0.00     0.034 A 
ATOM     10  C   UNL d   1      26.836  -9.932  -7.314  0.00  0.00     0.063 A 
ATOM     11  N   UNL d   1      25.995  -8.895  -6.931  0.00  0.00    -0.307 N 
ATOM     12  C   UNL d   1      26.552 -11.019  -6.499  0.00  0.00     0.065 A 
ATOM     13  C   UNL d   1      25.184  -9.336  -5.874  0.00  0.00     0.325 A 
ATOM     14  H   UNL d   1      25.959  -7.962  -7.308  0.00  0.00     0.170 HD
ATOM     15  O   UNL d   1      24.334  -8.687  -5.282  0.00  0.00    -0.247 OA
ATOM     16  N   UNL d   1      25.538 -10.665  -5.622  0.00  0.00    -0.306 N 
ATOM     17  H   UNL d   1      25.107 -11.240  -4.917  0.00  0.00     0.170 HD
ATOM     18  C   UNL d   1      27.223 -12.205  -6.605  0.00  0.00     0.061 A 
ENDBRANCH   5   7
ENDBRANCH   2   3
ENDBRANCH   1   2
BRANCH   1  19
ATOM     19  C   UNL d   1      27.517 -14.665  -4.748  0.00  0.00     0.263 C 
ATOM     20  O   UNL d   1      27.020 -15.220  -5.718  0.00  0.00    -0.265 OA
BRANCH  19  21
ATOM     21  C   UNL d   1      26.729 -14.002  -3.607  0.00  0.00     0.088 C 
ATOM     22  C   UNL d   1      27.446 -14.044  -2.240  0.00  0.00     0.034 C 
ATOM     23  C   UNL d   1      27.544 -15.473  -1.695  0.00  0.00     0.127 C 
ATOM     24  N   UNL d   1      26.216 -16.104  -1.667  0.00  0.00    -0.348 N 
ATOM     25  C   UNL d   1      25.684 -16.640  -0.496  0.00  0.00     0.253 C 
ATOM     26  C   UNL d   1      25.526 -16.115  -2.943  0.00  0.00     0.127 C 
ATOM     27  O   UNL d   1      26.240 -16.566   0.595  0.00  0.00    -0.267 OA
ATOM     28  C   UNL d   1      25.360 -14.687  -3.473  0.00  0.00     0.034 C 
BRANCH  25  29
ATOM     29  C   UNL d   1      24.354 -17.314  -0.560  0.00  0.00     0.032 A 
ATOM     30  C   UNL d   1      24.239 -18.703  -0.395  0.00  0.00     0.018 A 
ATOM     31  C   UNL d   1      22.993 -19.326  -0.520  0.00  0.00     0.025 A 
ATOM     32  C   UNL d   1      21.857 -18.558  -0.771  0.00  0.00     0.034 A 
ATOM     33 CL   UNL d   1      20.326 -19.325  -0.931  0.00  0.00    -0.084 Cl
ATOM     34  C   UNL d   1      21.957 -17.171  -0.894  0.00  0.00     0.025 A 
ATOM     35  C   UNL d   1      23.206 -16.547  -0.789  0.00  0.00     0.018 A 
ENDBRANCH  25  29
ENDBRANCH  19  21
ENDBRANCH   1  19
TORSDOF 6
ENDMDL
MODEL 2
REMARK VINA RESULT:    -9.478      3.548      6.180
REMARK INTER + INTRA:         -12.255
REMARK INTER:                 -11.268
REMARK INTRA:                  -0.987
REMARK CONF_INDEPENDENT:        1.790
REMARK UNBOUND:                -0.987
REMARK  6 active torsions:
REMARK  status: ('A' for Active; 'I' for Inactive)
REMARK    1  A    between atoms: C_2  and  C_3 
REMARK       I    between atoms: C_2  and  N_22 
REMARK    2  A    between atoms: C_3  and  O_4 
REMARK    3  A    between atoms: O_4  and  C_5 
REMARK    4  A    between atoms: C_5  and  C_7 
REMARK       I    between atoms: N_10  and  C_11 
REMARK    5  A    between atoms: C_11  and  C_13 
REMARK    6  A    between atoms: N_22  and  C_23 
ROOT
ATOM      1  O   UNL d   1      28.641 -14.375  -5.165  0.00  0.00    -0.312 OA
ENDROOT
BRANCH   1   2
ATOM      2  C   UNL d   1      29.571 -15.435  -5.317  0.00  0.00     0.281 C 
BRANCH   2   3
ATOM      3  C   UNL d   1      30.547 -15.257  -6.513  0.00  0.00     0.246 C 
ATOM      4  O   UNL d   1      30.781 -14.161  -7.028  0.00  0.00    -0.271 OA
ATOM      5  N   UNL d   1      31.236 -16.371  -6.960  0.00  0.00    -0.325 N 
ATOM      6  H   UNL d   1      32.026 -16.163  -7.563  0.00  0.00     0.169 HD
BRANCH   5   7
ATOM      7  C   UNL d   1      31.054 -17.691  -6.519  0.00  0.00     0.037 A 
ATOM      8  C   UNL d   1      30.779 -18.707  -7.462  0.00  0.00     0.032 A 
ATOM      9  C   UNL d   1      30.680 -20.052  -7.063  0.00  0.00     0.034 A 
ATOM     10  C   UNL d   1      30.833 -20.319  -5.721  0.00  0.00     0.063 A 
ATOM     11  N   UNL d   1      30.781 -21.520  -5.023  0.00  0.00    -0.307 N 
ATOM     12  C   UNL d   1      31.059 -19.310  -4.796  0.00  0.00     0.065 A 
ATOM     13  C   UNL d   1      30.976 -21.258  -3.659  0.00  0.00     0.325 A 
ATOM     14  H   UNL d   1      30.612 -22.440  -5.395  0.00  0.00     0.170 HD
ATOM     15  O   UNL d   1      30.984 -22.075  -2.749  0.00  0.00    -0.247 OA
ATOM     16  N   UNL d   1      31.155 -19.877  -3.534  0.00  0.00    -0.306 N 
ATOM     17  H   UNL d   1      31.327 -19.407  -2.660  0.00  0.00     0.170 HD
ATOM     18  C   UNL d   1      31.144 -17.995  -5.157  0.00  0.00     0.061 A 
ENDBRANCH   5   7
ENDBRANCH   2   3
ENDBRANCH   1   2
BRANCH   1  19
ATOM     19  C   UNL d   1      27.319 -14.684  -5.019  0.00  0.00     0.263 C 
ATOM     20  O   UNL d   1      26.674 -15.354  -5.812  0.00  0.00    -0.265 OA
BRANCH  19  21
ATOM     21  C   UNL d   1      26.760 -14.050  -3.735  0.00  0.00     0.088 C 
ATOM     22  C   UNL d   1      27.654 -14.250  -2.493  0.00  0.00     0.034 C 
ATOM     23  C   UNL d   1      27.702 -15.719  -2.060  0.00  0.00     0.127 C 
ATOM     24  N   UNL d   1      26.340 -16.245  -1.878  0.00  0.00    -0.348 N 
ATOM     25  C   UNL d   1      25.933 -16.825  -0.679  0.00  0.00     0.253 C 
ATOM     26  C   UNL d   1      25.481 -16.107  -3.039  0.00  0.00     0.127 C 
ATOM     27  O   UNL d   1      26.640 -16.876   0.323  0.00  0.00    -0.267 OA
ATOM     28  C   UNL d   1      25.368 -14.634  -3.447  0.00  0.00     0.034 C 
BRANCH  25  29
ATOM     29  C   UNL d   1      24.553 -17.387  -0.591  0.00  0.00     0.032 A 
ATOM     30  C   UNL d   1      24.340 -18.773  -0.520  0.00  0.00     0.018 A 
ATOM     31  C   UNL d   1      23.038 -19.284  -0.500  0.00  0.00     0.025 A 
ATOM     32  C   UNL d   1      21.951 -18.411  -0.514  0.00  0.00     0.034 A 
ATOM     33 CL   UNL d   1      20.350 -19.042  -0.497  0.00  0.00    -0.084 Cl
ATOM     34  C   UNL d   1      22.155 -17.031  -0.542  0.00  0.00     0.025 A 
ATOM     35  C   UNL d   1      23.457 -16.516  -0.581  0.00  0.00     0.018 A 
ENDBRANCH  25  29
ENDBRANCH  19  21
ENDBRANCH   1  19
TORSDOF 6
ENDMDL
MODEL 3
REMARK VINA RESULT:    -9.032      2.811      3.794
REMARK INTER + INTRA:         -11.871
REMARK INTER:                 -10.822
REMARK INTRA:                  -1.049
REMARK CONF_INDEPENDENT:        1.790
REMARK UNBOUND:                -1.049
REMARK  6 active torsions:
REMARK  status: ('A' for Active; 'I' for Inactive)
REMARK    1  A    between atoms: C_2  and  C_3 
REMARK       I    between atoms: C_2  and  N_22 
REMARK    2  A    between atoms: C_3  and  O_4 
REMARK    3  A    between atoms: O_4  and  C_5 
REMARK    4  A    between atoms: C_5  and  C_7 
REMARK       I    between atoms: N_10  and  C_11 
REMARK    5  A    between atoms: C_11  and  C_13 
REMARK    6  A    between atoms: N_22  and  C_23 
ROOT
ATOM      1  O   UNL d   1      27.403 -13.095  -5.914  0.00  0.00    -0.312 OA
ENDROOT
BRANCH   1   2
ATOM      2  C   UNL d   1      27.357 -11.768  -5.414  0.00  0.00     0.281 C 
BRANCH   2   3
ATOM      3  C   UNL d   1      26.315 -10.859  -6.122  0.00  0.00     0.246 C 
ATOM      4  O   UNL d   1      25.896 -11.081  -7.261  0.00  0.00    -0.271 OA
ATOM      5  N   UNL d   1      25.782  -9.801  -5.405  0.00  0.00    -0.325 N 
ATOM      6  H   UNL d   1      24.945  -9.396  -5.812  0.00  0.00     0.169 HD
BRANCH   5   7
ATOM      7  C   UNL d   1      26.180  -9.383  -4.125  0.00  0.00     0.037 A 
ATOM      8  C   UNL d   1      27.555  -9.326  -3.809  0.00  0.00     0.032 A 
ATOM      9  C   UNL d   1      27.988  -8.827  -2.566  0.00  0.00     0.034 A 
ATOM     10  C   UNL d   1      27.014  -8.431  -1.678  0.00  0.00     0.063 A 
ATOM     11  N   UNL d   1      27.115  -7.915  -0.391  0.00  0.00    -0.307 N 
ATOM     12  C   UNL d   1      25.664  -8.532  -1.980  0.00  0.00     0.065 A 
ATOM     13  C   UNL d   1      25.823  -7.693   0.109  0.00  0.00     0.325 A 
ATOM     14  H   UNL d   1      27.954  -7.737   0.136  0.00  0.00     0.170 HD
ATOM     15  O   UNL d   1      25.529  -7.254   1.212  0.00  0.00    -0.247 OA
ATOM     16  N   UNL d   1      24.930  -8.075  -0.896  0.00  0.00    -0.306 N 
ATOM     17  H   UNL d   1      23.928  -8.012  -0.814  0.00  0.00     0.170 HD
ATOM     18  C   UNL d   1      25.218  -9.027  -3.173  0.00  0.00     0.061 A 
ENDBRANCH   5   7
ENDBRANCH   2   3
ENDBRANCH   1   2
BRANCH   1  19
ATOM     19  C   UNL d   1      27.069 -14.119  -5.075  0.00  0.00     0.263 C 
ATOM     20  O   UNL d   1      27.228 -15.304  -5.333  0.00  0.00    -0.265 OA
BRANCH  19  21
ATOM     21  C   UNL d   1      26.444 -13.571  -3.783  0.00  0.00     0.088 C 
ATOM     22  C   UNL d   1      27.351 -13.701  -2.540  0.00  0.00     0.034 C 
ATOM     23  C   UNL d   1      27.548 -15.166  -2.135  0.00  0.00     0.127 C 
ATOM     24  N   UNL d   1      26.247 -15.832  -1.969  0.00  0.00    -0.348 N 
ATOM     25  C   UNL d   1      25.899 -16.474  -0.783  0.00  0.00     0.253 C 
ATOM     26  C   UNL d   1      25.381 -15.761  -3.131  0.00  0.00     0.127 C 
ATOM     27  O   UNL d   1      26.605 -16.472   0.221  0.00  0.00    -0.267 OA
ATOM     28  C   UNL d   1      25.119 -14.300  -3.512  0.00  0.00     0.034 C 
BRANCH  25  29
ATOM     29  C   UNL d   1      24.584 -17.177  -0.712  0.00  0.00     0.032 A 
ATOM     30  C   UNL d   1      23.378 -16.468  -0.832  0.00  0.00     0.018 A 
ATOM     31  C   UNL d   1      22.155 -17.134  -0.701  0.00  0.00     0.025 A 
ATOM     32  C   UNL d   1      22.136 -18.512  -0.488  0.00  0.00     0.034 A 
ATOM     33 CL   UNL d   1      20.630 -19.328  -0.321  0.00  0.00    -0.084 Cl
ATOM     34  C   UNL d   1      23.330 -19.230  -0.410  0.00  0.00     0.025 A 
ATOM     35  C   UNL d   1      24.556 -18.563  -0.522  0.00  0.00     0.018 A 
ENDBRANCH  25  29
ENDBRANCH  19  21
ENDBRANCH   1  19
TORSDOF 6
ENDMDL
MODEL 4
REMARK VINA RESULT:    -8.918      2.663      5.234
REMARK INTER + INTRA:         -12.431
REMARK INTER:                 -10.708
REMARK INTRA:                  -1.723
REMARK CONF_INDEPENDENT:        1.790
REMARK UNBOUND:                -1.723
REMARK  6 active torsions:
REMARK  status: ('A' for Active; 'I' for Inactive)
REMARK    1  A    between atoms: C_2  and  C_3 
REMARK       I    between atoms: C_2  and  N_22 
REMARK    2  A    between atoms: C_3  and  O_4 
REMARK    3  A    between atoms: O_4  and  C_5 
REMARK    4  A    between atoms: C_5  and  C_7 
REMARK       I    between atoms: N_10  and  C_11 
REMARK    5  A    between atoms: C_11  and  C_13 
REMARK    6  A    between atoms: N_22  and  C_23 
ROOT
ATOM      1  O   UNL d   1      27.397 -13.416  -6.139  0.00  0.00    -0.312 OA
ENDROOT
BRANCH   1   2
ATOM      2  C   UNL d   1      28.547 -13.540  -6.961  0.00  0.00     0.281 C 
BRANCH   2   3
ATOM      3  C   UNL d   1      29.834 -12.918  -6.352  0.00  0.00     0.246 C 
ATOM      4  O   UNL d   1      30.043 -11.703  -6.326  0.00  0.00    -0.271 OA
ATOM      5  N   UNL d   1      30.742 -13.770  -5.745  0.00  0.00    -0.325 N 
ATOM      6  H   UNL d   1      31.427 -13.304  -5.157  0.00  0.00     0.169 HD
BRANCH   5   7
ATOM      7  C   UNL d   1      30.681 -15.172  -5.728  0.00  0.00     0.037 A 
ATOM      8  C   UNL d   1      30.272 -15.835  -4.549  0.00  0.00     0.032 A 
ATOM      9  C   UNL d   1      30.116 -17.233  -4.527  0.00  0.00     0.034 A 
ATOM     10  C   UNL d   1      30.406 -17.913  -5.687  0.00  0.00     0.063 A 
ATOM     11  N   UNL d   1      30.363 -19.271  -5.979  0.00  0.00    -0.307 N 
ATOM     12  C   UNL d   1      30.850 -17.258  -6.828  0.00  0.00     0.065 A 
ATOM     13  C   UNL d   1      30.779 -19.463  -7.305  0.00  0.00     0.325 A 
ATOM     14  H   UNL d   1      30.103 -20.024  -5.363  0.00  0.00     0.170 HD
ATOM     15  O   UNL d   1      30.874 -20.529  -7.897  0.00  0.00    -0.247 OA
ATOM     16  N   UNL d   1      31.072 -18.198  -7.823  0.00  0.00    -0.306 N 
ATOM     17  H   UNL d   1      31.386 -18.033  -8.766  0.00  0.00     0.170 HD
ATOM     18  C   UNL d   1      31.023 -15.903  -6.869  0.00  0.00     0.061 A 
ENDBRANCH   5   7
ENDBRANCH   2   3
ENDBRANCH   1   2
BRANCH   1  19
ATOM     19  C   UNL d   1      27.156 -14.383  -5.205  0.00  0.00     0.263 C 
ATOM     20  O   UNL d   1      27.371 -15.575  -5.373  0.00  0.00    -0.265 OA
BRANCH  19  21
ATOM     21  C   UNL d   1      26.556 -13.762  -3.934  0.00  0.00     0.088 C 
ATOM     22  C   UNL d   1      27.472 -13.856  -2.695  0.00  0.00     0.034 C 
ATOM     23  C   UNL d   1      27.640 -15.305  -2.224  0.00  0.00     0.127 C 
ATOM     24  N   UNL d   1      26.327 -15.934  -2.017  0.00  0.00    -0.348 N 
ATOM     25  C   UNL d   1      25.976 -16.513  -0.800  0.00  0.00     0.253 C 
ATOM     26  C   UNL d   1      25.452 -15.896  -3.174  0.00  0.00     0.127 C 
ATOM     27  O   UNL d   1      26.691 -16.480   0.197  0.00  0.00    -0.267 OA
ATOM     28  C   UNL d   1      25.218 -14.449  -3.619  0.00  0.00     0.034 C 
BRANCH  25  29
ATOM     29  C   UNL d   1      24.646 -17.182  -0.686  0.00  0.00     0.032 A 
ATOM     30  C   UNL d   1      24.549 -18.572  -0.520  0.00  0.00     0.018 A 
ATOM     31  C   UNL d   1      23.294 -19.189  -0.477  0.00  0.00     0.025 A 
ATOM     32  C   UNL d   1      22.138 -18.414  -0.562  0.00  0.00     0.034 A 
ATOM     33 CL   UNL d   1      20.595 -19.175  -0.515  0.00  0.00    -0.084 Cl
ATOM     34  C   UNL d   1      22.227 -17.027  -0.684  0.00  0.00     0.025 A 
ATOM     35  C   UNL d   1      23.482 -16.408  -0.746  0.00  0.00     0.018 A 
ENDBRANCH  25  29
ENDBRANCH  19  21
ENDBRANCH   1  19
TORSDOF 6
ENDMDL
MODEL 5
REMARK VINA RESULT:    -8.764      1.722      2.129
REMARK INTER + INTRA:         -12.039
REMARK INTER:                 -10.554
REMARK INTRA:                  -1.485
REMARK CONF_INDEPENDENT:        1.790
REMARK UNBOUND:                -1.485
REMARK  6 active torsions:
REMARK  status: ('A' for Active; 'I' for Inactive)
REMARK    1  A    between atoms: C_2  and  C_3 
REMARK       I    between atoms: C_2  and  N_22 
REMARK    2  A    between atoms: C_3  and  O_4 
REMARK    3  A    between atoms: O_4  and  C_5 
REMARK    4  A    between atoms: C_5  and  C_7 
REMARK       I    between atoms: N_10  and  C_11 
REMARK    5  A    between atoms: C_11  and  C_13 
REMARK    6  A    between atoms: N_22  and  C_23 
ROOT
ATOM      1  O   UNL d   1      27.256 -13.276  -6.064  0.00  0.00    -0.312 OA
ENDROOT
BRANCH   1   2
ATOM      2  C   UNL d   1      28.592 -13.073  -6.496  0.00  0.00     0.281 C 
BRANCH   2   3
ATOM      3  C   UNL d   1      28.725 -12.154  -7.741  0.00  0.00     0.246 C 
ATOM      4  O   UNL d   1      29.363 -12.475  -8.746  0.00  0.00    -0.271 OA
ATOM      5  N   UNL d   1      28.027 -10.958  -7.742  0.00  0.00    -0.325 N 
ATOM      6  H   UNL d   1      27.947 -10.518  -8.654  0.00  0.00     0.169 HD
BRANCH   5   7
ATOM      7  C   UNL d   1      27.297 -10.422  -6.669  0.00  0.00     0.037 A 
ATOM      8  C   UNL d   1      25.939 -10.079  -6.856  0.00  0.00     0.032 A 
ATOM      9  C   UNL d   1      25.158  -9.624  -5.778  0.00  0.00     0.034 A 
ATOM     10  C   UNL d   1      25.783  -9.504  -4.558  0.00  0.00     0.063 A 
ATOM     11  N   UNL d   1      25.298  -9.080  -3.327  0.00  0.00    -0.307 N 
ATOM     12  C   UNL d   1      27.128  -9.801  -4.394  0.00  0.00     0.065 A 
ATOM     13  C   UNL d   1      26.343  -9.115  -2.392  0.00  0.00     0.325 A 
ATOM     14  H   UNL d   1      24.364  -8.772  -3.107  0.00  0.00     0.170 HD
ATOM     15  O   UNL d   1      26.283  -8.800  -1.212  0.00  0.00    -0.247 OA
ATOM     16  N   UNL d   1      27.476  -9.573  -3.071  0.00  0.00    -0.306 N 
ATOM     17  H   UNL d   1      28.377  -9.707  -2.640  0.00  0.00     0.170 HD
ATOM     18  C   UNL d   1      27.912 -10.231  -5.428  0.00  0.00     0.061 A 
ENDBRANCH   5   7
ENDBRANCH   2   3
ENDBRANCH   1   2
BRANCH   1  19
ATOM     19  C   UNL d   1      27.007 -14.265  -5.156  0.00  0.00     0.263 C 
ATOM     20  O   UNL d   1      27.229 -15.452  -5.348  0.00  0.00    -0.265 OA
BRANCH  19  21
ATOM     21  C   UNL d   1      26.390 -13.675  -3.878  0.00  0.00     0.088 C 
ATOM     22  C   UNL d   1      27.308 -13.756  -2.640  0.00  0.00     0.034 C 
ATOM     23  C   UNL d   1      27.518 -15.205  -2.185  0.00  0.00     0.127 C 
ATOM     24  N   UNL d   1      26.223 -15.873  -1.985  0.00  0.00    -0.348 N 
ATOM     25  C   UNL d   1      25.888 -16.474  -0.774  0.00  0.00     0.253 C 
ATOM     26  C   UNL d   1      25.347 -15.848  -3.141  0.00  0.00     0.127 C 
ATOM     27  O   UNL d   1      26.603 -16.433   0.223  0.00  0.00    -0.267 OA
ATOM     28  C   UNL d   1      25.072 -14.403  -3.570  0.00  0.00     0.034 C 
BRANCH  25  29
ATOM     29  C   UNL d   1      24.579 -17.182  -0.667  0.00  0.00     0.032 A 
ATOM     30  C   UNL d   1      24.520 -18.577  -0.527  0.00  0.00     0.018 A 
ATOM     31  C   UNL d   1      23.283 -19.229  -0.491  0.00  0.00     0.025 A 
ATOM     32  C   UNL d   1      22.106 -18.485  -0.556  0.00  0.00     0.034 A 
ATOM     33 CL   UNL d   1      20.585 -19.289  -0.518  0.00  0.00    -0.084 Cl
ATOM     34  C   UNL d   1      22.156 -17.094  -0.652  0.00  0.00     0.025 A 
ATOM     35  C   UNL d   1      23.393 -16.440  -0.708  0.00  0.00     0.018 A 
ENDBRANCH  25  29
ENDBRANCH  19  21
ENDBRANCH   1  19
TORSDOF 6
ENDMDL
MODEL 6
REMARK VINA RESULT:    -8.724      1.465      2.081
REMARK INTER + INTRA:         -12.075
REMARK INTER:                 -10.514
REMARK INTRA:                  -1.561
REMARK CONF_INDEPENDENT:        1.790
REMARK UNBOUND:                -1.561
REMARK  6 active torsions:
REMARK  status: ('A' for Active; 'I' for Inactive)
REMARK    1  A    between atoms: C_2  and  C_3 
REMARK       I    between atoms: C_2  and  N_22 
REMARK    2  A    between atoms: C_3  and  O_4 
REMARK    3  A    between atoms: O_4  and  C_5 
REMARK    4  A    between atoms: C_5  and  C_7 
REMARK       I    between atoms: N_10  and  C_11 
REMARK    5  A    between atoms: C_11  and  C_13 
REMARK    6  A    between atoms: N_22  and  C_23 
ROOT
ATOM      1  O   UNL d   1      27.056 -13.487  -5.976  0.00  0.00    -0.312 OA
ENDROOT
BRANCH   1   2
ATOM      2  C   UNL d   1      28.258 -13.103  -6.625  0.00  0.00     0.281 C 
BRANCH   2   3
ATOM      3  C   UNL d   1      29.387 -12.653  -5.657  0.00  0.00     0.246 C 
ATOM      4  O   UNL d   1      30.510 -13.162  -5.655  0.00  0.00    -0.271 OA
ATOM      5  N   UNL d   1      29.133 -11.580  -4.818  0.00  0.00    -0.325 N 
ATOM      6  H   UNL d   1      29.961 -11.174  -4.393  0.00  0.00     0.169 HD
BRANCH   5   7
ATOM      7  C   UNL d   1      27.903 -10.922  -4.661  0.00  0.00     0.037 A 
ATOM      8  C   UNL d   1      27.340 -10.802  -3.371  0.00  0.00     0.032 A 
ATOM      9  C   UNL d   1      26.154 -10.072  -3.169  0.00  0.00     0.034 A 
ATOM     10  C   UNL d   1      25.565  -9.515  -4.281  0.00  0.00     0.063 A 
ATOM     11  N   UNL d   1      24.405  -8.761  -4.413  0.00  0.00    -0.307 N 
ATOM     12  C   UNL d   1      26.101  -9.677  -5.551  0.00  0.00     0.065 A 
ATOM     13  C   UNL d   1      24.219  -8.450  -5.768  0.00  0.00     0.325 A 
ATOM     14  H   UNL d   1      23.768  -8.482  -3.685  0.00  0.00     0.170 HD
ATOM     15  O   UNL d   1      23.299  -7.808  -6.254  0.00  0.00    -0.247 OA
ATOM     16  N   UNL d   1      25.289  -9.022  -6.464  0.00  0.00    -0.306 N 
ATOM     17  H   UNL d   1      25.419  -8.947  -7.460  0.00  0.00     0.170 HD
ATOM     18  C   UNL d   1      27.243 -10.393  -5.775  0.00  0.00     0.061 A 
ENDBRANCH   5   7
ENDBRANCH   2   3
ENDBRANCH   1   2
BRANCH   1  19
ATOM     19  C   UNL d   1      27.121 -14.429  -4.990  0.00  0.00     0.263 C 
ATOM     20  O   UNL d   1      27.534 -15.569  -5.149  0.00  0.00    -0.265 OA
BRANCH  19  21
ATOM     21  C   UNL d   1      26.579 -13.861  -3.669  0.00  0.00     0.088 C 
ATOM     22  C   UNL d   1      27.513 -14.078  -2.460  0.00  0.00     0.034 C 
ATOM     23  C   UNL d   1      27.617 -15.560  -2.083  0.00  0.00     0.127 C 
ATOM     24  N   UNL d   1      26.278 -16.135  -1.885  0.00  0.00    -0.348 N 
ATOM     25  C   UNL d   1      25.922 -16.771  -0.699  0.00  0.00     0.253 C 
ATOM     26  C   UNL d   1      25.383 -15.981  -3.017  0.00  0.00     0.127 C 
ATOM     27  O   UNL d   1      26.658 -16.837   0.281  0.00  0.00    -0.267 OA
ATOM     28  C   UNL d   1      25.214 -14.499  -3.366  0.00  0.00     0.034 C 
BRANCH  25  29
ATOM     29  C   UNL d   1      24.563 -17.379  -0.595  0.00  0.00     0.032 A 
ATOM     30  C   UNL d   1      24.397 -18.770  -0.520  0.00  0.00     0.018 A 
ATOM     31  C   UNL d   1      23.113 -19.325  -0.486  0.00  0.00     0.025 A 
ATOM     32  C   UNL d   1      21.998 -18.490  -0.489  0.00  0.00     0.034 A 
ATOM     33 CL   UNL d   1      20.419 -19.174  -0.453  0.00  0.00    -0.084 Cl
ATOM     34  C   UNL d   1      22.155 -17.103  -0.520  0.00  0.00     0.025 A 
ATOM     35  C   UNL d   1      23.439 -16.545  -0.574  0.00  0.00     0.018 A 
ENDBRANCH  25  29
ENDBRANCH  19  21
ENDBRANCH   1  19
TORSDOF 6
ENDMDL
MODEL 7
REMARK VINA RESULT:    -8.320      3.130      5.281
REMARK INTER + INTRA:         -12.137
REMARK INTER:                 -10.110
REMARK INTRA:                  -2.027
REMARK CONF_INDEPENDENT:        1.790
REMARK UNBOUND:                -2.027
REMARK  6 active torsions:
REMARK  status: ('A' for Active; 'I' for Inactive)
REMARK    1  A    between atoms: C_2  and  C_3 
REMARK       I    between atoms: C_2  and  N_22 
REMARK    2  A    between atoms: C_3  and  O_4 
REMARK    3  A    between atoms: O_4  and  C_5 
REMARK    4  A    between atoms: C_5  and  C_7 
REMARK       I    between atoms: N_10  and  C_11 
REMARK    5  A    between atoms: C_11  and  C_13 
REMARK    6  A    between atoms: N_22  and  C_23 
ROOT
ATOM      1  O   UNL d   1      28.333 -13.756  -5.677  0.00  0.00    -0.312 OA
ENDROOT
BRANCH   1   2
ATOM      2  C   UNL d   1      29.628 -14.145  -5.245  0.00  0.00     0.281 C 
BRANCH   2   3
ATOM      3  C   UNL d   1      30.106 -15.507  -5.819  0.00  0.00     0.246 C 
ATOM      4  O   UNL d   1      30.216 -15.723  -7.028  0.00  0.00    -0.271 OA
ATOM      5  N   UNL d   1      30.495 -16.488  -4.923  0.00  0.00    -0.325 N 
ATOM      6  H   UNL d   1      31.022 -17.251  -5.338  0.00  0.00     0.169 HD
BRANCH   5   7
ATOM      7  C   UNL d   1      30.389 -16.425  -3.525  0.00  0.00     0.037 A 
ATOM      8  C   UNL d   1      29.694 -17.443  -2.834  0.00  0.00     0.032 A 
ATOM      9  C   UNL d   1      29.646 -17.455  -1.428  0.00  0.00     0.034 A 
ATOM     10  C   UNL d   1      30.275 -16.422  -0.772  0.00  0.00     0.063 A 
ATOM     11  N   UNL d   1      30.396 -16.149   0.585  0.00  0.00    -0.307 N 
ATOM     12  C   UNL d   1      30.917 -15.402  -1.459  0.00  0.00     0.065 A 
ATOM     13  C   UNL d   1      31.116 -14.955   0.744  0.00  0.00     0.325 A 
ATOM     14  H   UNL d   1      30.024 -16.682   1.355  0.00  0.00     0.170 HD
ATOM     15  O   UNL d   1      31.403 -14.406   1.798  0.00  0.00    -0.247 OA
ATOM     16  N   UNL d   1      31.440 -14.506  -0.540  0.00  0.00    -0.306 N 
ATOM     17  H   UNL d   1      31.970 -13.670  -0.728  0.00  0.00     0.170 HD
ATOM     18  C   UNL d   1      30.965 -15.360  -2.824  0.00  0.00     0.061 A 
ENDBRANCH   5   7
ENDBRANCH   2   3
ENDBRANCH   1   2
BRANCH   1  19
ATOM     19  C   UNL d   1      27.262 -14.505  -5.283  0.00  0.00     0.263 C 
ATOM     20  O   UNL d   1      26.945 -15.575  -5.782  0.00  0.00    -0.265 OA
BRANCH  19  21
ATOM     21  C   UNL d   1      26.505 -13.799  -4.147  0.00  0.00     0.088 C 
ATOM     22  C   UNL d   1      27.317 -13.659  -2.841  0.00  0.00     0.034 C 
ATOM     23  C   UNL d   1      27.569 -15.019  -2.182  0.00  0.00     0.127 C 
ATOM     24  N   UNL d   1      26.302 -15.742  -1.995  0.00  0.00    -0.348 N 
ATOM     25  C   UNL d   1      25.900 -16.205  -0.745  0.00  0.00     0.253 C 
ATOM     26  C   UNL d   1      25.529 -15.925  -3.209  0.00  0.00     0.127 C 
ATOM     27  O   UNL d   1      26.523 -15.987   0.290  0.00  0.00    -0.267 OA
ATOM     28  C   UNL d   1      25.209 -14.569  -3.847  0.00  0.00     0.034 C 
BRANCH  25  29
ATOM     29  C   UNL d   1      24.628 -16.980  -0.646  0.00  0.00     0.032 A 
ATOM     30  C   UNL d   1      24.639 -18.351  -0.346  0.00  0.00     0.018 A 
ATOM     31  C   UNL d   1      23.442 -19.074  -0.319  0.00  0.00     0.025 A 
ATOM     32  C   UNL d   1      22.233 -18.421  -0.554  0.00  0.00     0.034 A 
ATOM     33 CL   UNL d   1      20.762 -19.314  -0.527  0.00  0.00    -0.084 Cl
ATOM     34  C   UNL d   1      22.210 -17.050  -0.811  0.00  0.00     0.025 A 
ATOM     35  C   UNL d   1      23.409 -16.327  -0.858  0.00  0.00     0.018 A 
ENDBRANCH  25  29
ENDBRANCH  19  21
ENDBRANCH   1  19
TORSDOF 6
ENDMDL
MODEL 8
REMARK VINA RESULT:    -7.938      2.941      5.139
REMARK INTER + INTRA:         -12.310
REMARK INTER:                  -9.728
REMARK INTRA:                  -2.582
REMARK CONF_INDEPENDENT:        1.790
REMARK UNBOUND:                -2.582
REMARK  6 active torsions:
REMARK  status: ('A' for Active; 'I' for Inactive)
REMARK    1  A    between atoms: C_2  and  C_3 
REMARK       I    between atoms: C_2  and  N_22 
REMARK    2  A    between atoms: C_3  and  O_4 
REMARK    3  A    between atoms: O_4  and  C_5 
REMARK    4  A    between atoms: C_5  and  C_7 
REMARK       I    between atoms: N_10  and  C_11 
REMARK    5  A    between atoms: C_11  and  C_13 
REMARK    6  A    between atoms: N_22  and  C_23 
ROOT
ATOM      1  O   UNL d   1      28.355 -13.285  -5.628  0.00  0.00    -0.312 OA
ENDROOT
BRANCH   1   2
ATOM      2  C   UNL d   1      29.662 -13.607  -5.180  0.00  0.00     0.281 C 
BRANCH   2   3
ATOM      3  C   UNL d   1      30.290 -14.840  -5.888  0.00  0.00     0.246 C 
ATOM      4  O   UNL d   1      30.540 -14.864  -7.095  0.00  0.00    -0.271 OA
ATOM      5  N   UNL d   1      30.651 -15.923  -5.105  0.00  0.00    -0.325 N 
ATOM      6  H   UNL d   1      31.268 -16.586  -5.564  0.00  0.00     0.169 HD
BRANCH   5   7
ATOM      7  C   UNL d   1      30.396 -16.078  -3.733  0.00  0.00     0.037 A 
ATOM      8  C   UNL d   1      31.323 -15.575  -2.793  0.00  0.00     0.032 A 
ATOM      9  C   UNL d   1      31.053 -15.636  -1.414  0.00  0.00     0.034 A 
ATOM     10  C   UNL d   1      29.871 -16.228  -1.033  0.00  0.00     0.063 A 
ATOM     11  N   UNL d   1      29.330 -16.447   0.229  0.00  0.00    -0.307 N 
ATOM     12  C   UNL d   1      28.987 -16.759  -1.961  0.00  0.00     0.065 A 
ATOM     13  C   UNL d   1      28.105 -17.116   0.086  0.00  0.00     0.325 A 
ATOM     14  H   UNL d   1      29.731 -16.202   1.120  0.00  0.00     0.170 HD
ATOM     15  O   UNL d   1      27.358 -17.478   0.984  0.00  0.00    -0.247 OA
ATOM     16  N   UNL d   1      27.902 -17.297  -1.285  0.00  0.00    -0.306 N 
ATOM     17  H   UNL d   1      27.090 -17.743  -1.681  0.00  0.00     0.170 HD
ATOM     18  C   UNL d   1      29.233 -16.726  -3.305  0.00  0.00     0.061 A 
ENDBRANCH   5   7
ENDBRANCH   2   3
ENDBRANCH   1   2
BRANCH   1  19
ATOM     19  C   UNL d   1      27.335 -14.142  -5.331  0.00  0.00     0.263 C 
ATOM     20  O   UNL d   1      27.258 -15.293  -5.737  0.00  0.00    -0.265 OA
BRANCH  19  21
ATOM     21  C   UNL d   1      26.293 -13.446  -4.442  0.00  0.00     0.088 C 
ATOM     22  C   UNL d   1      26.843 -12.977  -3.077  0.00  0.00     0.034 C 
ATOM     23  C   UNL d   1      27.207 -14.162  -2.176  0.00  0.00     0.127 C 
ATOM     24  N   UNL d   1      26.066 -15.081  -2.050  0.00  0.00    -0.348 N 
ATOM     25  C   UNL d   1      25.546 -15.438  -0.809  0.00  0.00     0.253 C 
ATOM     26  C   UNL d   1      25.545 -15.571  -3.313  0.00  0.00     0.127 C 
ATOM     27  O   UNL d   1      25.944 -14.967   0.253  0.00  0.00    -0.267 OA
ATOM     28  C   UNL d   1      25.113 -14.401  -4.202  0.00  0.00     0.034 C 
BRANCH  25  29
ATOM     29  C   UNL d   1      24.423 -16.420  -0.761  0.00  0.00     0.032 A 
ATOM     30  C   UNL d   1      23.100 -16.020  -1.005  0.00  0.00     0.018 A 
ATOM     31  C   UNL d   1      22.054 -16.942  -0.895  0.00  0.00     0.025 A 
ATOM     32  C   UNL d   1      22.333 -18.271  -0.578  0.00  0.00     0.034 A 
ATOM     33 CL   UNL d   1      21.045 -19.402  -0.437  0.00  0.00    -0.084 Cl
ATOM     34  C   UNL d   1      23.650 -18.686  -0.376  0.00  0.00     0.025 A 
ATOM     35  C   UNL d   1      24.698 -17.761  -0.467  0.00  0.00     0.018 A 
ENDBRANCH  25  29
ENDBRANCH  19  21
ENDBRANCH   1  19
TORSDOF 6
ENDMDL
