MODEL 1
REMARK VINA RESULT:   -25.832      0.000      0.000
REMARK INTER + INTRA:         -32.020
REMARK INTER:                 -29.113
REMARK INTRA:                  -2.907
REMARK CONF_INDEPENDENT:        3.281
REMARK UNBOUND:                -2.907
REMARK  11 active torsions:
REMARK  status: ('A' for Active; 'I' for Inactive)
REMARK    1  A    between atoms: O_2  and  C_3 
REMARK    2  A    between atoms: C_3  and  C_5 
REMARK    3  A    between atoms: C_10  and  N_11 
REMARK    4  A    between atoms: N_11  and  C_12 
REMARK    5  A    between atoms: C_12  and  N_14 
REMARK    6  A    between atoms: N_14  and  C_15 
REMARK    7  A    between atoms: N_14  and  C_18 
REMARK    8  A    between atoms: C_15  and  C_16 
REMARK    9  A    between atoms: C_16  and  O_17 
REMARK   10  A    between atoms: C_18  and  C_19 
REMARK   11  A    between atoms: C_30  and  O_31 
ROOT
ATOM      1  N   UNL d   1      24.623 -17.356  -1.735  0.00  0.00    -0.352 N 
ENDROOT
BRANCH   1   2
ATOM      2  C   UNL d   1      25.783 -17.451  -0.905  0.00  0.00     0.174 C 
ATOM      3  S   UNL d   1      25.786 -18.260   0.569  0.00  0.00    -0.041 SA
BRANCH   2   4
ATOM      4  N   UNL d   1      26.832 -16.613  -1.325  0.00  0.00    -0.332 N 
ATOM      5  H   UNL d   1      26.779 -16.312  -2.272  0.00  0.00     0.168 HD
BRANCH   4   6
ATOM      6  C   UNL d   1      27.521 -15.592  -0.641  0.00  0.00     0.050 A 
ATOM      7  C   UNL d   1      27.445 -15.630   0.783  0.00  0.00     0.030 A 
ATOM      8  C   UNL d   1      28.119 -14.694   1.560  0.00  0.00     0.002 A 
ATOM      9  C   UNL d   1      28.862 -13.711   0.919  0.00  0.00     0.001 A 
ATOM     10  C   UNL d   1      28.879 -13.631  -0.484  0.00  0.00     0.020 A 
ATOM     11  C   UNL d   1      28.202 -14.562  -1.281  0.00  0.00     0.066 A 
BRANCH  11  12
ATOM     12  C   UNL d   1      28.361 -14.474  -2.762  0.00  0.00     0.295 C 
ATOM     13  O   UNL d   1      28.773 -13.464  -3.293  0.00  0.00    -0.259 OA
BRANCH  12  14
ATOM     14  O   UNL d   1      28.049 -15.640  -3.402  0.00  0.00    -0.322 OA
ATOM     15  C   UNL d   1      29.088 -16.145  -4.258  0.00  0.00     0.213 C 
ENDBRANCH  12  14
ENDBRANCH  11  12
ENDBRANCH   4   6
ENDBRANCH   2   4
ENDBRANCH   1   2
BRANCH   1  16
ATOM     16  C   UNL d   1      24.052 -16.038  -1.873  0.00  0.00     0.151 C 
BRANCH  16  17
ATOM     17  C   UNL d   1      24.786 -14.911  -2.580  0.00  0.00     0.183 C 
BRANCH  17  18
ATOM     18  O   UNL d   1      25.495 -15.383  -3.706  0.00  0.00    -0.399 OA
ATOM     19  H   UNL d   1      25.890 -16.233  -3.443  0.00  0.00     0.209 HD
ENDBRANCH  17  18
ENDBRANCH  16  17
ENDBRANCH   1  16
BRANCH   1  20
ATOM     20  C   UNL d   1      23.645 -18.518  -1.939  0.00  0.00     0.164 C 
BRANCH  20  21
ATOM     21  C   UNL d   1      22.390 -18.748  -1.068  0.00  0.00    -0.004 C 
ATOM     22  C   UNL d   1      22.157 -19.920  -0.378  0.00  0.00     0.046 C 
ATOM     23  C   UNL d   1      20.988 -19.948   0.470  0.00  0.00     0.035 C 
ATOM     24  C   UNL d   1      20.648 -18.949   1.448  0.00  0.00    -0.012 C 
ATOM     25  C   UNL d   1      19.859 -20.141  -0.203  0.00  0.00     0.125 C 
ATOM     26  C   UNL d   1      19.413 -18.898   2.103  0.00  0.00     0.004 C 
ATOM     27  C   UNL d   1      18.507 -19.893   1.845  0.00  0.00    -0.058 C 
ATOM     28  C   UNL d   1      17.383 -20.078   2.819  0.00  0.00     0.048 C 
ATOM     29  C   UNL d   1      18.793 -20.661   0.702  0.00  0.00    -0.044 C 
ATOM     30  C   UNL d   1      18.239 -22.097   0.764  0.00  0.00     0.047 C 
ATOM     31  N   UNL d   1      19.904 -19.023  -1.095  0.00  0.00    -0.247 NA
ATOM     32  C   UNL d   1      21.121 -18.246  -1.318  0.00  0.00     0.163 C 
BRANCH  32  33
ATOM     33  O   UNL d   1      20.991 -16.907  -0.895  0.00  0.00    -0.345 OA
ATOM     34  H   UNL d   1      20.299 -16.494  -1.453  0.00  0.00     0.219 HD
ENDBRANCH  32  33
ENDBRANCH  20  21
ENDBRANCH   1  20
TORSDOF 11
ENDMDL
MODEL 2
REMARK VINA RESULT:   -25.225      1.642      2.288
REMARK INTER + INTRA:         -31.562
REMARK INTER:                 -28.507
REMARK INTRA:                  -3.056
REMARK CONF_INDEPENDENT:        3.281
REMARK UNBOUND:                -3.056
REMARK  11 active torsions:
REMARK  status: ('A' for Active; 'I' for Inactive)
REMARK    1  A    between atoms: O_2  and  C_3 
REMARK    2  A    between atoms: C_3  and  C_5 
REMARK    3  A    between atoms: C_10  and  N_11 
REMARK    4  A    between atoms: N_11  and  C_12 
REMARK    5  A    between atoms: C_12  and  N_14 
REMARK    6  A    between atoms: N_14  and  C_15 
REMARK    7  A    between atoms: N_14  and  C_18 
REMARK    8  A    between atoms: C_15  and  C_16 
REMARK    9  A    between atoms: C_16  and  O_17 
REMARK   10  A    between atoms: C_18  and  C_19 
REMARK   11  A    between atoms: C_30  and  O_31 
ROOT
ATOM      1  N   UNL d   1      24.665 -17.252  -1.696  0.00  0.00    -0.352 N 
ENDROOT
BRANCH   1   2
ATOM      2  C   UNL d   1      25.827 -17.447  -0.887  0.00  0.00     0.174 C 
ATOM      3  S   UNL d   1      25.810 -18.350   0.532  0.00  0.00    -0.041 SA
BRANCH   2   4
ATOM      4  N   UNL d   1      26.905 -16.625  -1.263  0.00  0.00    -0.332 N 
ATOM      5  H   UNL d   1      26.654 -15.711  -1.564  0.00  0.00     0.168 HD
BRANCH   4   6
ATOM      6  C   UNL d   1      28.200 -16.505  -0.723  0.00  0.00     0.050 A 
ATOM      7  C   UNL d   1      29.107 -17.562  -1.029  0.00  0.00     0.030 A 
ATOM      8  C   UNL d   1      30.424 -17.528  -0.580  0.00  0.00     0.002 A 
ATOM      9  C   UNL d   1      30.835 -16.444   0.184  0.00  0.00     0.001 A 
ATOM     10  C   UNL d   1      29.923 -15.437   0.545  0.00  0.00     0.020 A 
ATOM     11  C   UNL d   1      28.593 -15.459   0.105  0.00  0.00     0.066 A 
BRANCH  11  12
ATOM     12  C   UNL d   1      27.719 -14.297   0.438  0.00  0.00     0.295 C 
ATOM     13  O   UNL d   1      26.758 -14.014  -0.246  0.00  0.00    -0.259 OA
BRANCH  12  14
ATOM     14  O   UNL d   1      28.094 -13.659   1.586  0.00  0.00    -0.322 OA
ATOM     15  C   UNL d   1      27.029 -13.469   2.534  0.00  0.00     0.213 C 
ENDBRANCH  12  14
ENDBRANCH  11  12
ENDBRANCH   4   6
ENDBRANCH   2   4
ENDBRANCH   1   2
BRANCH   1  16
ATOM     16  C   UNL d   1      24.144 -15.907  -1.738  0.00  0.00     0.151 C 
BRANCH  16  17
ATOM     17  C   UNL d   1      24.584 -14.904  -2.792  0.00  0.00     0.183 C 
BRANCH  17  18
ATOM     18  O   UNL d   1      25.945 -14.560  -2.640  0.00  0.00    -0.399 OA
ATOM     19  H   UNL d   1      26.079 -14.389  -1.692  0.00  0.00     0.209 HD
ENDBRANCH  17  18
ENDBRANCH  16  17
ENDBRANCH   1  16
BRANCH   1  20
ATOM     20  C   UNL d   1      23.641 -18.360  -1.966  0.00  0.00     0.164 C 
BRANCH  20  21
ATOM     21  C   UNL d   1      22.398 -18.615  -1.085  0.00  0.00    -0.004 C 
ATOM     22  C   UNL d   1      22.144 -19.826  -0.475  0.00  0.00     0.046 C 
ATOM     23  C   UNL d   1      20.993 -19.881   0.396  0.00  0.00     0.035 C 
ATOM     24  C   UNL d   1      20.704 -18.946   1.449  0.00  0.00    -0.012 C 
ATOM     25  C   UNL d   1      19.844 -19.993  -0.263  0.00  0.00     0.125 C 
ATOM     26  C   UNL d   1      19.484 -18.906   2.135  0.00  0.00     0.004 C 
ATOM     27  C   UNL d   1      18.544 -19.853   1.828  0.00  0.00    -0.058 C 
ATOM     28  C   UNL d   1      17.435 -20.075   2.812  0.00  0.00     0.048 C 
ATOM     29  C   UNL d   1      18.783 -20.545   0.627  0.00  0.00    -0.044 C 
ATOM     30  C   UNL d   1      18.187 -21.966   0.600  0.00  0.00     0.047 C 
ATOM     31  N   UNL d   1      19.905 -18.816  -1.075  0.00  0.00    -0.247 NA
ATOM     32  C   UNL d   1      21.140 -18.060  -1.270  0.00  0.00     0.163 C 
BRANCH  32  33
ATOM     33  O   UNL d   1      21.059 -16.752  -0.751  0.00  0.00    -0.345 OA
ATOM     34  H   UNL d   1      20.435 -16.254  -1.318  0.00  0.00     0.219 HD
ENDBRANCH  32  33
ENDBRANCH  20  21
ENDBRANCH   1  20
TORSDOF 11
ENDMDL
