MODEL 1
REMARK VINA RESULT:    -8.566      0.000      0.000
REMARK INTER + INTRA:         -11.704
REMARK INTER:                 -10.654
REMARK INTRA:                  -1.050
REMARK CONF_INDEPENDENT:        2.088
REMARK UNBOUND:                -1.050
REMARK  7 active torsions:
REMARK  status: ('A' for Active; 'I' for Inactive)
REMARK    1  A    between atoms: C_2  and  O_4 
REMARK    2  A    between atoms: C_2  and  C_5 
REMARK    3  A    between atoms: C_5  and  C_6 
REMARK    4  A    between atoms: C_6  and  C_7 
REMARK    5  A    between atoms: C_10  and  C_11 
REMARK       I    between atoms: C_11  and  N_13 
REMARK    6  A    between atoms: C_14  and  N_13 
REMARK    7  A    between atoms: C_22  and  O_23 
ROOT
ATOM      1  C   UNL d   1      26.390 -18.062   0.259  0.00  0.00     0.276 C 
ATOM      2  O   UNL d   1      26.974 -19.130   0.382  0.00  0.00    -0.265 OA
ATOM      3  N   UNL d   1      27.146 -16.936   0.567  0.00  0.00    -0.344 N 
ATOM      4  H   UNL d   1      28.053 -17.129   0.984  0.00  0.00     0.163 HD
ENDROOT
BRANCH   1   5
ATOM      5  C   UNL d   1      25.032 -17.965  -0.365  0.00  0.00     0.144 C 
ATOM      6  C   UNL d   1      24.417 -16.791  -0.781  0.00  0.00     0.046 C 
ATOM      7  C   UNL d   1      23.013 -17.035  -0.853  0.00  0.00     0.050 C 
ATOM      8  C   UNL d   1      22.792 -18.331  -0.430  0.00  0.00     0.129 C 
ATOM      9  O   UNL d   1      24.036 -18.959  -0.311  0.00  0.00    -0.296 OA
BRANCH   8  10
ATOM     10  C   UNL d   1      21.537 -18.961   0.036  0.00  0.00    -0.038 C 
BRANCH  10  11
ATOM     11  C   UNL d   1      20.540 -19.431   0.732  0.00  0.00    -0.062 C 
BRANCH  11  12
ATOM     12  C   UNL d   1      19.377 -19.979   1.544  0.00  0.00     0.114 C 
ATOM     13  C   UNL d   1      19.887 -20.450   2.904  0.00  0.00     0.060 C 
ATOM     14  C   UNL d   1      18.734 -21.141   0.788  0.00  0.00     0.060 C 
BRANCH  12  15
ATOM     15  O   UNL d   1      18.423 -18.943   1.729  0.00  0.00    -0.378 OA
ATOM     16  H   UNL d   1      18.891 -18.176   2.098  0.00  0.00     0.211 HD
ENDBRANCH  12  15
ENDBRANCH  11  12
ENDBRANCH  10  11
ENDBRANCH   8  10
ENDBRANCH   1   5
BRANCH   3  17
ATOM     17  C   UNL d   1      26.791 -15.568   0.331  0.00  0.00     0.147 C 
ATOM     18  C   UNL d   1      26.954 -15.110  -1.103  0.00  0.00    -0.027 C 
ATOM     19  C   UNL d   1      26.998 -15.833  -2.284  0.00  0.00     0.010 C 
ATOM     20  C   UNL d   1      27.093 -13.733  -1.165  0.00  0.00    -0.047 C 
ATOM     21  C   UNL d   1      26.767 -15.201  -3.495  0.00  0.00     0.001 C 
ATOM     22  C   UNL d   1      26.784 -13.820  -3.550  0.00  0.00     0.001 C 
ATOM     23  C   UNL d   1      27.046 -13.082  -2.391  0.00  0.00     0.008 C 
ATOM     24  C   UNL d   1      27.366 -13.184   0.208  0.00  0.00     0.073 C 
ATOM     25  C   UNL d   1      27.693 -14.488   0.994  0.00  0.00     0.149 C 
BRANCH  25  26
ATOM     26  O   UNL d   1      29.087 -14.820   0.836  0.00  0.00    -0.393 OA
ATOM     27  H   UNL d   1      29.257 -15.596   1.405  0.00  0.00     0.210 HD
ENDBRANCH  25  26
ENDBRANCH   3  17
TORSDOF 7
ENDMDL
MODEL 2
REMARK VINA RESULT:    -7.788      1.160      1.391
REMARK INTER + INTRA:         -11.003
REMARK INTER:                  -9.876
REMARK INTRA:                  -1.127
REMARK CONF_INDEPENDENT:        2.088
REMARK UNBOUND:                -1.127
REMARK  7 active torsions:
REMARK  status: ('A' for Active; 'I' for Inactive)
REMARK    1  A    between atoms: C_2  and  O_4 
REMARK    2  A    between atoms: C_2  and  C_5 
REMARK    3  A    between atoms: C_5  and  C_6 
REMARK    4  A    between atoms: C_6  and  C_7 
REMARK    5  A    between atoms: C_10  and  C_11 
REMARK       I    between atoms: C_11  and  N_13 
REMARK    6  A    between atoms: C_14  and  N_13 
REMARK    7  A    between atoms: C_22  and  O_23 
ROOT
ATOM      1  C   UNL d   1      26.870 -17.915   0.331  0.00  0.00     0.276 C 
ATOM      2  O   UNL d   1      27.332 -19.015   0.601  0.00  0.00    -0.265 OA
ATOM      3  N   UNL d   1      27.695 -16.837   0.635  0.00  0.00    -0.344 N 
ATOM      4  H   UNL d   1      28.529 -17.071   1.165  0.00  0.00     0.163 HD
ENDROOT
BRANCH   1   5
ATOM      5  C   UNL d   1      25.601 -17.755  -0.449  0.00  0.00     0.144 C 
ATOM      6  C   UNL d   1      25.093 -16.553  -0.925  0.00  0.00     0.046 C 
ATOM      7  C   UNL d   1      23.697 -16.733  -1.164  0.00  0.00     0.050 C 
ATOM      8  C   UNL d   1      23.371 -18.019  -0.782  0.00  0.00     0.129 C 
ATOM      9  O   UNL d   1      24.563 -18.703  -0.522  0.00  0.00    -0.296 OA
BRANCH   8  10
ATOM     10  C   UNL d   1      22.043 -18.595  -0.474  0.00  0.00    -0.038 C 
BRANCH  10  11
ATOM     11  C   UNL d   1      21.045 -19.309  -0.034  0.00  0.00    -0.062 C 
BRANCH  11  12
ATOM     12  C   UNL d   1      19.881 -20.142   0.479  0.00  0.00     0.114 C 
ATOM     13  C   UNL d   1      18.726 -20.064  -0.518  0.00  0.00     0.060 C 
ATOM     14  C   UNL d   1      19.441 -19.613   1.843  0.00  0.00     0.060 C 
BRANCH  12  15
ATOM     15  O   UNL d   1      20.308 -21.492   0.603  0.00  0.00    -0.378 OA
ATOM     16  H   UNL d   1      20.886 -21.546   1.382  0.00  0.00     0.211 HD
ENDBRANCH  12  15
ENDBRANCH  11  12
ENDBRANCH  10  11
ENDBRANCH   8  10
ENDBRANCH   1   5
BRANCH   3  17
ATOM     17  C   UNL d   1      27.500 -15.468   0.255  0.00  0.00     0.147 C 
ATOM     18  C   UNL d   1      27.931 -15.137  -1.158  0.00  0.00    -0.027 C 
ATOM     19  C   UNL d   1      28.104 -15.950  -2.266  0.00  0.00     0.010 C 
ATOM     20  C   UNL d   1      28.195 -13.782  -1.284  0.00  0.00    -0.047 C 
ATOM     21  C   UNL d   1      28.127 -15.399  -3.536  0.00  0.00     0.001 C 
ATOM     22  C   UNL d   1      28.269 -14.031  -3.677  0.00  0.00     0.001 C 
ATOM     23  C   UNL d   1      28.402 -13.226  -2.540  0.00  0.00     0.008 C 
ATOM     24  C   UNL d   1      28.288 -13.150   0.077  0.00  0.00     0.073 C 
ATOM     25  C   UNL d   1      28.371 -14.409   0.989  0.00  0.00     0.149 C 
BRANCH  25  26
ATOM     26  O   UNL d   1      29.739 -14.854   1.088  0.00  0.00    -0.393 OA
ATOM     27  H   UNL d   1      29.732 -15.664   1.635  0.00  0.00     0.210 HD
ENDBRANCH  25  26
ENDBRANCH   3  17
TORSDOF 7
ENDMDL
MODEL 3
REMARK VINA RESULT:    -7.519      1.868      2.665
REMARK INTER + INTRA:         -10.566
REMARK INTER:                  -9.608
REMARK INTRA:                  -0.959
REMARK CONF_INDEPENDENT:        2.088
REMARK UNBOUND:                -0.959
REMARK  7 active torsions:
REMARK  status: ('A' for Active; 'I' for Inactive)
REMARK    1  A    between atoms: C_2  and  O_4 
REMARK    2  A    between atoms: C_2  and  C_5 
REMARK    3  A    between atoms: C_5  and  C_6 
REMARK    4  A    between atoms: C_6  and  C_7 
REMARK    5  A    between atoms: C_10  and  C_11 
REMARK       I    between atoms: C_11  and  N_13 
REMARK    6  A    between atoms: C_14  and  N_13 
REMARK    7  A    between atoms: C_22  and  O_23 
ROOT
ATOM      1  C   UNL d   1      26.312 -17.029  -1.246  0.00  0.00     0.276 C 
ATOM      2  O   UNL d   1      26.925 -17.747  -0.466  0.00  0.00    -0.265 OA
ATOM      3  N   UNL d   1      27.104 -16.328  -2.150  0.00  0.00    -0.344 N 
ATOM      4  H   UNL d   1      28.103 -16.387  -1.981  0.00  0.00     0.163 HD
ENDROOT
BRANCH   1   5
ATOM      5  C   UNL d   1      24.818 -17.058  -1.346  0.00  0.00     0.144 C 
ATOM      6  C   UNL d   1      23.981 -15.956  -1.231  0.00  0.00     0.046 C 
ATOM      7  C   UNL d   1      22.677 -16.431  -0.898  0.00  0.00     0.050 C 
ATOM      8  C   UNL d   1      22.754 -17.803  -0.763  0.00  0.00     0.129 C 
ATOM      9  O   UNL d   1      24.014 -18.207  -1.219  0.00  0.00    -0.296 OA
BRANCH   8  10
ATOM     10  C   UNL d   1      21.822 -18.730  -0.085  0.00  0.00    -0.038 C 
BRANCH  10  11
ATOM     11  C   UNL d   1      20.847 -19.279   0.584  0.00  0.00    -0.062 C 
BRANCH  11  12
ATOM     12  C   UNL d   1      19.710 -19.919   1.365  0.00  0.00     0.114 C 
ATOM     13  C   UNL d   1      20.220 -20.349   2.739  0.00  0.00     0.060 C 
ATOM     14  C   UNL d   1      19.184 -21.129   0.594  0.00  0.00     0.060 C 
BRANCH  12  15
ATOM     15  O   UNL d   1      18.671 -18.963   1.523  0.00  0.00    -0.378 OA
ATOM     16  H   UNL d   1      19.003 -18.264   2.109  0.00  0.00     0.211 HD
ENDBRANCH  12  15
ENDBRANCH  11  12
ENDBRANCH  10  11
ENDBRANCH   8  10
ENDBRANCH   1   5
BRANCH   3  17
ATOM     17  C   UNL d   1      26.656 -15.577  -3.285  0.00  0.00     0.147 C 
ATOM     18  C   UNL d   1      27.723 -15.303  -4.324  0.00  0.00    -0.027 C 
ATOM     19  C   UNL d   1      28.919 -15.952  -4.586  0.00  0.00     0.010 C 
ATOM     20  C   UNL d   1      27.389 -14.198  -5.090  0.00  0.00    -0.047 C 
ATOM     21  C   UNL d   1      29.549 -15.782  -5.807  0.00  0.00     0.001 C 
ATOM     22  C   UNL d   1      29.146 -14.755  -6.638  0.00  0.00     0.001 C 
ATOM     23  C   UNL d   1      28.121 -13.894  -6.232  0.00  0.00     0.008 C 
ATOM     24  C   UNL d   1      26.263 -13.445  -4.438  0.00  0.00     0.073 C 
ATOM     25  C   UNL d   1      26.239 -14.101  -3.027  0.00  0.00     0.149 C 
BRANCH  25  26
ATOM     26  O   UNL d   1      27.192 -13.446  -2.165  0.00  0.00    -0.393 OA
ATOM     27  H   UNL d   1      27.035 -12.485  -2.252  0.00  0.00     0.210 HD
ENDBRANCH  25  26
ENDBRANCH   3  17
TORSDOF 7
ENDMDL
MODEL 4
REMARK VINA RESULT:    -7.379      4.435      9.545
REMARK INTER + INTRA:         -10.335
REMARK INTER:                  -9.467
REMARK INTRA:                  -0.868
REMARK CONF_INDEPENDENT:        2.088
REMARK UNBOUND:                -0.868
REMARK  7 active torsions:
REMARK  status: ('A' for Active; 'I' for Inactive)
REMARK    1  A    between atoms: C_2  and  O_4 
REMARK    2  A    between atoms: C_2  and  C_5 
REMARK    3  A    between atoms: C_5  and  C_6 
REMARK    4  A    between atoms: C_6  and  C_7 
REMARK    5  A    between atoms: C_10  and  C_11 
REMARK       I    between atoms: C_11  and  N_13 
REMARK    6  A    between atoms: C_14  and  N_13 
REMARK    7  A    between atoms: C_22  and  O_23 
ROOT
ATOM      1  C   UNL d   1      25.583 -14.648  -3.985  0.00  0.00     0.276 C 
ATOM      2  O   UNL d   1      24.933 -13.808  -4.594  0.00  0.00    -0.265 OA
ATOM      3  N   UNL d   1      24.946 -15.198  -2.878  0.00  0.00    -0.344 N 
ATOM      4  H   UNL d   1      24.070 -14.753  -2.621  0.00  0.00     0.163 HD
ENDROOT
BRANCH   1   5
ATOM      5  C   UNL d   1      26.881 -15.182  -4.508  0.00  0.00     0.144 C 
ATOM      6  C   UNL d   1      27.963 -15.575  -3.731  0.00  0.00     0.046 C 
ATOM      7  C   UNL d   1      29.126 -15.549  -4.557  0.00  0.00     0.050 C 
ATOM      8  C   UNL d   1      28.744 -15.091  -5.802  0.00  0.00     0.129 C 
ATOM      9  O   UNL d   1      27.346 -15.045  -5.830  0.00  0.00    -0.296 OA
BRANCH   8  10
ATOM     10  C   UNL d   1      29.577 -14.532  -6.889  0.00  0.00    -0.038 C 
BRANCH  10  11
ATOM     11  C   UNL d   1      30.346 -13.799  -7.645  0.00  0.00    -0.062 C 
BRANCH  11  12
ATOM     12  C   UNL d   1      31.242 -12.943  -8.526  0.00  0.00     0.114 C 
ATOM     13  C   UNL d   1      32.443 -13.771  -8.980  0.00  0.00     0.060 C 
ATOM     14  C   UNL d   1      31.709 -11.720  -7.739  0.00  0.00     0.060 C 
BRANCH  12  15
ATOM     15  O   UNL d   1      30.499 -12.527  -9.663  0.00  0.00    -0.378 OA
ATOM     16  H   UNL d   1      30.204 -13.325 -10.130  0.00  0.00     0.211 HD
ENDBRANCH  12  15
ENDBRANCH  11  12
ENDBRANCH  10  11
ENDBRANCH   8  10
ENDBRANCH   1   5
BRANCH   3  17
ATOM     17  C   UNL d   1      25.381 -16.324  -2.105  0.00  0.00     0.147 C 
ATOM     18  C   UNL d   1      24.319 -16.923  -1.207  0.00  0.00    -0.027 C 
ATOM     19  C   UNL d   1      22.936 -16.856  -1.270  0.00  0.00     0.010 C 
ATOM     20  C   UNL d   1      24.899 -17.626  -0.163  0.00  0.00    -0.047 C 
ATOM     21  C   UNL d   1      22.163 -17.780  -0.587  0.00  0.00     0.001 C 
ATOM     22  C   UNL d   1      22.755 -18.575   0.377  0.00  0.00     0.001 C 
ATOM     23  C   UNL d   1      24.116 -18.427   0.659  0.00  0.00     0.008 C 
ATOM     24  C   UNL d   1      26.363 -17.292  -0.074  0.00  0.00     0.073 C 
ATOM     25  C   UNL d   1      26.445 -16.048  -1.006  0.00  0.00     0.149 C 
BRANCH  25  26
ATOM     26  O   UNL d   1      26.116 -14.856  -0.264  0.00  0.00    -0.393 OA
ATOM     27  H   UNL d   1      26.839 -14.717   0.378  0.00  0.00     0.210 HD
ENDBRANCH  25  26
ENDBRANCH   3  17
TORSDOF 7
ENDMDL
MODEL 5
REMARK VINA RESULT:    -7.120      2.164      3.309
REMARK INTER + INTRA:         -10.582
REMARK INTER:                  -9.208
REMARK INTRA:                  -1.374
REMARK CONF_INDEPENDENT:        2.088
REMARK UNBOUND:                -1.374
REMARK  7 active torsions:
REMARK  status: ('A' for Active; 'I' for Inactive)
REMARK    1  A    between atoms: C_2  and  O_4 
REMARK    2  A    between atoms: C_2  and  C_5 
REMARK    3  A    between atoms: C_5  and  C_6 
REMARK    4  A    between atoms: C_6  and  C_7 
REMARK    5  A    between atoms: C_10  and  C_11 
REMARK       I    between atoms: C_11  and  N_13 
REMARK    6  A    between atoms: C_14  and  N_13 
REMARK    7  A    between atoms: C_22  and  O_23 
ROOT
ATOM      1  C   UNL d   1      25.537 -15.395  -2.569  0.00  0.00     0.276 C 
ATOM      2  O   UNL d   1      24.783 -14.905  -3.400  0.00  0.00    -0.265 OA
ATOM      3  N   UNL d   1      26.847 -14.931  -2.616  0.00  0.00    -0.344 N 
ATOM      4  H   UNL d   1      27.066 -14.340  -3.412  0.00  0.00     0.163 HD
ENDROOT
BRANCH   1   5
ATOM      5  C   UNL d   1      25.038 -16.274  -1.464  0.00  0.00     0.144 C 
ATOM      6  C   UNL d   1      25.741 -17.326  -0.891  0.00  0.00     0.046 C 
ATOM      7  C   UNL d   1      24.797 -18.189  -0.258  0.00  0.00     0.050 C 
ATOM      8  C   UNL d   1      23.537 -17.680  -0.503  0.00  0.00     0.129 C 
ATOM      9  O   UNL d   1      23.691 -16.413  -1.076  0.00  0.00    -0.296 OA
BRANCH   8  10
ATOM     10  C   UNL d   1      22.222 -18.351  -0.406  0.00  0.00    -0.038 C 
BRANCH  10  11
ATOM     11  C   UNL d   1      21.177 -19.039  -0.041  0.00  0.00    -0.062 C 
BRANCH  11  12
ATOM     12  C   UNL d   1      19.958 -19.842   0.384  0.00  0.00     0.114 C 
ATOM     13  C   UNL d   1      18.867 -19.705  -0.676  0.00  0.00     0.060 C 
ATOM     14  C   UNL d   1      19.455 -19.325   1.731  0.00  0.00     0.060 C 
BRANCH  12  15
ATOM     15  O   UNL d   1      20.331 -21.208   0.505  0.00  0.00    -0.378 OA
ATOM     16  H   UNL d   1      21.029 -21.263   1.178  0.00  0.00     0.211 HD
ENDBRANCH  12  15
ENDBRANCH  11  12
ENDBRANCH  10  11
ENDBRANCH   8  10
ENDBRANCH   1   5
BRANCH   3  17
ATOM     17  C   UNL d   1      27.883 -15.178  -1.656  0.00  0.00     0.147 C 
ATOM     18  C   UNL d   1      27.757 -14.385  -0.372  0.00  0.00    -0.027 C 
ATOM     19  C   UNL d   1      26.657 -13.779   0.214  0.00  0.00     0.010 C 
ATOM     20  C   UNL d   1      28.986 -14.274   0.258  0.00  0.00    -0.047 C 
ATOM     21  C   UNL d   1      26.681 -13.444   1.558  0.00  0.00     0.001 C 
ATOM     22  C   UNL d   1      27.888 -13.445   2.232  0.00  0.00     0.001 C 
ATOM     23  C   UNL d   1      29.065 -13.768   1.550  0.00  0.00     0.008 C 
ATOM     24  C   UNL d   1      30.083 -14.681  -0.686  0.00  0.00     0.073 C 
ATOM     25  C   UNL d   1      29.317 -14.716  -2.041  0.00  0.00     0.149 C 
BRANCH  25  26
ATOM     26  O   UNL d   1      29.289 -13.397  -2.623  0.00  0.00    -0.393 OA
ATOM     27  H   UNL d   1      28.349 -13.173  -2.767  0.00  0.00     0.210 HD
ENDBRANCH  25  26
ENDBRANCH   3  17
TORSDOF 7
ENDMDL
MODEL 6
REMARK VINA RESULT:    -7.087      2.292      3.506
REMARK INTER + INTRA:         -10.417
REMARK INTER:                  -9.175
REMARK INTRA:                  -1.241
REMARK CONF_INDEPENDENT:        2.088
REMARK UNBOUND:                -1.241
REMARK  7 active torsions:
REMARK  status: ('A' for Active; 'I' for Inactive)
REMARK    1  A    between atoms: C_2  and  O_4 
REMARK    2  A    between atoms: C_2  and  C_5 
REMARK    3  A    between atoms: C_5  and  C_6 
REMARK    4  A    between atoms: C_6  and  C_7 
REMARK    5  A    between atoms: C_10  and  C_11 
REMARK       I    between atoms: C_11  and  N_13 
REMARK    6  A    between atoms: C_14  and  N_13 
REMARK    7  A    between atoms: C_22  and  O_23 
ROOT
ATOM      1  C   UNL d   1      26.628 -14.701  -0.062  0.00  0.00     0.276 C 
ATOM      2  O   UNL d   1      27.204 -14.110   0.843  0.00  0.00    -0.265 OA
ATOM      3  N   UNL d   1      26.702 -14.089  -1.308  0.00  0.00    -0.344 N 
ATOM      4  H   UNL d   1      27.110 -13.159  -1.306  0.00  0.00     0.163 HD
ENDROOT
BRANCH   1   5
ATOM      5  C   UNL d   1      26.061 -16.075   0.122  0.00  0.00     0.144 C 
ATOM      6  C   UNL d   1      26.729 -17.265  -0.140  0.00  0.00     0.046 C 
ATOM      7  C   UNL d   1      25.748 -18.287  -0.314  0.00  0.00     0.050 C 
ATOM      8  C   UNL d   1      24.505 -17.695  -0.210  0.00  0.00     0.129 C 
ATOM      9  O   UNL d   1      24.692 -16.384   0.241  0.00  0.00    -0.296 OA
BRANCH   8  10
ATOM     10  C   UNL d   1      23.189 -18.196  -0.664  0.00  0.00    -0.038 C 
BRANCH  10  11
ATOM     11  C   UNL d   1      21.938 -18.544  -0.775  0.00  0.00    -0.062 C 
BRANCH  11  12
ATOM     12  C   UNL d   1      20.478 -18.950  -0.905  0.00  0.00     0.114 C 
ATOM     13  C   UNL d   1      20.093 -19.836   0.278  0.00  0.00     0.060 C 
ATOM     14  C   UNL d   1      20.277 -19.703  -2.219  0.00  0.00     0.060 C 
BRANCH  12  15
ATOM     15  O   UNL d   1      19.677 -17.777  -0.898  0.00  0.00    -0.378 OA
ATOM     16  H   UNL d   1      19.643 -17.439  -1.807  0.00  0.00     0.211 HD
ENDBRANCH  12  15
ENDBRANCH  11  12
ENDBRANCH  10  11
ENDBRANCH   8  10
ENDBRANCH   1   5
BRANCH   3  17
ATOM     17  C   UNL d   1      26.295 -14.643  -2.566  0.00  0.00     0.147 C 
ATOM     18  C   UNL d   1      27.350 -14.590  -3.651  0.00  0.00    -0.027 C 
ATOM     19  C   UNL d   1      28.729 -14.476  -3.569  0.00  0.00     0.010 C 
ATOM     20  C   UNL d   1      26.765 -14.652  -4.906  0.00  0.00    -0.047 C 
ATOM     21  C   UNL d   1      29.521 -14.831  -4.648  0.00  0.00     0.001 C 
ATOM     22  C   UNL d   1      28.933 -15.014  -5.886  0.00  0.00     0.001 C 
ATOM     23  C   UNL d   1      27.555 -14.827  -6.035  0.00  0.00     0.008 C 
ATOM     24  C   UNL d   1      25.284 -14.420  -4.792  0.00  0.00     0.073 C 
ATOM     25  C   UNL d   1      25.174 -13.888  -3.333  0.00  0.00     0.149 C 
BRANCH  25  26
ATOM     26  O   UNL d   1      25.410 -12.465  -3.311  0.00  0.00    -0.393 OA
ATOM     27  H   UNL d   1      24.944 -12.091  -4.084  0.00  0.00     0.210 HD
ENDBRANCH  25  26
ENDBRANCH   3  17
TORSDOF 7
ENDMDL
MODEL 7
REMARK VINA RESULT:    -7.033      4.003      8.224
REMARK INTER + INTRA:         -10.238
REMARK INTER:                  -9.121
REMARK INTRA:                  -1.117
REMARK CONF_INDEPENDENT:        2.088
REMARK UNBOUND:                -1.117
REMARK  7 active torsions:
REMARK  status: ('A' for Active; 'I' for Inactive)
REMARK    1  A    between atoms: C_2  and  O_4 
REMARK    2  A    between atoms: C_2  and  C_5 
REMARK    3  A    between atoms: C_5  and  C_6 
REMARK    4  A    between atoms: C_6  and  C_7 
REMARK    5  A    between atoms: C_10  and  C_11 
REMARK       I    between atoms: C_11  and  N_13 
REMARK    6  A    between atoms: C_14  and  N_13 
REMARK    7  A    between atoms: C_22  and  O_23 
ROOT
ATOM      1  C   UNL d   1      25.632 -14.186  -4.130  0.00  0.00     0.276 C 
ATOM      2  O   UNL d   1      24.803 -13.503  -4.716  0.00  0.00    -0.265 OA
ATOM      3  N   UNL d   1      25.132 -14.952  -3.083  0.00  0.00    -0.344 N 
ATOM      4  H   UNL d   1      24.165 -14.764  -2.836  0.00  0.00     0.163 HD
ENDROOT
BRANCH   1   5
ATOM      5  C   UNL d   1      27.037 -14.334  -4.629  0.00  0.00     0.144 C 
ATOM      6  C   UNL d   1      27.537 -13.785  -5.804  0.00  0.00     0.046 C 
ATOM      7  C   UNL d   1      28.702 -14.524  -6.168  0.00  0.00     0.050 C 
ATOM      8  C   UNL d   1      28.860 -15.538  -5.245  0.00  0.00     0.129 C 
ATOM      9  O   UNL d   1      27.956 -15.311  -4.202  0.00  0.00    -0.296 OA
BRANCH   8  10
ATOM     10  C   UNL d   1      29.655 -16.781  -5.348  0.00  0.00    -0.038 C 
BRANCH  10  11
ATOM     11  C   UNL d   1      30.174 -17.926  -5.694  0.00  0.00    -0.062 C 
BRANCH  11  12
ATOM     12  C   UNL d   1      30.779 -19.262  -6.098  0.00  0.00     0.114 C 
ATOM     13  C   UNL d   1      30.407 -20.319  -5.061  0.00  0.00     0.060 C 
ATOM     14  C   UNL d   1      32.297 -19.123  -6.192  0.00  0.00     0.060 C 
BRANCH  12  15
ATOM     15  O   UNL d   1      30.253 -19.636  -7.364  0.00  0.00    -0.378 OA
ATOM     16  H   UNL d   1      29.402 -20.077  -7.209  0.00  0.00     0.211 HD
ENDBRANCH  12  15
ENDBRANCH  11  12
ENDBRANCH  10  11
ENDBRANCH   8  10
ENDBRANCH   1   5
BRANCH   3  17
ATOM     17  C   UNL d   1      25.824 -15.977  -2.358  0.00  0.00     0.147 C 
ATOM     18  C   UNL d   1      24.975 -16.723  -1.350  0.00  0.00    -0.027 C 
ATOM     19  C   UNL d   1      23.601 -16.882  -1.265  0.00  0.00     0.010 C 
ATOM     20  C   UNL d   1      25.769 -17.301  -0.372  0.00  0.00    -0.047 C 
ATOM     21  C   UNL d   1      23.066 -17.905  -0.501  0.00  0.00     0.001 C 
ATOM     22  C   UNL d   1      23.877 -18.574   0.396  0.00  0.00     0.001 C 
ATOM     23  C   UNL d   1      25.218 -18.201   0.531  0.00  0.00     0.008 C 
ATOM     24  C   UNL d   1      27.159 -16.732  -0.441  0.00  0.00     0.073 C 
ATOM     25  C   UNL d   1      26.939 -15.511  -1.380  0.00  0.00     0.149 C 
BRANCH  25  26
ATOM     26  O   UNL d   1      26.500 -14.373  -0.610  0.00  0.00    -0.393 OA
ATOM     27  H   UNL d   1      27.123 -14.281   0.136  0.00  0.00     0.210 HD
ENDBRANCH  25  26
ENDBRANCH   3  17
TORSDOF 7
ENDMDL
MODEL 8
REMARK VINA RESULT:    -6.747      3.516      8.398
REMARK INTER + INTRA:         -10.216
REMARK INTER:                  -8.835
REMARK INTRA:                  -1.380
REMARK CONF_INDEPENDENT:        2.088
REMARK UNBOUND:                -1.380
REMARK  7 active torsions:
REMARK  status: ('A' for Active; 'I' for Inactive)
REMARK    1  A    between atoms: C_2  and  O_4 
REMARK    2  A    between atoms: C_2  and  C_5 
REMARK    3  A    between atoms: C_5  and  C_6 
REMARK    4  A    between atoms: C_6  and  C_7 
REMARK    5  A    between atoms: C_10  and  C_11 
REMARK       I    between atoms: C_11  and  N_13 
REMARK    6  A    between atoms: C_14  and  N_13 
REMARK    7  A    between atoms: C_22  and  O_23 
ROOT
ATOM      1  C   UNL d   1      26.622 -13.482  -1.870  0.00  0.00     0.276 C 
ATOM      2  O   UNL d   1      26.435 -12.325  -1.517  0.00  0.00    -0.265 OA
ATOM      3  N   UNL d   1      26.660 -14.416  -0.839  0.00  0.00    -0.344 N 
ATOM      4  H   UNL d   1      26.660 -14.022   0.097  0.00  0.00     0.163 HD
ENDROOT
BRANCH   1   5
ATOM      5  C   UNL d   1      26.610 -13.885  -3.312  0.00  0.00     0.144 C 
ATOM      6  C   UNL d   1      25.695 -14.747  -3.902  0.00  0.00     0.046 C 
ATOM      7  C   UNL d   1      26.279 -15.250  -5.103  0.00  0.00     0.050 C 
ATOM      8  C   UNL d   1      27.555 -14.730  -5.196  0.00  0.00     0.129 C 
ATOM      9  O   UNL d   1      27.691 -13.752  -4.205  0.00  0.00    -0.296 OA
BRANCH   8  10
ATOM     10  C   UNL d   1      28.698 -15.195  -6.012  0.00  0.00    -0.038 C 
BRANCH  10  11
ATOM     11  C   UNL d   1      29.802 -15.729  -6.456  0.00  0.00    -0.062 C 
BRANCH  11  12
ATOM     12  C   UNL d   1      31.089 -16.351  -6.973  0.00  0.00     0.114 C 
ATOM     13  C   UNL d   1      30.821 -17.796  -7.388  0.00  0.00     0.060 C 
ATOM     14  C   UNL d   1      32.151 -16.303  -5.876  0.00  0.00     0.060 C 
BRANCH  12  15
ATOM     15  O   UNL d   1      31.532 -15.610  -8.101  0.00  0.00    -0.378 OA
ATOM     16  H   UNL d   1      30.885 -14.903  -8.261  0.00  0.00     0.211 HD
ENDBRANCH  12  15
ENDBRANCH  11  12
ENDBRANCH  10  11
ENDBRANCH   8  10
ENDBRANCH   1   5
BRANCH   3  17
ATOM     17  C   UNL d   1      26.667 -15.843  -0.969  0.00  0.00     0.147 C 
ATOM     18  C   UNL d   1      25.352 -16.516  -0.637  0.00  0.00    -0.027 C 
ATOM     19  C   UNL d   1      24.060 -16.016  -0.615  0.00  0.00     0.010 C 
ATOM     20  C   UNL d   1      25.554 -17.842  -0.291  0.00  0.00    -0.047 C 
ATOM     21  C   UNL d   1      22.979 -16.881  -0.661  0.00  0.00     0.001 C 
ATOM     22  C   UNL d   1      23.183 -18.230  -0.436  0.00  0.00     0.001 C 
ATOM     23  C   UNL d   1      24.470 -18.699  -0.151  0.00  0.00     0.008 C 
ATOM     24  C   UNL d   1      27.016 -18.088  -0.039  0.00  0.00     0.073 C 
ATOM     25  C   UNL d   1      27.559 -16.631   0.032  0.00  0.00     0.149 C 
BRANCH  25  26
ATOM     26  O   UNL d   1      27.404 -16.114   1.369  0.00  0.00    -0.393 OA
ATOM     27  H   UNL d   1      28.301 -16.038   1.747  0.00  0.00     0.210 HD
ENDBRANCH  25  26
ENDBRANCH   3  17
TORSDOF 7
ENDMDL
MODEL 9
REMARK VINA RESULT:    -6.244      3.124      6.992
REMARK INTER + INTRA:         -10.266
REMARK INTER:                  -8.332
REMARK INTRA:                  -1.933
REMARK CONF_INDEPENDENT:        2.088
REMARK UNBOUND:                -1.933
REMARK  7 active torsions:
REMARK  status: ('A' for Active; 'I' for Inactive)
REMARK    1  A    between atoms: C_2  and  O_4 
REMARK    2  A    between atoms: C_2  and  C_5 
REMARK    3  A    between atoms: C_5  and  C_6 
REMARK    4  A    between atoms: C_6  and  C_7 
REMARK    5  A    between atoms: C_10  and  C_11 
REMARK       I    between atoms: C_11  and  N_13 
REMARK    6  A    between atoms: C_14  and  N_13 
REMARK    7  A    between atoms: C_22  and  O_23 
ROOT
ATOM      1  C   UNL d   1      24.963 -14.354  -2.666  0.00  0.00     0.276 C 
ATOM      2  O   UNL d   1      24.680 -14.027  -3.811  0.00  0.00    -0.265 OA
ATOM      3  N   UNL d   1      24.260 -15.449  -2.174  0.00  0.00    -0.344 N 
ATOM      4  H   UNL d   1      23.501 -15.773  -2.766  0.00  0.00     0.163 HD
ENDROOT
BRANCH   1   5
ATOM      5  C   UNL d   1      26.116 -13.747  -1.929  0.00  0.00     0.144 C 
ATOM      6  C   UNL d   1      27.377 -13.509  -2.460  0.00  0.00     0.046 C 
ATOM      7  C   UNL d   1      28.295 -13.397  -1.373  0.00  0.00     0.050 C 
ATOM      8  C   UNL d   1      27.591 -13.623  -0.207  0.00  0.00     0.129 C 
ATOM      9  O   UNL d   1      26.230 -13.650  -0.528  0.00  0.00    -0.296 OA
BRANCH   8  10
ATOM     10  C   UNL d   1      28.096 -13.986   1.136  0.00  0.00    -0.038 C 
BRANCH  10  11
ATOM     11  C   UNL d   1      28.287 -14.142   2.416  0.00  0.00    -0.062 C 
BRANCH  11  12
ATOM     12  C   UNL d   1      28.509 -14.324   3.909  0.00  0.00     0.114 C 
ATOM     13  C   UNL d   1      27.851 -13.170   4.662  0.00  0.00     0.060 C 
ATOM     14  C   UNL d   1      30.009 -14.358   4.197  0.00  0.00     0.060 C 
BRANCH  12  15
ATOM     15  O   UNL d   1      27.916 -15.550   4.312  0.00  0.00    -0.378 OA
ATOM     16  H   UNL d   1      28.527 -16.265   4.071  0.00  0.00     0.211 HD
ENDBRANCH  12  15
ENDBRANCH  11  12
ENDBRANCH  10  11
ENDBRANCH   8  10
ENDBRANCH   1   5
BRANCH   3  17
ATOM     17  C   UNL d   1      24.518 -16.162  -0.958  0.00  0.00     0.147 C 
ATOM     18  C   UNL d   1      25.861 -16.859  -0.906  0.00  0.00    -0.027 C 
ATOM     19  C   UNL d   1      27.029 -16.629  -1.615  0.00  0.00     0.010 C 
ATOM     20  C   UNL d   1      25.838 -17.899   0.010  0.00  0.00    -0.047 C 
ATOM     21  C   UNL d   1      28.236 -17.120  -1.146  0.00  0.00     0.001 C 
ATOM     22  C   UNL d   1      28.234 -18.073  -0.145  0.00  0.00     0.001 C 
ATOM     23  C   UNL d   1      27.019 -18.537   0.370  0.00  0.00     0.008 C 
ATOM     24  C   UNL d   1      24.419 -18.202   0.404  0.00  0.00     0.073 C 
ATOM     25  C   UNL d   1      23.630 -17.408  -0.677  0.00  0.00     0.149 C 
BRANCH  25  26
ATOM     26  O   UNL d   1      23.484 -18.209  -1.867  0.00  0.00    -0.393 OA
ATOM     27  H   UNL d   1      24.156 -17.894  -2.502  0.00  0.00     0.210 HD
ENDBRANCH  25  26
ENDBRANCH   3  17
TORSDOF 7
ENDMDL
