MODEL 1
REMARK VINA RESULT:    -8.699      0.000      0.000
REMARK INTER + INTRA:         -12.856
REMARK INTER:                 -10.787
REMARK INTRA:                  -2.070
REMARK CONF_INDEPENDENT:        2.088
REMARK UNBOUND:                -2.070
REMARK  7 active torsions:
REMARK  status: ('A' for Active; 'I' for Inactive)
REMARK    1  A    between atoms: C_4  and  O_5 
REMARK    2  A    between atoms: O_5  and  C_6 
REMARK    3  A    between atoms: C_6  and  C_7 
REMARK       I    between atoms: C_7  and  N_9 
REMARK    4  A    between atoms: N_9  and  C_10 
REMARK    5  A    between atoms: C_10  and  N_12 
REMARK    6  A    between atoms: N_12  and  N_13 
REMARK       I    between atoms: N_13  and  C_14 
REMARK       I    between atoms: C_14  and  N_16 
REMARK    7  A    between atoms: N_16  and  C_17 
ROOT
ATOM      1  C   UNL d   1      25.982 -16.163  -1.562  0.00  0.00     0.193 C 
ATOM      2  S   UNL d   1      26.998 -16.653  -0.304  0.00  0.00    -0.039 SA
ENDROOT
BRANCH   1   3
ATOM      3  N   UNL d   1      26.420 -15.565  -2.783  0.00  0.00    -0.301 N 
ATOM      4  C   UNL d   1      25.635 -14.734  -3.636  0.00  0.00     0.248 C 
ATOM      5  O   UNL d   1      24.462 -14.449  -3.384  0.00  0.00    -0.271 OA
ATOM      6  H   UNL d   1      27.373 -15.746  -3.070  0.00  0.00     0.171 HD
BRANCH   4   7
ATOM      7  C   UNL d   1      26.254 -14.148  -4.944  0.00  0.00     0.278 C 
BRANCH   7   8
ATOM      8  O   UNL d   1      26.953 -15.212  -5.648  0.00  0.00    -0.342 OA
BRANCH   8   9
ATOM      9  C   UNL d   1      28.256 -15.050  -6.039  0.00  0.00     0.070 A 
ATOM     10  C   UNL d   1      29.287 -15.923  -5.709  0.00  0.00     0.044 A 
ATOM     11  C   UNL d   1      30.610 -15.703  -6.145  0.00  0.00    -0.042 A 
ATOM     12  C   UNL d   1      31.667 -16.689  -5.740  0.00  0.00     0.049 C 
ATOM     13  C   UNL d   1      30.895 -14.577  -6.931  0.00  0.00     0.017 A 
ATOM     14  C   UNL d   1      29.874 -13.689  -7.269  0.00  0.00     0.022 A 
ATOM     15 BR   UNL d   1      32.652 -14.210  -7.556  0.00  0.00    -0.051 Br
ATOM     16  C   UNL d   1      28.563 -13.924  -6.821  0.00  0.00     0.038 A 
ENDBRANCH   8   9
ENDBRANCH   7   8
ENDBRANCH   4   7
ENDBRANCH   1   3
BRANCH   1  17
ATOM     17  N   UNL d   1      24.593 -16.354  -1.416  0.00  0.00    -0.272 N 
ATOM     18  H   UNL d   1      23.851 -15.705  -1.675  0.00  0.00     0.189 HD
BRANCH  17  19
ATOM     19  N   UNL d   1      24.093 -17.603  -0.790  0.00  0.00    -0.249 N 
ATOM     20  C   UNL d   1      22.737 -17.803  -0.569  0.00  0.00     0.339 C 
ATOM     21  O   UNL d   1      21.925 -16.927  -0.895  0.00  0.00    -0.245 OA
ATOM     22  N   UNL d   1      22.403 -19.005   0.063  0.00  0.00    -0.308 N 
ATOM     23  H   UNL d   1      23.131 -19.565   0.488  0.00  0.00     0.170 HD
ATOM     24  H   UNL d   1      24.807 -18.298  -0.580  0.00  0.00     0.192 HD
BRANCH  22  25
ATOM     25  C   UNL d   1      21.055 -19.410   0.324  0.00  0.00     0.036 A 
ATOM     26  C   UNL d   1      20.593 -19.657   1.629  0.00  0.00     0.029 A 
ATOM     27  C   UNL d   1      19.273 -20.102   1.852  0.00  0.00     0.002 A 
ATOM     28  C   UNL d   1      18.401 -20.289   0.780  0.00  0.00     0.000 A 
ATOM     29  C   UNL d   1      18.857 -20.066  -0.514  0.00  0.00     0.002 A 
ATOM     30  C   UNL d   1      20.169 -19.630  -0.735  0.00  0.00     0.029 A 
ENDBRANCH  22  25
ENDBRANCH  17  19
ENDBRANCH   1  17
TORSDOF 7
ENDMDL
MODEL 2
REMARK VINA RESULT:    -8.623      0.614      1.561
REMARK INTER + INTRA:         -12.976
REMARK INTER:                 -10.711
REMARK INTRA:                  -2.265
REMARK CONF_INDEPENDENT:        2.088
REMARK UNBOUND:                -2.265
REMARK  7 active torsions:
REMARK  status: ('A' for Active; 'I' for Inactive)
REMARK    1  A    between atoms: C_4  and  O_5 
REMARK    2  A    between atoms: O_5  and  C_6 
REMARK    3  A    between atoms: C_6  and  C_7 
REMARK       I    between atoms: C_7  and  N_9 
REMARK    4  A    between atoms: N_9  and  C_10 
REMARK    5  A    between atoms: C_10  and  N_12 
REMARK    6  A    between atoms: N_12  and  N_13 
REMARK       I    between atoms: N_13  and  C_14 
REMARK       I    between atoms: C_14  and  N_16 
REMARK    7  A    between atoms: N_16  and  C_17 
ROOT
ATOM      1  C   UNL d   1      25.889 -16.194  -1.525  0.00  0.00     0.193 C 
ATOM      2  S   UNL d   1      26.933 -16.614  -0.266  0.00  0.00    -0.039 SA
ENDROOT
BRANCH   1   3
ATOM      3  N   UNL d   1      26.299 -15.682  -2.794  0.00  0.00    -0.301 N 
ATOM      4  C   UNL d   1      25.530 -14.831  -3.642  0.00  0.00     0.248 C 
ATOM      5  O   UNL d   1      24.397 -14.448  -3.342  0.00  0.00    -0.271 OA
ATOM      6  H   UNL d   1      27.219 -15.946  -3.123  0.00  0.00     0.171 HD
BRANCH   4   7
ATOM      7  C   UNL d   1      26.116 -14.348  -5.006  0.00  0.00     0.278 C 
BRANCH   7   8
ATOM      8  O   UNL d   1      27.214 -15.226  -5.380  0.00  0.00    -0.342 OA
BRANCH   8   9
ATOM      9  C   UNL d   1      28.281 -14.743  -6.091  0.00  0.00     0.070 A 
ATOM     10  C   UNL d   1      28.297 -13.512  -6.739  0.00  0.00     0.044 A 
ATOM     11  C   UNL d   1      29.429 -13.067  -7.454  0.00  0.00    -0.042 A 
ATOM     12  C   UNL d   1      29.364 -11.729  -8.131  0.00  0.00     0.049 C 
ATOM     13  C   UNL d   1      30.566 -13.885  -7.513  0.00  0.00     0.017 A 
ATOM     14  C   UNL d   1      30.567 -15.123  -6.873  0.00  0.00     0.022 A 
ATOM     15 BR   UNL d   1      32.130 -13.359  -8.458  0.00  0.00    -0.051 Br
ATOM     16  C   UNL d   1      29.428 -15.550  -6.169  0.00  0.00     0.038 A 
ENDBRANCH   8   9
ENDBRANCH   7   8
ENDBRANCH   4   7
ENDBRANCH   1   3
BRANCH   1  17
ATOM     17  N   UNL d   1      24.502 -16.358  -1.331  0.00  0.00    -0.272 N 
ATOM     18  H   UNL d   1      23.761 -15.713  -1.604  0.00  0.00     0.189 HD
BRANCH  17  19
ATOM     19  N   UNL d   1      24.005 -17.564  -0.625  0.00  0.00    -0.249 N 
ATOM     20  C   UNL d   1      22.645 -17.809  -0.491  0.00  0.00     0.339 C 
ATOM     21  O   UNL d   1      21.827 -17.010  -0.965  0.00  0.00    -0.245 OA
ATOM     22  N   UNL d   1      22.310 -18.960   0.230  0.00  0.00    -0.308 N 
ATOM     23  H   UNL d   1      23.024 -19.440   0.764  0.00  0.00     0.170 HD
ATOM     24  H   UNL d   1      24.728 -18.199  -0.291  0.00  0.00     0.192 HD
BRANCH  22  25
ATOM     25  C   UNL d   1      20.964 -19.405   0.424  0.00  0.00     0.036 A 
ATOM     26  C   UNL d   1      20.461 -19.714   1.700  0.00  0.00     0.029 A 
ATOM     27  C   UNL d   1      19.144 -20.196   1.856  0.00  0.00     0.002 A 
ATOM     28  C   UNL d   1      18.317 -20.360   0.746  0.00  0.00     0.000 A 
ATOM     29  C   UNL d   1      18.814 -20.075  -0.520  0.00  0.00     0.002 A 
ATOM     30  C   UNL d   1      20.123 -19.602  -0.675  0.00  0.00     0.029 A 
ENDBRANCH  22  25
ENDBRANCH  17  19
ENDBRANCH   1  17
TORSDOF 7
ENDMDL
MODEL 3
REMARK VINA RESULT:    -7.987      8.060      9.971
REMARK INTER + INTRA:         -11.845
REMARK INTER:                 -10.075
REMARK INTRA:                  -1.770
REMARK CONF_INDEPENDENT:        2.088
REMARK UNBOUND:                -1.770
REMARK  7 active torsions:
REMARK  status: ('A' for Active; 'I' for Inactive)
REMARK    1  A    between atoms: C_4  and  O_5 
REMARK    2  A    between atoms: O_5  and  C_6 
REMARK    3  A    between atoms: C_6  and  C_7 
REMARK       I    between atoms: C_7  and  N_9 
REMARK    4  A    between atoms: N_9  and  C_10 
REMARK    5  A    between atoms: C_10  and  N_12 
REMARK    6  A    between atoms: N_12  and  N_13 
REMARK       I    between atoms: N_13  and  C_14 
REMARK       I    between atoms: C_14  and  N_16 
REMARK    7  A    between atoms: N_16  and  C_17 
ROOT
ATOM      1  C   UNL d   1      30.353 -14.425   2.357  0.00  0.00     0.193 C 
ATOM      2  S   UNL d   1      31.405 -13.104   2.346  0.00  0.00    -0.039 SA
ENDROOT
BRANCH   1   3
ATOM      3  N   UNL d   1      29.983 -15.187   1.207  0.00  0.00    -0.301 N 
ATOM      4  C   UNL d   1      29.996 -14.725  -0.142  0.00  0.00     0.248 C 
ATOM      5  O   UNL d   1      30.341 -13.581  -0.446  0.00  0.00    -0.271 OA
ATOM      6  H   UNL d   1      29.684 -16.141   1.361  0.00  0.00     0.171 HD
BRANCH   4   7
ATOM      7  C   UNL d   1      29.563 -15.678  -1.301  0.00  0.00     0.278 C 
BRANCH   7   8
ATOM      8  O   UNL d   1      28.993 -16.886  -0.724  0.00  0.00    -0.342 OA
BRANCH   8   9
ATOM      9  C   UNL d   1      27.634 -17.057  -0.671  0.00  0.00     0.070 A 
ATOM     10  C   UNL d   1      26.718 -16.263  -1.352  0.00  0.00     0.044 A 
ATOM     11  C   UNL d   1      25.329 -16.492  -1.259  0.00  0.00    -0.042 A 
ATOM     12  C   UNL d   1      24.405 -15.586  -2.020  0.00  0.00     0.049 C 
ATOM     13  C   UNL d   1      24.859 -17.546  -0.462  0.00  0.00     0.017 A 
ATOM     14  C   UNL d   1      25.764 -18.351   0.230  0.00  0.00     0.022 A 
ATOM     15 BR   UNL d   1      23.004 -17.918  -0.285  0.00  0.00    -0.051 Br
ATOM     16  C   UNL d   1      27.143 -18.104   0.128  0.00  0.00     0.038 A 
ENDBRANCH   8   9
ENDBRANCH   7   8
ENDBRANCH   4   7
ENDBRANCH   1   3
BRANCH   1  17
ATOM     17  N   UNL d   1      29.790 -14.825   3.586  0.00  0.00    -0.272 N 
ATOM     18  H   UNL d   1      28.961 -15.402   3.726  0.00  0.00     0.189 HD
BRANCH  17  19
ATOM     19  N   UNL d   1      30.405 -14.357   4.853  0.00  0.00    -0.249 N 
ATOM     20  C   UNL d   1      29.687 -14.353   6.041  0.00  0.00     0.339 C 
ATOM     21  O   UNL d   1      28.512 -14.743   6.051  0.00  0.00    -0.245 OA
ATOM     22  N   UNL d   1      30.370 -13.851   7.154  0.00  0.00    -0.308 N 
ATOM     23  H   UNL d   1      31.243 -13.357   7.022  0.00  0.00     0.170 HD
ATOM     24  H   UNL d   1      31.384 -14.085   4.785  0.00  0.00     0.192 HD
BRANCH  22  25
ATOM     25  C   UNL d   1      29.813 -13.819   8.472  0.00  0.00     0.036 A 
ATOM     26  C   UNL d   1      30.265 -14.678   9.490  0.00  0.00     0.029 A 
ATOM     27  C   UNL d   1      29.664 -14.657  10.766  0.00  0.00     0.002 A 
ATOM     28  C   UNL d   1      28.622 -13.773  11.042  0.00  0.00     0.000 A 
ATOM     29  C   UNL d   1      28.158 -12.936  10.034  0.00  0.00     0.002 A 
ATOM     30  C   UNL d   1      28.750 -12.960   8.766  0.00  0.00     0.029 A 
ENDBRANCH  22  25
ENDBRANCH  17  19
ENDBRANCH   1  17
TORSDOF 7
ENDMDL
MODEL 4
REMARK VINA RESULT:    -7.915      3.385      4.517
REMARK INTER + INTRA:         -12.079
REMARK INTER:                 -10.004
REMARK INTRA:                  -2.075
REMARK CONF_INDEPENDENT:        2.088
REMARK UNBOUND:                -2.075
REMARK  7 active torsions:
REMARK  status: ('A' for Active; 'I' for Inactive)
REMARK    1  A    between atoms: C_4  and  O_5 
REMARK    2  A    between atoms: O_5  and  C_6 
REMARK    3  A    between atoms: C_6  and  C_7 
REMARK       I    between atoms: C_7  and  N_9 
REMARK    4  A    between atoms: N_9  and  C_10 
REMARK    5  A    between atoms: C_10  and  N_12 
REMARK    6  A    between atoms: N_12  and  N_13 
REMARK       I    between atoms: N_13  and  C_14 
REMARK       I    between atoms: C_14  and  N_16 
REMARK    7  A    between atoms: N_16  and  C_17 
ROOT
ATOM      1  C   UNL d   1      25.777 -17.241  -1.127  0.00  0.00     0.193 C 
ATOM      2  S   UNL d   1      26.399 -18.198   0.118  0.00  0.00    -0.039 SA
ENDROOT
BRANCH   1   3
ATOM      3  N   UNL d   1      26.541 -16.334  -1.923  0.00  0.00    -0.301 N 
ATOM      4  C   UNL d   1      26.021 -15.442  -2.908  0.00  0.00     0.248 C 
ATOM      5  O   UNL d   1      24.818 -15.375  -3.169  0.00  0.00    -0.271 OA
ATOM      6  H   UNL d   1      27.542 -16.321  -1.777  0.00  0.00     0.171 HD
BRANCH   4   7
ATOM      7  C   UNL d   1      26.984 -14.504  -3.702  0.00  0.00     0.278 C 
BRANCH   7   8
ATOM      8  O   UNL d   1      27.342 -13.377  -2.855  0.00  0.00    -0.342 OA
BRANCH   8   9
ATOM      9  C   UNL d   1      27.571 -13.557  -1.516  0.00  0.00     0.070 A 
ATOM     10  C   UNL d   1      28.644 -14.271  -0.994  0.00  0.00     0.044 A 
ATOM     11  C   UNL d   1      28.828 -14.419   0.396  0.00  0.00    -0.042 A 
ATOM     12  C   UNL d   1      30.008 -15.210   0.879  0.00  0.00     0.049 C 
ATOM     13  C   UNL d   1      27.907 -13.833   1.276  0.00  0.00     0.017 A 
ATOM     14  C   UNL d   1      26.822 -13.116   0.771  0.00  0.00     0.022 A 
ATOM     15 BR   UNL d   1      28.083 -13.988   3.162  0.00  0.00    -0.051 Br
ATOM     16  C   UNL d   1      26.655 -12.983  -0.618  0.00  0.00     0.038 A 
ENDBRANCH   8   9
ENDBRANCH   7   8
ENDBRANCH   4   7
ENDBRANCH   1   3
BRANCH   1  17
ATOM     17  N   UNL d   1      24.401 -17.332  -1.420  0.00  0.00    -0.272 N 
ATOM     18  H   UNL d   1      23.954 -17.205  -2.328  0.00  0.00     0.189 HD
BRANCH  17  19
ATOM     19  N   UNL d   1      23.441 -17.605  -0.323  0.00  0.00    -0.249 N 
ATOM     20  C   UNL d   1      22.343 -18.431  -0.518  0.00  0.00     0.339 C 
ATOM     21  O   UNL d   1      22.153 -18.951  -1.626  0.00  0.00    -0.245 OA
ATOM     22  N   UNL d   1      21.495 -18.575   0.585  0.00  0.00    -0.308 N 
ATOM     23  H   UNL d   1      21.599 -17.954   1.378  0.00  0.00     0.170 HD
ATOM     24  H   UNL d   1      23.674 -17.179   0.572  0.00  0.00     0.192 HD
BRANCH  22  25
ATOM     25  C   UNL d   1      20.346 -19.427   0.590  0.00  0.00     0.036 A 
ATOM     26  C   UNL d   1      19.575 -19.642  -0.566  0.00  0.00     0.029 A 
ATOM     27  C   UNL d   1      18.419 -20.450  -0.519  0.00  0.00     0.002 A 
ATOM     28  C   UNL d   1      18.031 -21.059   0.673  0.00  0.00     0.000 A 
ATOM     29  C   UNL d   1      18.777 -20.835   1.824  0.00  0.00     0.002 A 
ATOM     30  C   UNL d   1      19.921 -20.029   1.780  0.00  0.00     0.029 A 
ENDBRANCH  22  25
ENDBRANCH  17  19
ENDBRANCH   1  17
TORSDOF 7
ENDMDL
MODEL 5
REMARK VINA RESULT:    -7.534      1.449      2.148
REMARK INTER + INTRA:         -12.067
REMARK INTER:                  -9.622
REMARK INTRA:                  -2.445
REMARK CONF_INDEPENDENT:        2.088
REMARK UNBOUND:                -2.445
REMARK  7 active torsions:
REMARK  status: ('A' for Active; 'I' for Inactive)
REMARK    1  A    between atoms: C_4  and  O_5 
REMARK    2  A    between atoms: O_5  and  C_6 
REMARK    3  A    between atoms: C_6  and  C_7 
REMARK       I    between atoms: C_7  and  N_9 
REMARK    4  A    between atoms: N_9  and  C_10 
REMARK    5  A    between atoms: C_10  and  N_12 
REMARK    6  A    between atoms: N_12  and  N_13 
REMARK       I    between atoms: N_13  and  C_14 
REMARK       I    between atoms: C_14  and  N_16 
REMARK    7  A    between atoms: N_16  and  C_17 
ROOT
ATOM      1  C   UNL d   1      26.215 -16.101  -1.393  0.00  0.00     0.193 C 
ATOM      2  S   UNL d   1      27.011 -16.490   0.045  0.00  0.00    -0.039 SA
ENDROOT
BRANCH   1   3
ATOM      3  N   UNL d   1      26.825 -15.476  -2.524  0.00  0.00    -0.301 N 
ATOM      4  C   UNL d   1      26.140 -14.947  -3.658  0.00  0.00     0.248 C 
ATOM      5  O   UNL d   1      24.913 -14.985  -3.766  0.00  0.00    -0.271 OA
ATOM      6  H   UNL d   1      27.834 -15.402  -2.522  0.00  0.00     0.171 HD
BRANCH   4   7
ATOM      7  C   UNL d   1      26.945 -14.289  -4.822  0.00  0.00     0.278 C 
BRANCH   7   8
ATOM      8  O   UNL d   1      28.362 -14.324  -4.489  0.00  0.00    -0.342 OA
BRANCH   8   9
ATOM      9  C   UNL d   1      29.130 -15.408  -4.827  0.00  0.00     0.070 A 
ATOM     10  C   UNL d   1      29.815 -15.537  -6.030  0.00  0.00     0.044 A 
ATOM     11  C   UNL d   1      30.593 -16.677  -6.319  0.00  0.00    -0.042 A 
ATOM     12  C   UNL d   1      31.297 -16.743  -7.643  0.00  0.00     0.049 C 
ATOM     13  C   UNL d   1      30.679 -17.706  -5.371  0.00  0.00     0.017 A 
ATOM     14  C   UNL d   1      29.996 -17.596  -4.160  0.00  0.00     0.022 A 
ATOM     15 BR   UNL d   1      31.705 -19.275  -5.685  0.00  0.00    -0.051 Br
ATOM     16  C   UNL d   1      29.223 -16.453  -3.893  0.00  0.00     0.038 A 
ENDBRANCH   8   9
ENDBRANCH   7   8
ENDBRANCH   4   7
ENDBRANCH   1   3
BRANCH   1  17
ATOM     17  N   UNL d   1      24.845 -16.412  -1.507  0.00  0.00    -0.272 N 
ATOM     18  H   UNL d   1      24.135 -15.890  -2.020  0.00  0.00     0.189 HD
BRANCH  17  19
ATOM     19  N   UNL d   1      24.308 -17.598  -0.797  0.00  0.00    -0.249 N 
ATOM     20  C   UNL d   1      22.940 -17.804  -0.675  0.00  0.00     0.339 C 
ATOM     21  O   UNL d   1      22.149 -16.986  -1.163  0.00  0.00    -0.245 OA
ATOM     22  N   UNL d   1      22.566 -18.939   0.051  0.00  0.00    -0.308 N 
ATOM     23  H   UNL d   1      23.261 -19.435   0.596  0.00  0.00     0.170 HD
ATOM     24  H   UNL d   1      25.009 -18.251  -0.452  0.00  0.00     0.192 HD
BRANCH  22  25
ATOM     25  C   UNL d   1      21.206 -19.344   0.236  0.00  0.00     0.036 A 
ATOM     26  C   UNL d   1      20.362 -19.629  -0.852  0.00  0.00     0.029 A 
ATOM     27  C   UNL d   1      19.011 -19.980  -0.642  0.00  0.00     0.002 A 
ATOM     28  C   UNL d   1      18.497 -20.063   0.652  0.00  0.00     0.000 A 
ATOM     29  C   UNL d   1      19.321 -19.764   1.730  0.00  0.00     0.002 A 
ATOM     30  C   UNL d   1      20.659 -19.410   1.521  0.00  0.00     0.029 A 
ENDBRANCH  22  25
ENDBRANCH  17  19
ENDBRANCH   1  17
TORSDOF 7
ENDMDL
MODEL 6
REMARK VINA RESULT:    -7.441      2.591      3.155
REMARK INTER + INTRA:         -11.980
REMARK INTER:                  -9.529
REMARK INTRA:                  -2.450
REMARK CONF_INDEPENDENT:        2.088
REMARK UNBOUND:                -2.450
REMARK  7 active torsions:
REMARK  status: ('A' for Active; 'I' for Inactive)
REMARK    1  A    between atoms: C_4  and  O_5 
REMARK    2  A    between atoms: O_5  and  C_6 
REMARK    3  A    between atoms: C_6  and  C_7 
REMARK       I    between atoms: C_7  and  N_9 
REMARK    4  A    between atoms: N_9  and  C_10 
REMARK    5  A    between atoms: C_10  and  N_12 
REMARK    6  A    between atoms: N_12  and  N_13 
REMARK       I    between atoms: N_13  and  C_14 
REMARK       I    between atoms: C_14  and  N_16 
REMARK    7  A    between atoms: N_16  and  C_17 
ROOT
ATOM      1  C   UNL d   1      25.749 -16.177  -1.857  0.00  0.00     0.193 C 
ATOM      2  S   UNL d   1      24.882 -14.986  -2.684  0.00  0.00    -0.039 SA
ENDROOT
BRANCH   1   3
ATOM      3  N   UNL d   1      27.172 -16.298  -1.850  0.00  0.00    -0.301 N 
ATOM      4  C   UNL d   1      27.935 -17.140  -0.989  0.00  0.00     0.248 C 
ATOM      5  O   UNL d   1      27.413 -17.865  -0.140  0.00  0.00    -0.271 OA
ATOM      6  H   UNL d   1      27.686 -15.737  -2.516  0.00  0.00     0.171 HD
BRANCH   4   7
ATOM      7  C   UNL d   1      29.493 -17.168  -1.099  0.00  0.00     0.278 C 
BRANCH   7   8
ATOM      8  O   UNL d   1      29.889 -16.441  -2.296  0.00  0.00    -0.342 OA
BRANCH   8   9
ATOM      9  C   UNL d   1      30.200 -17.114  -3.448  0.00  0.00     0.070 A 
ATOM     10  C   UNL d   1      30.747 -18.392  -3.486  0.00  0.00     0.044 A 
ATOM     11  C   UNL d   1      31.043 -19.034  -4.706  0.00  0.00    -0.042 A 
ATOM     12  C   UNL d   1      31.638 -20.412  -4.661  0.00  0.00     0.049 C 
ATOM     13  C   UNL d   1      30.779 -18.370  -5.912  0.00  0.00     0.017 A 
ATOM     14  C   UNL d   1      30.234 -17.086  -5.894  0.00  0.00     0.022 A 
ATOM     15 BR   UNL d   1      31.151 -19.166  -7.597  0.00  0.00    -0.051 Br
ATOM     16  C   UNL d   1      29.950 -16.462  -4.668  0.00  0.00     0.038 A 
ENDBRANCH   8   9
ENDBRANCH   7   8
ENDBRANCH   4   7
ENDBRANCH   1   3
BRANCH   1  17
ATOM     17  N   UNL d   1      25.031 -17.130  -1.108  0.00  0.00    -0.272 N 
ATOM     18  H   UNL d   1      25.411 -17.810  -0.449  0.00  0.00     0.189 HD
BRANCH  17  19
ATOM     19  N   UNL d   1      23.560 -17.230  -1.277  0.00  0.00    -0.249 N 
ATOM     20  C   UNL d   1      22.815 -18.150  -0.553  0.00  0.00     0.339 C 
ATOM     21  O   UNL d   1      23.380 -18.905   0.250  0.00  0.00    -0.245 OA
ATOM     22  N   UNL d   1      21.445 -18.169  -0.835  0.00  0.00    -0.308 N 
ATOM     23  H   UNL d   1      21.096 -17.677  -1.648  0.00  0.00     0.170 HD
ATOM     24  H   UNL d   1      23.152 -16.557  -1.923  0.00  0.00     0.192 HD
BRANCH  22  25
ATOM     25  C   UNL d   1      20.510 -19.009  -0.150  0.00  0.00     0.036 A 
ATOM     26  C   UNL d   1      20.655 -19.325   1.212  0.00  0.00     0.029 A 
ATOM     27  C   UNL d   1      19.744 -20.195   1.849  0.00  0.00     0.002 A 
ATOM     28  C   UNL d   1      18.677 -20.743   1.138  0.00  0.00     0.000 A 
ATOM     29  C   UNL d   1      18.540 -20.451  -0.214  0.00  0.00     0.002 A 
ATOM     30  C   UNL d   1      19.447 -19.592  -0.847  0.00  0.00     0.029 A 
ENDBRANCH  22  25
ENDBRANCH  17  19
ENDBRANCH   1  17
TORSDOF 7
ENDMDL
MODEL 7
REMARK VINA RESULT:    -7.318      4.646      8.856
REMARK INTER + INTRA:         -11.796
REMARK INTER:                  -9.406
REMARK INTRA:                  -2.390
REMARK CONF_INDEPENDENT:        2.088
REMARK UNBOUND:                -2.390
REMARK  7 active torsions:
REMARK  status: ('A' for Active; 'I' for Inactive)
REMARK    1  A    between atoms: C_4  and  O_5 
REMARK    2  A    between atoms: O_5  and  C_6 
REMARK    3  A    between atoms: C_6  and  C_7 
REMARK       I    between atoms: C_7  and  N_9 
REMARK    4  A    between atoms: N_9  and  C_10 
REMARK    5  A    between atoms: C_10  and  N_12 
REMARK    6  A    between atoms: N_12  and  N_13 
REMARK       I    between atoms: N_13  and  C_14 
REMARK       I    between atoms: C_14  and  N_16 
REMARK    7  A    between atoms: N_16  and  C_17 
ROOT
ATOM      1  C   UNL d   1      27.822 -12.391  -6.237  0.00  0.00     0.193 C 
ATOM      2  S   UNL d   1      28.662 -11.021  -5.715  0.00  0.00    -0.039 SA
ENDROOT
BRANCH   1   3
ATOM      3  N   UNL d   1      26.814 -13.069  -5.485  0.00  0.00    -0.301 N 
ATOM      4  C   UNL d   1      25.836 -12.452  -4.651  0.00  0.00     0.248 C 
ATOM      5  O   UNL d   1      25.772 -11.231  -4.498  0.00  0.00    -0.271 OA
ATOM      6  H   UNL d   1      26.792 -14.078  -5.549  0.00  0.00     0.171 HD
BRANCH   4   7
ATOM      7  C   UNL d   1      24.792 -13.329  -3.888  0.00  0.00     0.278 C 
BRANCH   7   8
ATOM      8  O   UNL d   1      25.149 -14.730  -4.054  0.00  0.00    -0.342 OA
BRANCH   8   9
ATOM      9  C   UNL d   1      25.413 -15.515  -2.962  0.00  0.00     0.070 A 
ATOM     10  C   UNL d   1      24.438 -16.038  -2.119  0.00  0.00     0.044 A 
ATOM     11  C   UNL d   1      24.773 -16.843  -1.011  0.00  0.00    -0.042 A 
ATOM     12  C   UNL d   1      23.663 -17.364  -0.146  0.00  0.00     0.049 C 
ATOM     13  C   UNL d   1      26.122 -17.125  -0.752  0.00  0.00     0.017 A 
ATOM     14  C   UNL d   1      27.114 -16.607  -1.585  0.00  0.00     0.022 A 
ATOM     15 BR   UNL d   1      26.656 -18.200   0.721  0.00  0.00    -0.051 Br
ATOM     16  C   UNL d   1      26.759 -15.803  -2.681  0.00  0.00     0.038 A 
ENDBRANCH   8   9
ENDBRANCH   7   8
ENDBRANCH   4   7
ENDBRANCH   1   3
BRANCH   1  17
ATOM     17  N   UNL d   1      28.120 -12.917  -7.509  0.00  0.00    -0.272 N 
ATOM     18  H   UNL d   1      27.648 -12.710  -8.389  0.00  0.00     0.189 HD
BRANCH  17  19
ATOM     19  N   UNL d   1      29.210 -13.915  -7.646  0.00  0.00    -0.249 N 
ATOM     20  C   UNL d   1      29.225 -15.072  -6.878  0.00  0.00     0.339 C 
ATOM     21  O   UNL d   1      28.317 -15.281  -6.063  0.00  0.00    -0.245 OA
ATOM     22  N   UNL d   1      30.327 -15.909  -7.076  0.00  0.00    -0.308 N 
ATOM     23  H   UNL d   1      31.126 -15.569  -7.596  0.00  0.00     0.170 HD
ATOM     24  H   UNL d   1      29.905 -13.702  -8.359  0.00  0.00     0.192 HD
BRANCH  22  25
ATOM     25  C   UNL d   1      30.488 -17.170  -6.417  0.00  0.00     0.036 A 
ATOM     26  C   UNL d   1      30.776 -18.348  -7.129  0.00  0.00     0.029 A 
ATOM     27  C   UNL d   1      30.882 -19.585  -6.458  0.00  0.00     0.002 A 
ATOM     28  C   UNL d   1      30.716 -19.654  -5.075  0.00  0.00     0.000 A 
ATOM     29  C   UNL d   1      30.411 -18.497  -4.369  0.00  0.00     0.002 A 
ATOM     30  C   UNL d   1      30.301 -17.270  -5.035  0.00  0.00     0.029 A 
ENDBRANCH  22  25
ENDBRANCH  17  19
ENDBRANCH   1  17
TORSDOF 7
ENDMDL
MODEL 8
REMARK VINA RESULT:    -6.672      4.040      5.858
REMARK INTER + INTRA:         -11.760
REMARK INTER:                  -8.760
REMARK INTRA:                  -3.000
REMARK CONF_INDEPENDENT:        2.088
REMARK UNBOUND:                -3.000
REMARK  7 active torsions:
REMARK  status: ('A' for Active; 'I' for Inactive)
REMARK    1  A    between atoms: C_4  and  O_5 
REMARK    2  A    between atoms: O_5  and  C_6 
REMARK    3  A    between atoms: C_6  and  C_7 
REMARK       I    between atoms: C_7  and  N_9 
REMARK    4  A    between atoms: N_9  and  C_10 
REMARK    5  A    between atoms: C_10  and  N_12 
REMARK    6  A    between atoms: N_12  and  N_13 
REMARK       I    between atoms: N_13  and  C_14 
REMARK       I    between atoms: C_14  and  N_16 
REMARK    7  A    between atoms: N_16  and  C_17 
ROOT
ATOM      1  C   UNL d   1      26.823 -12.354  -5.421  0.00  0.00     0.193 C 
ATOM      2  S   UNL d   1      26.844 -11.324  -6.761  0.00  0.00    -0.039 SA
ENDROOT
BRANCH   1   3
ATOM      3  N   UNL d   1      27.850 -13.289  -5.091  0.00  0.00    -0.301 N 
ATOM      4  C   UNL d   1      27.803 -14.697  -5.314  0.00  0.00     0.248 C 
ATOM      5  O   UNL d   1      26.832 -15.252  -5.833  0.00  0.00    -0.271 OA
ATOM      6  H   UNL d   1      28.688 -12.922  -4.658  0.00  0.00     0.171 HD
BRANCH   4   7
ATOM      7  C   UNL d   1      29.010 -15.597  -4.899  0.00  0.00     0.278 C 
BRANCH   7   8
ATOM      8  O   UNL d   1      29.801 -14.887  -3.905  0.00  0.00    -0.342 OA
BRANCH   8   9
ATOM      9  C   UNL d   1      29.328 -14.716  -2.631  0.00  0.00     0.070 A 
ATOM     10  C   UNL d   1      28.755 -13.540  -2.160  0.00  0.00     0.044 A 
ATOM     11  C   UNL d   1      28.283 -13.426  -0.836  0.00  0.00    -0.042 A 
ATOM     12  C   UNL d   1      27.683 -12.120  -0.403  0.00  0.00     0.049 C 
ATOM     13  C   UNL d   1      28.393 -14.525   0.028  0.00  0.00     0.017 A 
ATOM     14  C   UNL d   1      28.968 -15.712  -0.426  0.00  0.00     0.022 A 
ATOM     15 BR   UNL d   1      27.782 -14.450   1.826  0.00  0.00    -0.051 Br
ATOM     16  C   UNL d   1      29.435 -15.803  -1.748  0.00  0.00     0.038 A 
ENDBRANCH   8   9
ENDBRANCH   7   8
ENDBRANCH   4   7
ENDBRANCH   1   3
BRANCH   1  17
ATOM     17  N   UNL d   1      25.717 -12.298  -4.550  0.00  0.00    -0.272 N 
ATOM     18  H   UNL d   1      24.819 -11.845  -4.720  0.00  0.00     0.189 HD
BRANCH  17  19
ATOM     19  N   UNL d   1      25.818 -12.918  -3.206  0.00  0.00    -0.249 N 
ATOM     20  C   UNL d   1      25.321 -14.192  -2.963  0.00  0.00     0.339 C 
ATOM     21  O   UNL d   1      24.780 -14.826  -3.879  0.00  0.00    -0.245 OA
ATOM     22  N   UNL d   1      25.445 -14.644  -1.645  0.00  0.00    -0.308 N 
ATOM     23  H   UNL d   1      25.701 -13.990  -0.915  0.00  0.00     0.170 HD
ATOM     24  H   UNL d   1      26.307 -12.361  -2.508  0.00  0.00     0.192 HD
BRANCH  22  25
ATOM     25  C   UNL d   1      25.041 -15.948  -1.218  0.00  0.00     0.036 A 
ATOM     26  C   UNL d   1      23.699 -16.365  -1.271  0.00  0.00     0.029 A 
ATOM     27  C   UNL d   1      23.323 -17.640  -0.798  0.00  0.00     0.002 A 
ATOM     28  C   UNL d   1      24.282 -18.512  -0.283  0.00  0.00     0.000 A 
ATOM     29  C   UNL d   1      25.607 -18.099  -0.209  0.00  0.00     0.002 A 
ATOM     30  C   UNL d   1      25.979 -16.832  -0.674  0.00  0.00     0.029 A 
ENDBRANCH  22  25
ENDBRANCH  17  19
ENDBRANCH   1  17
TORSDOF 7
ENDMDL
MODEL 9
REMARK VINA RESULT:    -6.503      4.890      7.762
REMARK INTER + INTRA:         -11.680
REMARK INTER:                  -8.591
REMARK INTRA:                  -3.089
REMARK CONF_INDEPENDENT:        2.088
REMARK UNBOUND:                -3.089
REMARK  7 active torsions:
REMARK  status: ('A' for Active; 'I' for Inactive)
REMARK    1  A    between atoms: C_4  and  O_5 
REMARK    2  A    between atoms: O_5  and  C_6 
REMARK    3  A    between atoms: C_6  and  C_7 
REMARK       I    between atoms: C_7  and  N_9 
REMARK    4  A    between atoms: N_9  and  C_10 
REMARK    5  A    between atoms: C_10  and  N_12 
REMARK    6  A    between atoms: N_12  and  N_13 
REMARK       I    between atoms: N_13  and  C_14 
REMARK       I    between atoms: C_14  and  N_16 
REMARK    7  A    between atoms: N_16  and  C_17 
ROOT
ATOM      1  C   UNL d   1      30.137 -16.972  -3.008  0.00  0.00     0.193 C 
ATOM      2  S   UNL d   1      30.708 -17.909  -4.292  0.00  0.00    -0.039 SA
ENDROOT
BRANCH   1   3
ATOM      3  N   UNL d   1      29.024 -16.080  -3.075  0.00  0.00    -0.301 N 
ATOM      4  C   UNL d   1      28.409 -15.599  -4.269  0.00  0.00     0.248 C 
ATOM      5  O   UNL d   1      28.802 -15.922  -5.392  0.00  0.00    -0.271 OA
ATOM      6  H   UNL d   1      28.634 -15.760  -2.199  0.00  0.00     0.171 HD
BRANCH   4   7
ATOM      7  C   UNL d   1      27.192 -14.624  -4.185  0.00  0.00     0.278 C 
BRANCH   7   8
ATOM      8  O   UNL d   1      26.863 -14.406  -2.785  0.00  0.00    -0.342 OA
BRANCH   8   9
ATOM      9  C   UNL d   1      26.069 -15.295  -2.109  0.00  0.00     0.070 A 
ATOM     10  C   UNL d   1      26.548 -16.276  -1.248  0.00  0.00     0.044 A 
ATOM     11  C   UNL d   1      25.678 -17.161  -0.578  0.00  0.00    -0.042 A 
ATOM     12  C   UNL d   1      26.275 -18.197   0.329  0.00  0.00     0.049 C 
ATOM     13  C   UNL d   1      24.295 -17.049  -0.783  0.00  0.00     0.017 A 
ATOM     14  C   UNL d   1      23.797 -16.073  -1.645  0.00  0.00     0.022 A 
ATOM     15 BR   UNL d   1      23.058 -18.204   0.081  0.00  0.00    -0.051 Br
ATOM     16  C   UNL d   1      24.681 -15.203  -2.306  0.00  0.00     0.038 A 
ENDBRANCH   8   9
ENDBRANCH   7   8
ENDBRANCH   4   7
ENDBRANCH   1   3
BRANCH   1  17
ATOM     17  N   UNL d   1      30.795 -17.066  -1.765  0.00  0.00    -0.272 N 
ATOM     18  H   UNL d   1      31.776 -17.289  -1.601  0.00  0.00     0.189 HD
BRANCH  17  19
ATOM     19  N   UNL d   1      30.019 -16.865  -0.516  0.00  0.00    -0.249 N 
ATOM     20  C   UNL d   1      29.494 -15.622  -0.189  0.00  0.00     0.339 C 
ATOM     21  O   UNL d   1      29.673 -14.659  -0.947  0.00  0.00    -0.245 OA
ATOM     22  N   UNL d   1      28.818 -15.558   1.034  0.00  0.00    -0.308 N 
ATOM     23  H   UNL d   1      28.900 -16.325   1.690  0.00  0.00     0.170 HD
ATOM     24  H   UNL d   1      29.876 -17.702   0.045  0.00  0.00     0.192 HD
BRANCH  22  25
ATOM     25  C   UNL d   1      28.164 -14.379   1.513  0.00  0.00     0.036 A 
ATOM     26  C   UNL d   1      27.387 -13.566   0.668  0.00  0.00     0.029 A 
ATOM     27  C   UNL d   1      26.793 -12.383   1.157  0.00  0.00     0.002 A 
ATOM     28  C   UNL d   1      26.956 -12.010   2.490  0.00  0.00     0.000 A 
ATOM     29  C   UNL d   1      27.739 -12.798   3.325  0.00  0.00     0.002 A 
ATOM     30  C   UNL d   1      28.333 -13.969   2.839  0.00  0.00     0.029 A 
ENDBRANCH  22  25
ENDBRANCH  17  19
ENDBRANCH   1  17
TORSDOF 7
ENDMDL
