MODEL 1
REMARK VINA RESULT:   -11.759      0.000      0.000
REMARK INTER + INTRA:         -17.344
REMARK INTER:                 -14.742
REMARK INTRA:                  -2.602
REMARK CONF_INDEPENDENT:        2.983
REMARK UNBOUND:                -2.602
REMARK  10 active torsions:
REMARK  status: ('A' for Active; 'I' for Inactive)
REMARK    1  A    between atoms: N_1  and  C_2 
REMARK    2  A    between atoms: C_6  and  N_7 
REMARK    3  A    between atoms: C_10  and  C_11 
REMARK    4  A    between atoms: C_11  and  N_12 
REMARK    5  A    between atoms: C_17  and  C_18 
REMARK       I    between atoms: C_18  and  N_20 
REMARK    6  A    between atoms: N_20  and  N_21 
REMARK    7  A    between atoms: C_22  and  C_23 
REMARK    8  A    between atoms: C_26  and  O_27 
REMARK    9  A    between atoms: O_27  and  C_28 
REMARK   10  A    between atoms: C_28  and  C_29 
ROOT
ATOM      1  C   UNL d   1      29.730 -15.834   0.216  0.00  0.00     0.292 C 
ATOM      2  O   UNL d   1      29.354 -14.705  -0.028  0.00  0.00    -0.264 OA
ATOM      3  N   UNL d   1      28.885 -17.085   0.174  0.00  0.00    -0.242 N 
ATOM      4  H   UNL d   1      29.275 -18.003   0.227  0.00  0.00     0.192 HD
ENDROOT
BRANCH   1   5
ATOM      5  C   UNL d   1      30.943 -15.249   0.480  0.00  0.00     0.153 C 
ATOM      6  C   UNL d   1      31.246 -14.380   1.597  0.00  0.00     0.112 C 
ATOM      7  N   UNL d   1      32.604 -14.421   1.635  0.00  0.00    -0.160 NA
ATOM      8  N   UNL d   1      33.036 -15.260   0.634  0.00  0.00     0.012 NA
ATOM      9  N   UNL d   1      32.001 -15.644  -0.171  0.00  0.00    -0.207 N 
BRANCH   6  10
ATOM     10  C   UNL d   1      30.193 -13.668   2.730  0.00  0.00     0.297 C 
BRANCH  10  11
ATOM     11  N   UNL d   1      29.183 -14.674   3.774  0.00  0.00    -0.066 N 
ATOM     12  C   UNL d   1      27.636 -13.900   4.083  0.00  0.00     0.235 C 
ATOM     13  C   UNL d   1      27.678 -13.217   5.435  0.00  0.00     0.029 C 
ATOM     14  C   UNL d   1      29.098 -14.174   6.322  0.00  0.00     0.029 C 
ATOM     15  C   UNL d   1      29.994 -14.921   5.243  0.00  0.00     0.235 C 
ATOM     16  H   UNL d   1      29.015 -15.567   3.295  0.00  0.00     0.280 HD
ENDBRANCH  10  11
ENDBRANCH   6  10
BRANCH   9  17
ATOM     17  C   UNL d   1      31.752 -16.502  -1.317  0.00  0.00     0.225 C 
ATOM     18  N   UNL d   1      31.727 -17.829  -1.095  0.00  0.00    -0.081 NA
ATOM     19  O   UNL d   1      31.116 -18.381  -2.225  0.00  0.00    -0.103 OA
ATOM     20  N   UNL d   1      30.510 -17.407  -3.005  0.00  0.00    -0.083 NA
ATOM     21  C   UNL d   1      30.849 -16.235  -2.458  0.00  0.00     0.201 C 
BRANCH  21  22
ATOM     22  N   UNL d   1      30.122 -15.127  -2.777  0.00  0.00    -0.379 N 
ATOM     23  H   UNL d   1      29.673 -15.054  -3.699  0.00  0.00     0.158 HD
ATOM     24  H   UNL d   1      29.819 -14.393  -2.149  0.00  0.00     0.158 HD
ENDBRANCH  21  22
ENDBRANCH   9  17
ENDBRANCH   1   5
BRANCH   3  25
ATOM     25  N   UNL d   1      27.472 -17.198  -0.402  0.00  0.00    -0.183 NA
ATOM     26  C   UNL d   1      26.408 -17.400   0.312  0.00  0.00     0.150 C 
BRANCH  26  27
ATOM     27  C   UNL d   1      25.019 -17.667  -0.250  0.00  0.00    -0.017 A 
ATOM     28  C   UNL d   1      24.235 -16.557  -0.568  0.00  0.00     0.015 A 
ATOM     29  C   UNL d   1      22.846 -16.688  -0.763  0.00  0.00     0.037 A 
ATOM     30  C   UNL d   1      22.236 -17.948  -0.782  0.00  0.00     0.069 A 
ATOM     31  C   UNL d   1      23.019 -19.067  -0.520  0.00  0.00     0.037 A 
ATOM     32  C   UNL d   1      24.402 -18.932  -0.265  0.00  0.00     0.015 A 
BRANCH  30  33
ATOM     33  O   UNL d   1      20.903 -17.974  -1.084  0.00  0.00    -0.347 OA
BRANCH  33  34
ATOM     34  C   UNL d   1      20.280 -19.262  -1.251  0.00  0.00     0.214 C 
BRANCH  34  35
ATOM     35  C   UNL d   1      19.687 -19.662   0.075  0.00  0.00    -0.031 C 
ATOM     36  C   UNL d   1      20.298 -19.324   1.291  0.00  0.00     0.009 C 
ATOM     37  C   UNL d   1      19.905 -19.964   2.469  0.00  0.00     0.004 C 
ATOM     38  C   UNL d   1      18.801 -20.815   2.469  0.00  0.00     0.042 C 
ATOM     39  C   UNL d   1      18.137 -21.071   1.278  0.00  0.00     0.117 C 
ATOM     40  F   UNL d   1      17.117 -21.938   1.258  0.00  0.00    -0.206 F 
ATOM     41  C   UNL d   1      18.562 -20.497   0.088  0.00  0.00     0.051 C 
ENDBRANCH  34  35
ENDBRANCH  33  34
ENDBRANCH  30  33
ENDBRANCH  26  27
ENDBRANCH   3  25
TORSDOF 10
ENDMDL
MODEL 2
REMARK VINA RESULT:   -11.077      3.722      5.232
REMARK INTER + INTRA:         -16.296
REMARK INTER:                 -14.060
REMARK INTRA:                  -2.235
REMARK CONF_INDEPENDENT:        2.983
REMARK UNBOUND:                -2.235
REMARK  10 active torsions:
REMARK  status: ('A' for Active; 'I' for Inactive)
REMARK    1  A    between atoms: N_1  and  C_2 
REMARK    2  A    between atoms: C_6  and  N_7 
REMARK    3  A    between atoms: C_10  and  C_11 
REMARK    4  A    between atoms: C_11  and  N_12 
REMARK    5  A    between atoms: C_17  and  C_18 
REMARK       I    between atoms: C_18  and  N_20 
REMARK    6  A    between atoms: N_20  and  N_21 
REMARK    7  A    between atoms: C_22  and  C_23 
REMARK    8  A    between atoms: C_26  and  O_27 
REMARK    9  A    between atoms: O_27  and  C_28 
REMARK   10  A    between atoms: C_28  and  C_29 
ROOT
ATOM      1  C   UNL d   1      27.763 -11.864   1.601  0.00  0.00     0.292 C 
ATOM      2  O   UNL d   1      27.661 -12.522   2.616  0.00  0.00    -0.264 OA
ATOM      3  N   UNL d   1      27.344 -12.291   0.214  0.00  0.00    -0.242 N 
ATOM      4  H   UNL d   1      27.301 -11.657  -0.557  0.00  0.00     0.192 HD
ENDROOT
BRANCH   1   5
ATOM      5  C   UNL d   1      28.344 -10.919   2.411  0.00  0.00     0.153 C 
ATOM      6  C   UNL d   1      29.622 -11.038   3.077  0.00  0.00     0.112 C 
ATOM      7  N   UNL d   1      29.912  -9.745   3.379  0.00  0.00    -0.160 NA
ATOM      8  N   UNL d   1      28.890  -8.954   2.906  0.00  0.00     0.012 NA
ATOM      9  N   UNL d   1      27.852  -9.713   2.444  0.00  0.00    -0.207 N 
BRANCH   6  10
ATOM     10  C   UNL d   1      30.633 -12.398   3.245  0.00  0.00     0.297 C 
BRANCH  10  11
ATOM     11  N   UNL d   1      30.766 -13.231   4.798  0.00  0.00    -0.066 N 
ATOM     12  C   UNL d   1      30.056 -14.836   4.710  0.00  0.00     0.235 C 
ATOM     13  C   UNL d   1      28.657 -14.797   5.291  0.00  0.00     0.029 C 
ATOM     14  C   UNL d   1      28.734 -13.233   6.416  0.00  0.00     0.029 C 
ATOM     15  C   UNL d   1      29.957 -12.319   5.977  0.00  0.00     0.235 C 
ATOM     16  H   UNL d   1      31.763 -13.324   5.028  0.00  0.00     0.280 HD
ENDBRANCH  10  11
ENDBRANCH   6  10
BRANCH   9  17
ATOM     17  C   UNL d   1      26.556  -9.543   1.806  0.00  0.00     0.225 C 
ATOM     18  N   UNL d   1      25.476  -9.948   2.498  0.00  0.00    -0.081 NA
ATOM     19  O   UNL d   1      24.384  -9.350   1.860  0.00  0.00    -0.103 OA
ATOM     20  N   UNL d   1      24.789  -8.363   0.973  0.00  0.00    -0.083 NA
ATOM     21  C   UNL d   1      26.124  -8.426   0.939  0.00  0.00     0.201 C 
BRANCH  21  22
ATOM     22  N   UNL d   1      26.818  -7.362   0.446  0.00  0.00    -0.379 N 
ATOM     23  H   UNL d   1      27.822  -7.264   0.645  0.00  0.00     0.158 HD
ATOM     24  H   UNL d   1      26.505  -6.697  -0.251  0.00  0.00     0.158 HD
ENDBRANCH  21  22
ENDBRANCH   9  17
ENDBRANCH   1   5
BRANCH   3  25
ATOM     25  N   UNL d   1      26.510 -13.525  -0.135  0.00  0.00    -0.183 NA
ATOM     26  C   UNL d   1      26.741 -14.715   0.326  0.00  0.00     0.150 C 
BRANCH  26  27
ATOM     27  C   UNL d   1      26.022 -15.978  -0.124  0.00  0.00    -0.017 A 
ATOM     28  C   UNL d   1      24.762 -15.825  -0.703  0.00  0.00     0.015 A 
ATOM     29  C   UNL d   1      23.890 -16.923  -0.833  0.00  0.00     0.037 A 
ATOM     30  C   UNL d   1      24.310 -18.220  -0.515  0.00  0.00     0.069 A 
ATOM     31  C   UNL d   1      25.586 -18.392   0.013  0.00  0.00     0.037 A 
ATOM     32  C   UNL d   1      26.440 -17.282   0.200  0.00  0.00     0.015 A 
BRANCH  30  33
ATOM     33  O   UNL d   1      23.425 -19.228  -0.777  0.00  0.00    -0.347 OA
BRANCH  33  34
ATOM     34  C   UNL d   1      22.189 -18.881  -1.429  0.00  0.00     0.214 C 
BRANCH  34  35
ATOM     35  C   UNL d   1      21.066 -19.141  -0.457  0.00  0.00    -0.031 C 
ATOM     36  C   UNL d   1      21.224 -18.950   0.922  0.00  0.00     0.009 C 
ATOM     37  C   UNL d   1      20.289 -19.488   1.811  0.00  0.00     0.004 C 
ATOM     38  C   UNL d   1      19.119 -20.071   1.328  0.00  0.00     0.042 C 
ATOM     39  C   UNL d   1      18.921 -20.170  -0.042  0.00  0.00     0.117 C 
ATOM     40  F   UNL d   1      17.831 -20.787  -0.514  0.00  0.00    -0.206 F 
ATOM     41  C   UNL d   1      19.876 -19.704  -0.935  0.00  0.00     0.051 C 
ENDBRANCH  34  35
ENDBRANCH  33  34
ENDBRANCH  30  33
ENDBRANCH  26  27
ENDBRANCH   3  25
TORSDOF 10
ENDMDL
MODEL 3
REMARK VINA RESULT:   -10.933      2.818      4.951
REMARK INTER + INTRA:         -16.144
REMARK INTER:                 -13.916
REMARK INTRA:                  -2.227
REMARK CONF_INDEPENDENT:        2.983
REMARK UNBOUND:                -2.227
REMARK  10 active torsions:
REMARK  status: ('A' for Active; 'I' for Inactive)
REMARK    1  A    between atoms: N_1  and  C_2 
REMARK    2  A    between atoms: C_6  and  N_7 
REMARK    3  A    between atoms: C_10  and  C_11 
REMARK    4  A    between atoms: C_11  and  N_12 
REMARK    5  A    between atoms: C_17  and  C_18 
REMARK       I    between atoms: C_18  and  N_20 
REMARK    6  A    between atoms: N_20  and  N_21 
REMARK    7  A    between atoms: C_22  and  C_23 
REMARK    8  A    between atoms: C_26  and  O_27 
REMARK    9  A    between atoms: O_27  and  C_28 
REMARK   10  A    between atoms: C_28  and  C_29 
ROOT
ATOM      1  C   UNL d   1      28.181 -13.725   1.929  0.00  0.00     0.292 C 
ATOM      2  O   UNL d   1      27.116 -13.150   2.027  0.00  0.00    -0.264 OA
ATOM      3  N   UNL d   1      28.378 -15.203   1.692  0.00  0.00    -0.242 N 
ATOM      4  H   UNL d   1      29.265 -15.600   1.461  0.00  0.00     0.192 HD
ENDROOT
BRANCH   1   5
ATOM      5  C   UNL d   1      28.736 -12.491   2.162  0.00  0.00     0.153 C 
ATOM      6  C   UNL d   1      28.952 -11.454   1.176  0.00  0.00     0.112 C 
ATOM      7  N   UNL d   1      29.116 -10.350   1.952  0.00  0.00    -0.160 NA
ATOM      8  N   UNL d   1      28.985 -10.726   3.268  0.00  0.00     0.012 NA
ATOM      9  N   UNL d   1      28.903 -12.084   3.389  0.00  0.00    -0.207 N 
BRANCH   6  10
ATOM     10  C   UNL d   1      28.811 -11.525  -0.519  0.00  0.00     0.297 C 
BRANCH  10  11
ATOM     11  N   UNL d   1      28.312 -13.021  -1.316  0.00  0.00    -0.066 N 
ATOM     12  C   UNL d   1      28.540 -12.909  -3.055  0.00  0.00     0.235 C 
ATOM     13  C   UNL d   1      27.217 -12.572  -3.714  0.00  0.00     0.029 C 
ATOM     14  C   UNL d   1      25.948 -13.162  -2.386  0.00  0.00     0.029 C 
ATOM     15  C   UNL d   1      26.673 -13.298  -0.979  0.00  0.00     0.235 C 
ATOM     16  H   UNL d   1      28.894 -13.786  -0.956  0.00  0.00     0.280 HD
ENDBRANCH  10  11
ENDBRANCH   6  10
BRANCH   9  17
ATOM     17  C   UNL d   1      28.719 -13.094   4.418  0.00  0.00     0.225 C 
ATOM     18  N   UNL d   1      27.454 -13.381   4.775  0.00  0.00    -0.081 NA
ATOM     19  O   UNL d   1      27.532 -14.594   5.466  0.00  0.00    -0.103 OA
ATOM     20  N   UNL d   1      28.768 -15.200   5.296  0.00  0.00    -0.083 NA
ATOM     21  C   UNL d   1      29.518 -14.321   4.623  0.00  0.00     0.201 C 
BRANCH  21  22
ATOM     22  N   UNL d   1      30.645 -14.764   3.999  0.00  0.00    -0.379 N 
ATOM     23  H   UNL d   1      30.592 -15.546   3.334  0.00  0.00     0.158 HD
ATOM     24  H   UNL d   1      31.551 -14.312   3.979  0.00  0.00     0.158 HD
ENDBRANCH  21  22
ENDBRANCH   9  17
ENDBRANCH   1   5
BRANCH   3  25
ATOM     25  N   UNL d   1      27.290 -16.207   1.305  0.00  0.00    -0.183 NA
ATOM     26  C   UNL d   1      26.957 -16.486   0.083  0.00  0.00     0.150 C 
BRANCH  26  27
ATOM     27  C   UNL d   1      25.781 -17.362  -0.322  0.00  0.00    -0.017 A 
ATOM     28  C   UNL d   1      25.300 -17.224  -1.624  0.00  0.00     0.015 A 
ATOM     29  C   UNL d   1      24.032 -17.723  -1.980  0.00  0.00     0.037 A 
ATOM     30  C   UNL d   1      23.280 -18.491  -1.083  0.00  0.00     0.069 A 
ATOM     31  C   UNL d   1      23.777 -18.682   0.202  0.00  0.00     0.037 A 
ATOM     32  C   UNL d   1      25.022 -18.130   0.580  0.00  0.00     0.015 A 
BRANCH  30  33
ATOM     33  O   UNL d   1      22.113 -19.017  -1.561  0.00  0.00    -0.347 OA
BRANCH  33  34
ATOM     34  C   UNL d   1      20.892 -18.312  -1.270  0.00  0.00     0.214 C 
BRANCH  34  35
ATOM     35  C   UNL d   1      20.131 -19.112  -0.244  0.00  0.00    -0.031 C 
ATOM     36  C   UNL d   1      20.630 -19.320   1.050  0.00  0.00     0.009 C 
ATOM     37  C   UNL d   1      20.067 -20.308   1.862  0.00  0.00     0.004 C 
ATOM     38  C   UNL d   1      18.911 -20.973   1.457  0.00  0.00     0.042 C 
ATOM     39  C   UNL d   1      18.362 -20.691   0.214  0.00  0.00     0.117 C 
ATOM     40  F   UNL d   1      17.291 -21.372  -0.210  0.00  0.00    -0.206 F 
ATOM     41  C   UNL d   1      18.954 -19.764  -0.632  0.00  0.00     0.051 C 
ENDBRANCH  34  35
ENDBRANCH  33  34
ENDBRANCH  30  33
ENDBRANCH  26  27
ENDBRANCH   3  25
TORSDOF 10
ENDMDL
MODEL 4
REMARK VINA RESULT:   -10.636      2.005      4.760
REMARK INTER + INTRA:         -16.216
REMARK INTER:                 -13.619
REMARK INTRA:                  -2.598
REMARK CONF_INDEPENDENT:        2.983
REMARK UNBOUND:                -2.598
REMARK  10 active torsions:
REMARK  status: ('A' for Active; 'I' for Inactive)
REMARK    1  A    between atoms: N_1  and  C_2 
REMARK    2  A    between atoms: C_6  and  N_7 
REMARK    3  A    between atoms: C_10  and  C_11 
REMARK    4  A    between atoms: C_11  and  N_12 
REMARK    5  A    between atoms: C_17  and  C_18 
REMARK       I    between atoms: C_18  and  N_20 
REMARK    6  A    between atoms: N_20  and  N_21 
REMARK    7  A    between atoms: C_22  and  C_23 
REMARK    8  A    between atoms: C_26  and  O_27 
REMARK    9  A    between atoms: O_27  and  C_28 
REMARK   10  A    between atoms: C_28  and  C_29 
ROOT
ATOM      1  C   UNL d   1      29.118 -14.275   0.669  0.00  0.00     0.292 C 
ATOM      2  O   UNL d   1      28.538 -13.448  -0.005  0.00  0.00    -0.264 OA
ATOM      3  N   UNL d   1      28.509 -15.516   1.278  0.00  0.00    -0.242 N 
ATOM      4  H   UNL d   1      29.058 -16.243   1.687  0.00  0.00     0.192 HD
ENDROOT
BRANCH   1   5
ATOM      5  C   UNL d   1      30.215 -13.466   0.510  0.00  0.00     0.153 C 
ATOM      6  C   UNL d   1      30.981 -13.299  -0.707  0.00  0.00     0.112 C 
ATOM      7  N   UNL d   1      31.650 -12.140  -0.469  0.00  0.00    -0.160 NA
ATOM      8  N   UNL d   1      31.280 -11.677   0.773  0.00  0.00     0.012 NA
ATOM      9  N   UNL d   1      30.507 -12.591   1.430  0.00  0.00    -0.207 N 
BRANCH   6  10
ATOM     10  C   UNL d   1      30.906 -14.179  -2.163  0.00  0.00     0.297 C 
BRANCH  10  11
ATOM     11  N   UNL d   1      29.458 -15.100  -2.581  0.00  0.00    -0.066 N 
ATOM     12  C   UNL d   1      29.722 -16.821  -2.344  0.00  0.00     0.235 C 
ATOM     13  C   UNL d   1      30.047 -17.467  -3.675  0.00  0.00     0.029 C 
ATOM     14  C   UNL d   1      29.292 -16.208  -4.925  0.00  0.00     0.029 C 
ATOM     15  C   UNL d   1      29.077 -14.807  -4.207  0.00  0.00     0.235 C 
ATOM     16  H   UNL d   1      28.695 -14.796  -1.966  0.00  0.00     0.280 HD
ENDBRANCH  10  11
ENDBRANCH   6  10
BRANCH   9  17
ATOM     17  C   UNL d   1      29.780 -12.729   2.682  0.00  0.00     0.225 C 
ATOM     18  N   UNL d   1      28.487 -12.359   2.683  0.00  0.00    -0.081 NA
ATOM     19  O   UNL d   1      27.943 -12.924   3.841  0.00  0.00    -0.103 OA
ATOM     20  N   UNL d   1      28.796 -13.864   4.400  0.00  0.00    -0.083 NA
ATOM     21  C   UNL d   1      29.928 -13.799   3.692  0.00  0.00     0.201 C 
BRANCH  21  22
ATOM     22  N   UNL d   1      30.809 -14.836   3.766  0.00  0.00    -0.379 N 
ATOM     23  H   UNL d   1      31.760 -14.680   4.123  0.00  0.00     0.158 HD
ATOM     24  H   UNL d   1      30.604 -15.822   3.656  0.00  0.00     0.158 HD
ENDBRANCH  21  22
ENDBRANCH   9  17
ENDBRANCH   1   5
BRANCH   3  25
ATOM     25  N   UNL d   1      27.119 -16.080   0.974  0.00  0.00    -0.183 NA
ATOM     26  C   UNL d   1      26.816 -16.727  -0.108  0.00  0.00     0.150 C 
BRANCH  26  27
ATOM     27  C   UNL d   1      25.412 -17.163  -0.499  0.00  0.00    -0.017 A 
ATOM     28  C   UNL d   1      24.539 -16.173  -0.952  0.00  0.00     0.015 A 
ATOM     29  C   UNL d   1      23.152 -16.408  -1.009  0.00  0.00     0.037 A 
ATOM     30  C   UNL d   1      22.622 -17.677  -0.746  0.00  0.00     0.069 A 
ATOM     31  C   UNL d   1      23.492 -18.687  -0.346  0.00  0.00     0.037 A 
ATOM     32  C   UNL d   1      24.878 -18.437  -0.230  0.00  0.00     0.015 A 
BRANCH  30  33
ATOM     33  O   UNL d   1      21.276 -17.826  -0.931  0.00  0.00    -0.347 OA
BRANCH  33  34
ATOM     34  C   UNL d   1      20.779 -19.153  -1.186  0.00  0.00     0.214 C 
BRANCH  34  35
ATOM     35  C   UNL d   1      20.007 -19.597   0.030  0.00  0.00    -0.031 C 
ATOM     36  C   UNL d   1      20.456 -19.326   1.330  0.00  0.00     0.009 C 
ATOM     37  C   UNL d   1      19.898 -20.006   2.416  0.00  0.00     0.004 C 
ATOM     38  C   UNL d   1      18.790 -20.831   2.230  0.00  0.00     0.042 C 
ATOM     39  C   UNL d   1      18.286 -21.020   0.951  0.00  0.00     0.117 C 
ATOM     40  F   UNL d   1      17.264 -21.861   0.756  0.00  0.00    -0.206 F 
ATOM     41  C   UNL d   1      18.876 -20.405  -0.144  0.00  0.00     0.051 C 
ENDBRANCH  34  35
ENDBRANCH  33  34
ENDBRANCH  30  33
ENDBRANCH  26  27
ENDBRANCH   3  25
TORSDOF 10
ENDMDL
MODEL 5
REMARK VINA RESULT:   -10.217      3.884      6.118
REMARK INTER + INTRA:         -15.746
REMARK INTER:                 -13.200
REMARK INTRA:                  -2.546
REMARK CONF_INDEPENDENT:        2.983
REMARK UNBOUND:                -2.546
REMARK  10 active torsions:
REMARK  status: ('A' for Active; 'I' for Inactive)
REMARK    1  A    between atoms: N_1  and  C_2 
REMARK    2  A    between atoms: C_6  and  N_7 
REMARK    3  A    between atoms: C_10  and  C_11 
REMARK    4  A    between atoms: C_11  and  N_12 
REMARK    5  A    between atoms: C_17  and  C_18 
REMARK       I    between atoms: C_18  and  N_20 
REMARK    6  A    between atoms: N_20  and  N_21 
REMARK    7  A    between atoms: C_22  and  C_23 
REMARK    8  A    between atoms: C_26  and  O_27 
REMARK    9  A    between atoms: O_27  and  C_28 
REMARK   10  A    between atoms: C_28  and  C_29 
ROOT
ATOM      1  C   UNL d   1      29.029 -15.300  -5.270  0.00  0.00     0.292 C 
ATOM      2  O   UNL d   1      28.153 -15.256  -6.110  0.00  0.00    -0.264 OA
ATOM      3  N   UNL d   1      28.831 -15.350  -3.774  0.00  0.00    -0.242 N 
ATOM      4  H   UNL d   1      29.574 -15.546  -3.136  0.00  0.00     0.192 HD
ENDROOT
BRANCH   1   5
ATOM      5  C   UNL d   1      29.893 -15.237  -6.336  0.00  0.00     0.153 C 
ATOM      6  C   UNL d   1      30.208 -14.055  -7.108  0.00  0.00     0.112 C 
ATOM      7  N   UNL d   1      31.364 -14.414  -7.727  0.00  0.00    -0.160 NA
ATOM      8  N   UNL d   1      31.688 -15.689  -7.324  0.00  0.00     0.012 NA
ATOM      9  N   UNL d   1      30.685 -16.243  -6.581  0.00  0.00    -0.207 N 
BRANCH   6  10
ATOM     10  C   UNL d   1      29.472 -12.520  -7.087  0.00  0.00     0.297 C 
BRANCH  10  11
ATOM     11  N   UNL d   1      27.756 -12.352  -6.700  0.00  0.00    -0.066 N 
ATOM     12  C   UNL d   1      26.933 -11.385  -7.914  0.00  0.00     0.235 C 
ATOM     13  C   UNL d   1      26.788  -9.963  -7.408  0.00  0.00     0.029 C 
ATOM     14  C   UNL d   1      26.929 -10.202  -5.500  0.00  0.00     0.029 C 
ATOM     15  C   UNL d   1      27.609 -11.603  -5.186  0.00  0.00     0.235 C 
ATOM     16  H   UNL d   1      27.337 -13.290  -6.686  0.00  0.00     0.280 HD
ENDBRANCH  10  11
ENDBRANCH   6  10
BRANCH   9  17
ATOM     17  C   UNL d   1      30.398 -17.464  -5.846  0.00  0.00     0.225 C 
ATOM     18  N   UNL d   1      30.403 -18.614  -6.544  0.00  0.00    -0.081 NA
ATOM     19  O   UNL d   1      30.478 -19.628  -5.584  0.00  0.00    -0.103 OA
ATOM     20  N   UNL d   1      30.805 -19.125  -4.334  0.00  0.00    -0.083 NA
ATOM     21  C   UNL d   1      30.801 -17.793  -4.462  0.00  0.00     0.201 C 
BRANCH  21  22
ATOM     22  N   UNL d   1      31.430 -17.042  -3.516  0.00  0.00    -0.379 N 
ATOM     23  H   UNL d   1      31.828 -17.491  -2.681  0.00  0.00     0.158 HD
ATOM     24  H   UNL d   1      31.710 -16.071  -3.591  0.00  0.00     0.158 HD
ENDBRANCH  21  22
ENDBRANCH   9  17
ENDBRANCH   1   5
BRANCH   3  25
ATOM     25  N   UNL d   1      27.504 -15.585  -3.049  0.00  0.00    -0.183 NA
ATOM     26  C   UNL d   1      27.367 -16.348  -2.009  0.00  0.00     0.150 C 
BRANCH  26  27
ATOM     27  C   UNL d   1      26.038 -16.715  -1.367  0.00  0.00    -0.017 A 
ATOM     28  C   UNL d   1      26.079 -17.533  -0.237  0.00  0.00     0.015 A 
ATOM     29  C   UNL d   1      24.921 -18.196   0.215  0.00  0.00     0.037 A 
ATOM     30  C   UNL d   1      23.673 -17.946  -0.367  0.00  0.00     0.069 A 
ATOM     31  C   UNL d   1      23.612 -17.089  -1.461  0.00  0.00     0.037 A 
ATOM     32  C   UNL d   1      24.783 -16.470  -1.954  0.00  0.00     0.015 A 
BRANCH  30  33
ATOM     33  O   UNL d   1      22.597 -18.558   0.213  0.00  0.00    -0.347 OA
BRANCH  33  34
ATOM     34  C   UNL d   1      21.444 -18.808  -0.613  0.00  0.00     0.214 C 
BRANCH  34  35
ATOM     35  C   UNL d   1      20.357 -19.367   0.269  0.00  0.00    -0.031 C 
ATOM     36  C   UNL d   1      20.446 -19.326   1.667  0.00  0.00     0.009 C 
ATOM     37  C   UNL d   1      19.594 -20.116   2.443  0.00  0.00     0.004 C 
ATOM     38  C   UNL d   1      18.552 -20.819   1.842  0.00  0.00     0.042 C 
ATOM     39  C   UNL d   1      18.407 -20.779   0.462  0.00  0.00     0.117 C 
ATOM     40  F   UNL d   1      17.449 -21.504  -0.128  0.00  0.00    -0.206 F 
ATOM     41  C   UNL d   1      19.291 -20.055  -0.325  0.00  0.00     0.051 C 
ENDBRANCH  34  35
ENDBRANCH  33  34
ENDBRANCH  30  33
ENDBRANCH  26  27
ENDBRANCH   3  25
TORSDOF 10
ENDMDL
MODEL 6
REMARK VINA RESULT:   -10.213      2.006      4.564
REMARK INTER + INTRA:         -16.716
REMARK INTER:                 -13.196
REMARK INTRA:                  -3.521
REMARK CONF_INDEPENDENT:        2.983
REMARK UNBOUND:                -3.521
REMARK  10 active torsions:
REMARK  status: ('A' for Active; 'I' for Inactive)
REMARK    1  A    between atoms: N_1  and  C_2 
REMARK    2  A    between atoms: C_6  and  N_7 
REMARK    3  A    between atoms: C_10  and  C_11 
REMARK    4  A    between atoms: C_11  and  N_12 
REMARK    5  A    between atoms: C_17  and  C_18 
REMARK       I    between atoms: C_18  and  N_20 
REMARK    6  A    between atoms: N_20  and  N_21 
REMARK    7  A    between atoms: C_22  and  C_23 
REMARK    8  A    between atoms: C_26  and  O_27 
REMARK    9  A    between atoms: O_27  and  C_28 
REMARK   10  A    between atoms: C_28  and  C_29 
ROOT
ATOM      1  C   UNL d   1      30.384 -15.489   0.717  0.00  0.00     0.292 C 
ATOM      2  O   UNL d   1      30.643 -16.663   0.552  0.00  0.00    -0.264 OA
ATOM      3  N   UNL d   1      29.007 -14.868   0.710  0.00  0.00    -0.242 N 
ATOM      4  H   UNL d   1      28.835 -13.930   1.008  0.00  0.00     0.192 HD
ENDROOT
BRANCH   1   5
ATOM      5  C   UNL d   1      31.744 -15.321   0.807  0.00  0.00     0.153 C 
ATOM      6  C   UNL d   1      32.747 -16.138   0.158  0.00  0.00     0.112 C 
ATOM      7  N   UNL d   1      33.847 -15.341   0.214  0.00  0.00    -0.160 NA
ATOM      8  N   UNL d   1      33.493 -14.162   0.827  0.00  0.00     0.012 NA
ATOM      9  N   UNL d   1      32.223 -14.226   1.326  0.00  0.00    -0.207 N 
BRANCH   6  10
ATOM     10  C   UNL d   1      32.571 -17.612  -0.674  0.00  0.00     0.297 C 
BRANCH  10  11
ATOM     11  N   UNL d   1      31.666 -18.948   0.048  0.00  0.00    -0.066 N 
ATOM     12  C   UNL d   1      32.652 -19.808   1.222  0.00  0.00     0.235 C 
ATOM     13  C   UNL d   1      33.225 -21.054   0.579  0.00  0.00     0.029 C 
ATOM     14  C   UNL d   1      31.997 -21.352  -0.878  0.00  0.00     0.029 C 
ATOM     15  C   UNL d   1      31.195 -20.015  -1.182  0.00  0.00     0.235 C 
ATOM     16  H   UNL d   1      30.847 -18.558   0.529  0.00  0.00     0.280 HD
ENDBRANCH  10  11
ENDBRANCH   6  10
BRANCH   9  17
ATOM     17  C   UNL d   1      31.259 -13.379   2.010  0.00  0.00     0.225 C 
ATOM     18  N   UNL d   1      30.511 -12.563   1.245  0.00  0.00    -0.081 NA
ATOM     19  O   UNL d   1      29.451 -12.160   2.063  0.00  0.00    -0.103 OA
ATOM     20  N   UNL d   1      29.373 -12.930   3.215  0.00  0.00    -0.083 NA
ATOM     21  C   UNL d   1      30.452 -13.720   3.201  0.00  0.00     0.201 C 
BRANCH  21  22
ATOM     22  N   UNL d   1      30.466 -14.824   3.999  0.00  0.00    -0.379 N 
ATOM     23  H   UNL d   1      31.154 -14.902   4.759  0.00  0.00     0.158 HD
ATOM     24  H   UNL d   1      29.762 -15.551   4.051  0.00  0.00     0.158 HD
ENDBRANCH  21  22
ENDBRANCH   9  17
ENDBRANCH   1   5
BRANCH   3  25
ATOM     25  N   UNL d   1      27.678 -15.626   0.725  0.00  0.00    -0.183 NA
ATOM     26  C   UNL d   1      27.182 -16.249  -0.299  0.00  0.00     0.150 C 
BRANCH  26  27
ATOM     27  C   UNL d   1      25.797 -16.877  -0.350  0.00  0.00    -0.017 A 
ATOM     28  C   UNL d   1      25.662 -18.169   0.161  0.00  0.00     0.015 A 
ATOM     29  C   UNL d   1      24.532 -18.950  -0.145  0.00  0.00     0.037 A 
ATOM     30  C   UNL d   1      23.451 -18.410  -0.852  0.00  0.00     0.069 A 
ATOM     31  C   UNL d   1      23.553 -17.104  -1.321  0.00  0.00     0.037 A 
ATOM     32  C   UNL d   1      24.712 -16.338  -1.066  0.00  0.00     0.015 A 
BRANCH  30  33
ATOM     33  O   UNL d   1      22.359 -19.218  -1.006  0.00  0.00    -0.347 OA
BRANCH  33  34
ATOM     34  C   UNL d   1      21.065 -18.588  -1.067  0.00  0.00     0.214 C 
BRANCH  34  35
ATOM     35  C   UNL d   1      20.174 -19.266  -0.058  0.00  0.00    -0.031 C 
ATOM     36  C   UNL d   1      20.509 -19.325   1.302  0.00  0.00     0.009 C 
ATOM     37  C   UNL d   1      19.838 -20.212   2.146  0.00  0.00     0.004 C 
ATOM     38  C   UNL d   1      18.731 -20.921   1.681  0.00  0.00     0.042 C 
ATOM     39  C   UNL d   1      18.342 -20.784   0.355  0.00  0.00     0.117 C 
ATOM     40  F   UNL d   1      17.321 -21.510  -0.116  0.00  0.00    -0.206 F 
ATOM     41  C   UNL d   1      19.045 -19.960  -0.512  0.00  0.00     0.051 C 
ENDBRANCH  34  35
ENDBRANCH  33  34
ENDBRANCH  30  33
ENDBRANCH  26  27
ENDBRANCH   3  25
TORSDOF 10
ENDMDL
MODEL 7
REMARK VINA RESULT:    -9.953      1.942      4.611
REMARK INTER + INTRA:         -16.568
REMARK INTER:                 -12.936
REMARK INTRA:                  -3.632
REMARK CONF_INDEPENDENT:        2.983
REMARK UNBOUND:                -3.632
REMARK  10 active torsions:
REMARK  status: ('A' for Active; 'I' for Inactive)
REMARK    1  A    between atoms: N_1  and  C_2 
REMARK    2  A    between atoms: C_6  and  N_7 
REMARK    3  A    between atoms: C_10  and  C_11 
REMARK    4  A    between atoms: C_11  and  N_12 
REMARK    5  A    between atoms: C_17  and  C_18 
REMARK       I    between atoms: C_18  and  N_20 
REMARK    6  A    between atoms: N_20  and  N_21 
REMARK    7  A    between atoms: C_22  and  C_23 
REMARK    8  A    between atoms: C_26  and  O_27 
REMARK    9  A    between atoms: O_27  and  C_28 
REMARK   10  A    between atoms: C_28  and  C_29 
ROOT
ATOM      1  C   UNL d   1      29.584 -14.506   1.845  0.00  0.00     0.292 C 
ATOM      2  O   UNL d   1      30.384 -15.327   1.443  0.00  0.00    -0.264 OA
ATOM      3  N   UNL d   1      28.094 -14.516   1.600  0.00  0.00    -0.242 N 
ATOM      4  H   UNL d   1      27.462 -13.911   2.083  0.00  0.00     0.192 HD
ENDROOT
BRANCH   1   5
ATOM      5  C   UNL d   1      30.679 -13.874   2.381  0.00  0.00     0.153 C 
ATOM      6  C   UNL d   1      32.004 -13.827   1.801  0.00  0.00     0.112 C 
ATOM      7  N   UNL d   1      32.570 -12.782   2.462  0.00  0.00    -0.160 NA
ATOM      8  N   UNL d   1      31.637 -12.267   3.331  0.00  0.00     0.012 NA
ATOM      9  N   UNL d   1      30.520 -13.051   3.380  0.00  0.00    -0.207 N 
BRANCH   6  10
ATOM     10  C   UNL d   1      32.637 -14.688   0.476  0.00  0.00     0.297 C 
BRANCH  10  11
ATOM     11  N   UNL d   1      32.507 -16.448   0.405  0.00  0.00    -0.066 N 
ATOM     12  C   UNL d   1      32.926 -17.169   1.952  0.00  0.00     0.235 C 
ATOM     13  C   UNL d   1      34.359 -17.660   1.905  0.00  0.00     0.029 C 
ATOM     14  C   UNL d   1      34.650 -17.864   0.009  0.00  0.00     0.029 C 
ATOM     15  C   UNL d   1      33.563 -17.025  -0.791  0.00  0.00     0.235 C 
ATOM     16  H   UNL d   1      31.534 -16.690   0.182  0.00  0.00     0.280 HD
ENDBRANCH  10  11
ENDBRANCH   6  10
BRANCH   9  17
ATOM     17  C   UNL d   1      29.212 -13.074   4.013  0.00  0.00     0.225 C 
ATOM     18  N   UNL d   1      28.224 -12.397   3.401  0.00  0.00    -0.081 NA
ATOM     19  O   UNL d   1      27.040 -12.874   3.974  0.00  0.00    -0.103 OA
ATOM     20  N   UNL d   1      27.259 -14.025   4.716  0.00  0.00    -0.083 NA
ATOM     21  C   UNL d   1      28.584 -14.202   4.734  0.00  0.00     0.201 C 
BRANCH  21  22
ATOM     22  N   UNL d   1      29.077 -15.428   5.070  0.00  0.00    -0.379 N 
ATOM     23  H   UNL d   1      29.820 -15.857   4.504  0.00  0.00     0.158 HD
ATOM     24  H   UNL d   1      28.913 -15.939   5.929  0.00  0.00     0.158 HD
ENDBRANCH  21  22
ENDBRANCH   9  17
ENDBRANCH   1   5
BRANCH   3  25
ATOM     25  N   UNL d   1      27.287 -15.672   1.004  0.00  0.00    -0.183 NA
ATOM     26  C   UNL d   1      26.323 -15.523   0.149  0.00  0.00     0.150 C 
BRANCH  26  27
ATOM     27  C   UNL d   1      25.412 -16.639  -0.339  0.00  0.00    -0.017 A 
ATOM     28  C   UNL d   1      24.285 -16.267  -1.074  0.00  0.00     0.015 A 
ATOM     29  C   UNL d   1      23.223 -17.171  -1.270  0.00  0.00     0.037 A 
ATOM     30  C   UNL d   1      23.325 -18.505  -0.857  0.00  0.00     0.069 A 
ATOM     31  C   UNL d   1      24.469 -18.901  -0.171  0.00  0.00     0.037 A 
ATOM     32  C   UNL d   1      25.510 -17.979   0.079  0.00  0.00     0.015 A 
BRANCH  30  33
ATOM     33  O   UNL d   1      22.284 -19.327  -1.189  0.00  0.00    -0.347 OA
BRANCH  33  34
ATOM     34  C   UNL d   1      20.970 -18.744  -1.266  0.00  0.00     0.214 C 
BRANCH  34  35
ATOM     35  C   UNL d   1      20.130 -19.352  -0.172  0.00  0.00    -0.031 C 
ATOM     36  C   UNL d   1      20.534 -19.325   1.170  0.00  0.00     0.009 C 
ATOM     37  C   UNL d   1      19.906 -20.154   2.103  0.00  0.00     0.004 C 
ATOM     38  C   UNL d   1      18.776 -20.885   1.740  0.00  0.00     0.042 C 
ATOM     39  C   UNL d   1      18.320 -20.832   0.430  0.00  0.00     0.117 C 
ATOM     40  F   UNL d   1      17.275 -21.582   0.058  0.00  0.00    -0.206 F 
ATOM     41  C   UNL d   1      18.979 -20.068  -0.522  0.00  0.00     0.051 C 
ENDBRANCH  34  35
ENDBRANCH  33  34
ENDBRANCH  30  33
ENDBRANCH  26  27
ENDBRANCH   3  25
TORSDOF 10
ENDMDL
MODEL 8
REMARK VINA RESULT:    -9.755      1.417      2.056
REMARK INTER + INTRA:         -16.238
REMARK INTER:                 -12.738
REMARK INTRA:                  -3.500
REMARK CONF_INDEPENDENT:        2.983
REMARK UNBOUND:                -3.500
REMARK  10 active torsions:
REMARK  status: ('A' for Active; 'I' for Inactive)
REMARK    1  A    between atoms: N_1  and  C_2 
REMARK    2  A    between atoms: C_6  and  N_7 
REMARK    3  A    between atoms: C_10  and  C_11 
REMARK    4  A    between atoms: C_11  and  N_12 
REMARK    5  A    between atoms: C_17  and  C_18 
REMARK       I    between atoms: C_18  and  N_20 
REMARK    6  A    between atoms: N_20  and  N_21 
REMARK    7  A    between atoms: C_22  and  C_23 
REMARK    8  A    between atoms: C_26  and  O_27 
REMARK    9  A    between atoms: O_27  and  C_28 
REMARK   10  A    between atoms: C_28  and  C_29 
ROOT
ATOM      1  C   UNL d   1      30.100 -16.289  -0.738  0.00  0.00     0.292 C 
ATOM      2  O   UNL d   1      29.925 -15.420   0.092  0.00  0.00    -0.264 OA
ATOM      3  N   UNL d   1      29.034 -17.166  -1.350  0.00  0.00    -0.242 N 
ATOM      4  H   UNL d   1      29.205 -17.753  -2.140  0.00  0.00     0.192 HD
ENDROOT
BRANCH   1   5
ATOM      5  C   UNL d   1      31.430 -15.966  -0.626  0.00  0.00     0.153 C 
ATOM      6  C   UNL d   1      32.150 -15.736   0.607  0.00  0.00     0.112 C 
ATOM      7  N   UNL d   1      33.445 -15.870   0.214  0.00  0.00    -0.160 NA
ATOM      8  N   UNL d   1      33.457 -16.170  -1.129  0.00  0.00     0.012 NA
ATOM      9  N   UNL d   1      32.206 -16.074  -1.668  0.00  0.00    -0.207 N 
BRANCH   6  10
ATOM     10  C   UNL d   1      31.556 -15.572   2.194  0.00  0.00     0.297 C 
BRANCH  10  11
ATOM     11  N   UNL d   1      30.068 -14.671   2.506  0.00  0.00    -0.066 N 
ATOM     12  C   UNL d   1      30.122 -13.090   1.742  0.00  0.00     0.235 C 
ATOM     13  C   UNL d   1      30.510 -12.048   2.771  0.00  0.00     0.029 C 
ATOM     14  C   UNL d   1      30.023 -12.918   4.423  0.00  0.00     0.029 C 
ATOM     15  C   UNL d   1      29.886 -14.483   4.181  0.00  0.00     0.235 C 
ATOM     16  H   UNL d   1      29.282 -15.202   2.110  0.00  0.00     0.280 HD
ENDBRANCH  10  11
ENDBRANCH   6  10
BRANCH   9  17
ATOM     17  C   UNL d   1      31.530 -16.285  -2.938  0.00  0.00     0.225 C 
ATOM     18  N   UNL d   1      31.061 -17.521  -3.184  0.00  0.00    -0.081 NA
ATOM     19  O   UNL d   1      30.161 -17.370  -4.244  0.00  0.00    -0.103 OA
ATOM     20  N   UNL d   1      29.853 -16.036  -4.466  0.00  0.00    -0.083 NA
ATOM     21  C   UNL d   1      30.651 -15.335  -3.654  0.00  0.00     0.201 C 
BRANCH  21  22
ATOM     22  N   UNL d   1      30.333 -14.038  -3.382  0.00  0.00    -0.379 N 
ATOM     23  H   UNL d   1      29.615 -13.820  -2.680  0.00  0.00     0.158 HD
ATOM     24  H   UNL d   1      30.835 -13.210  -3.679  0.00  0.00     0.158 HD
ENDBRANCH  21  22
ENDBRANCH   9  17
ENDBRANCH   1   5
BRANCH   3  25
ATOM     25  N   UNL d   1      27.522 -16.972  -1.217  0.00  0.00    -0.183 NA
ATOM     26  C   UNL d   1      26.794 -17.522  -0.295  0.00  0.00     0.150 C 
BRANCH  26  27
ATOM     27  C   UNL d   1      25.275 -17.466  -0.234  0.00  0.00    -0.017 A 
ATOM     28  C   UNL d   1      24.596 -18.677  -0.099  0.00  0.00     0.015 A 
ATOM     29  C   UNL d   1      23.218 -18.764  -0.374  0.00  0.00     0.037 A 
ATOM     30  C   UNL d   1      22.463 -17.619  -0.652  0.00  0.00     0.069 A 
ATOM     31  C   UNL d   1      23.122 -16.396  -0.735  0.00  0.00     0.037 A 
ATOM     32  C   UNL d   1      24.516 -16.316  -0.519  0.00  0.00     0.015 A 
BRANCH  30  33
ATOM     33  O   UNL d   1      21.116 -17.797  -0.799  0.00  0.00    -0.347 OA
BRANCH  33  34
ATOM     34  C   UNL d   1      20.659 -19.074  -1.283  0.00  0.00     0.214 C 
BRANCH  34  35
ATOM     35  C   UNL d   1      19.991 -19.790  -0.137  0.00  0.00    -0.031 C 
ATOM     36  C   UNL d   1      18.764 -20.450  -0.293  0.00  0.00     0.009 C 
ATOM     37  C   UNL d   1      18.029 -20.827   0.834  0.00  0.00     0.004 C 
ATOM     38  C   UNL d   1      18.582 -20.698   2.107  0.00  0.00     0.042 C 
ATOM     39  C   UNL d   1      19.842 -20.132   2.249  0.00  0.00     0.117 C 
ATOM     40  F   UNL d   1      20.352 -19.944   3.472  0.00  0.00    -0.206 F 
ATOM     41  C   UNL d   1      20.551 -19.688   1.142  0.00  0.00     0.051 C 
ENDBRANCH  34  35
ENDBRANCH  33  34
ENDBRANCH  30  33
ENDBRANCH  26  27
ENDBRANCH   3  25
TORSDOF 10
ENDMDL
MODEL 9
REMARK VINA RESULT:    -9.732      1.416      1.738
REMARK INTER + INTRA:         -16.115
REMARK INTER:                 -12.715
REMARK INTRA:                  -3.400
REMARK CONF_INDEPENDENT:        2.983
REMARK UNBOUND:                -3.400
REMARK  10 active torsions:
REMARK  status: ('A' for Active; 'I' for Inactive)
REMARK    1  A    between atoms: N_1  and  C_2 
REMARK    2  A    between atoms: C_6  and  N_7 
REMARK    3  A    between atoms: C_10  and  C_11 
REMARK    4  A    between atoms: C_11  and  N_12 
REMARK    5  A    between atoms: C_17  and  C_18 
REMARK       I    between atoms: C_18  and  N_20 
REMARK    6  A    between atoms: N_20  and  N_21 
REMARK    7  A    between atoms: C_22  and  C_23 
REMARK    8  A    between atoms: C_26  and  O_27 
REMARK    9  A    between atoms: O_27  and  C_28 
REMARK   10  A    between atoms: C_28  and  C_29 
ROOT
ATOM      1  C   UNL d   1      30.002 -14.793   0.292  0.00  0.00     0.292 C 
ATOM      2  O   UNL d   1      29.263 -14.140   1.001  0.00  0.00    -0.264 OA
ATOM      3  N   UNL d   1      29.702 -16.147  -0.304  0.00  0.00    -0.242 N 
ATOM      4  H   UNL d   1      30.275 -16.569  -1.005  0.00  0.00     0.192 HD
ENDROOT
BRANCH   1   5
ATOM      5  C   UNL d   1      30.894 -13.765   0.476  0.00  0.00     0.153 C 
ATOM      6  C   UNL d   1      31.225 -13.140   1.739  0.00  0.00     0.112 C 
ATOM      7  N   UNL d   1      32.399 -12.518   1.453  0.00  0.00    -0.160 NA
ATOM      8  N   UNL d   1      32.719 -12.784   0.142  0.00  0.00     0.012 NA
ATOM      9  N   UNL d   1      31.698 -13.432  -0.494  0.00  0.00    -0.207 N 
BRANCH   6  10
ATOM     10  C   UNL d   1      30.481 -13.313   3.260  0.00  0.00     0.297 C 
BRANCH  10  11
ATOM     11  N   UNL d   1      29.459 -14.712   3.606  0.00  0.00    -0.066 N 
ATOM     12  C   UNL d   1      27.761 -14.317   3.384  0.00  0.00     0.235 C 
ATOM     13  C   UNL d   1      27.136 -14.015   4.731  0.00  0.00     0.029 C 
ATOM     14  C   UNL d   1      28.337 -14.919   5.940  0.00  0.00     0.029 C 
ATOM     15  C   UNL d   1      29.721 -15.196   5.210  0.00  0.00     0.235 C 
ATOM     16  H   UNL d   1      29.711 -15.463   2.951  0.00  0.00     0.280 HD
ENDBRANCH  10  11
ENDBRANCH   6  10
BRANCH   9  17
ATOM     17  C   UNL d   1      31.397 -14.016  -1.791  0.00  0.00     0.225 C 
ATOM     18  N   UNL d   1      31.743 -15.303  -1.978  0.00  0.00    -0.081 NA
ATOM     19  O   UNL d   1      31.032 -15.715  -3.109  0.00  0.00    -0.103 OA
ATOM     20  N   UNL d   1      30.044 -14.805  -3.452  0.00  0.00    -0.083 NA
ATOM     21  C   UNL d   1      30.213 -13.757  -2.638  0.00  0.00     0.201 C 
BRANCH  21  22
ATOM     22  N   UNL d   1      29.188 -12.871  -2.488  0.00  0.00    -0.379 N 
ATOM     23  H   UNL d   1      28.228 -13.150  -2.726  0.00  0.00     0.158 HD
ATOM     24  H   UNL d   1      29.215 -11.980  -2.008  0.00  0.00     0.158 HD
ENDBRANCH  21  22
ENDBRANCH   9  17
ENDBRANCH   1   5
BRANCH   3  25
ATOM     25  N   UNL d   1      28.339 -16.843  -0.319  0.00  0.00    -0.183 NA
ATOM     26  C   UNL d   1      27.232 -16.270  -0.677  0.00  0.00     0.150 C 
BRANCH  26  27
ATOM     27  C   UNL d   1      25.849 -16.893  -0.556  0.00  0.00    -0.017 A 
ATOM     28  C   UNL d   1      25.769 -18.166   0.009  0.00  0.00     0.015 A 
ATOM     29  C   UNL d   1      24.611 -18.951  -0.147  0.00  0.00     0.037 A 
ATOM     30  C   UNL d   1      23.460 -18.429  -0.748  0.00  0.00     0.069 A 
ATOM     31  C   UNL d   1      23.511 -17.139  -1.267  0.00  0.00     0.037 A 
ATOM     32  C   UNL d   1      24.693 -16.371  -1.165  0.00  0.00     0.015 A 
BRANCH  30  33
ATOM     33  O   UNL d   1      22.357 -19.236  -0.755  0.00  0.00    -0.347 OA
BRANCH  33  34
ATOM     34  C   UNL d   1      21.069 -18.607  -0.895  0.00  0.00     0.214 C 
BRANCH  34  35
ATOM     35  C   UNL d   1      20.118 -19.286   0.057  0.00  0.00    -0.031 C 
ATOM     36  C   UNL d   1      20.357 -19.326   1.438  0.00  0.00     0.009 C 
ATOM     37  C   UNL d   1      19.640 -20.215   2.243  0.00  0.00     0.004 C 
ATOM     38  C   UNL d   1      18.578 -20.942   1.709  0.00  0.00     0.042 C 
ATOM     39  C   UNL d   1      18.281 -20.825   0.358  0.00  0.00     0.117 C 
ATOM     40  F   UNL d   1      17.305 -21.569  -0.176  0.00  0.00    -0.206 F 
ATOM     41  C   UNL d   1      19.032 -20.000  -0.467  0.00  0.00     0.051 C 
ENDBRANCH  34  35
ENDBRANCH  33  34
ENDBRANCH  30  33
ENDBRANCH  26  27
ENDBRANCH   3  25
TORSDOF 10
ENDMDL
