MODEL 1
REMARK VINA RESULT:   -31.825      0.000      0.000
REMARK INTER + INTRA:         -34.380
REMARK INTER:                 -33.615
REMARK INTRA:                  -0.765
REMARK CONF_INDEPENDENT:        1.790
REMARK UNBOUND:                -0.765
REMARK  6 active torsions:
REMARK  status: ('A' for Active; 'I' for Inactive)
REMARK       I    between atoms: C_2  and  N_3 
REMARK    1  A    between atoms: C_2  and  C_17 
REMARK    2  A    between atoms: N_3  and  C_4 
REMARK    3  A    between atoms: C_4  and  C_5 
REMARK    4  A    between atoms: C_5  and  N_6 
REMARK    5  A    between atoms: C_5  and  C_14 
REMARK       I    between atoms: N_6  and  C_7 
REMARK    6  A    between atoms: C_7  and  C_9 
ROOT
ATOM      1  C   UNL d   1      23.920 -16.850  -0.374  0.00  0.00     0.106 C 
ENDROOT
BRANCH   1   2
ATOM      2  C   UNL d   1      23.847 -15.938  -1.642  0.00  0.00     0.148 C 
BRANCH   2   3
ATOM      3  N   UNL d   1      25.005 -16.027  -2.519  0.00  0.00    -0.354 N 
ATOM      4  C   UNL d   1      25.265 -15.119  -3.518  0.00  0.00     0.272 C 
ATOM      5  O   UNL d   1      24.456 -14.251  -3.839  0.00  0.00    -0.266 OA
ATOM      6  H   UNL d   1      25.807 -16.590  -2.224  0.00  0.00     0.162 HD
BRANCH   4   7
ATOM      7  C   UNL d   1      26.610 -15.198  -4.132  0.00  0.00     0.145 A 
ATOM      8  C   UNL d   1      27.835 -15.237  -3.409  0.00  0.00     0.058 A 
ATOM      9  C   UNL d   1      28.831 -15.248  -4.353  0.00  0.00     0.112 A 
ATOM     10  N   UNL d   1      28.194 -15.218  -5.557  0.00  0.00    -0.289 N 
ATOM     11  N   UNL d   1      26.848 -15.215  -5.460  0.00  0.00    -0.170 NA
ATOM     12  H   UNL d   1      28.618 -15.193  -6.479  0.00  0.00     0.188 HD
ENDBRANCH   4   7
ENDBRANCH   2   3
ENDBRANCH   1   2
BRANCH   1  13
ATOM     13  N   UNL d   1      22.646 -17.539  -0.111  0.00  0.00    -0.349 N 
ATOM     14  C   UNL d   1      22.193 -18.594  -0.883  0.00  0.00     0.272 C 
ATOM     15  O   UNL d   1      22.782 -18.976  -1.897  0.00  0.00    -0.266 OA
ATOM     16  H   UNL d   1      22.110 -17.274   0.704  0.00  0.00     0.163 HD
BRANCH  14  17
ATOM     17  C   UNL d   1      20.945 -19.226  -0.455  0.00  0.00     0.145 A 
ATOM     18  C   UNL d   1      20.645 -19.695   0.846  0.00  0.00     0.058 A 
ATOM     19  C   UNL d   1      19.319 -20.048   0.808  0.00  0.00     0.112 A 
ATOM     20  N   UNL d   1      18.903 -19.810  -0.468  0.00  0.00    -0.289 N 
ATOM     21  N   UNL d   1      19.870 -19.325  -1.260  0.00  0.00    -0.170 NA
ATOM     22  H   UNL d   1      17.974 -19.938  -0.863  0.00  0.00     0.188 HD
ENDBRANCH  14  17
ENDBRANCH   1  13
BRANCH   1  23
ATOM     23  C   UNL d   1      25.047 -17.872  -0.524  0.00  0.00     0.010 A 
ATOM     24  C   UNL d   1      26.495 -17.459  -0.328  0.00  0.00     0.007 A 
ATOM     25  C   UNL d   1      25.848 -18.385   0.658  0.00  0.00     0.007 A 
ENDBRANCH   1  23
TORSDOF 6
ENDMDL
MODEL 2
REMARK VINA RESULT:   -31.582      1.654      7.175
REMARK INTER + INTRA:         -34.071
REMARK INTER:                 -33.372
REMARK INTRA:                  -0.699
REMARK CONF_INDEPENDENT:        1.790
REMARK UNBOUND:                -0.699
REMARK  6 active torsions:
REMARK  status: ('A' for Active; 'I' for Inactive)
REMARK       I    between atoms: C_2  and  N_3 
REMARK    1  A    between atoms: C_2  and  C_17 
REMARK    2  A    between atoms: N_3  and  C_4 
REMARK    3  A    between atoms: C_4  and  C_5 
REMARK    4  A    between atoms: C_5  and  N_6 
REMARK    5  A    between atoms: C_5  and  C_14 
REMARK       I    between atoms: N_6  and  C_7 
REMARK    6  A    between atoms: C_7  and  C_9 
ROOT
ATOM      1  C   UNL d   1      24.926 -17.825  -0.978  0.00  0.00     0.106 C 
ENDROOT
BRANCH   1   2
ATOM      2  C   UNL d   1      24.020 -17.434   0.234  0.00  0.00     0.148 C 
BRANCH   2   3
ATOM      3  N   UNL d   1      22.629 -17.845   0.110  0.00  0.00    -0.354 N 
ATOM      4  C   UNL d   1      22.239 -19.002  -0.523  0.00  0.00     0.272 C 
ATOM      5  O   UNL d   1      23.028 -19.695  -1.162  0.00  0.00    -0.266 OA
ATOM      6  H   UNL d   1      21.936 -17.443   0.746  0.00  0.00     0.162 HD
BRANCH   4   7
ATOM      7  C   UNL d   1      20.829 -19.405  -0.325  0.00  0.00     0.145 A 
ATOM      8  C   UNL d   1      20.302 -19.965   0.872  0.00  0.00     0.058 A 
ATOM      9  C   UNL d   1      18.984 -20.245   0.611  0.00  0.00     0.112 A 
ATOM     10  N   UNL d   1      18.777 -19.859  -0.679  0.00  0.00    -0.289 N 
ATOM     11  N   UNL d   1      19.866 -19.321  -1.267  0.00  0.00    -0.170 NA
ATOM     12  H   UNL d   1      17.920 -19.939  -1.218  0.00  0.00     0.188 HD
ENDBRANCH   4   7
ENDBRANCH   2   3
ENDBRANCH   1   2
BRANCH   1  13
ATOM     13  N   UNL d   1      24.991 -16.759  -1.990  0.00  0.00    -0.349 N 
ATOM     14  C   UNL d   1      25.337 -15.455  -1.683  0.00  0.00     0.272 C 
ATOM     15  O   UNL d   1      25.533 -15.076  -0.525  0.00  0.00    -0.266 OA
ATOM     16  H   UNL d   1      24.838 -17.000  -2.960  0.00  0.00     0.163 HD
BRANCH  14  17
ATOM     17  C   UNL d   1      25.431 -14.523  -2.806  0.00  0.00     0.145 A 
ATOM     18  C   UNL d   1      26.591 -13.834  -3.230  0.00  0.00     0.058 A 
ATOM     19  C   UNL d   1      26.239 -13.216  -4.404  0.00  0.00     0.112 A 
ATOM     20  N   UNL d   1      24.928 -13.528  -4.614  0.00  0.00    -0.289 N 
ATOM     21  N   UNL d   1      24.408 -14.307  -3.655  0.00  0.00    -0.170 NA
ATOM     22  H   UNL d   1      24.334 -13.261  -5.395  0.00  0.00     0.188 HD
ENDBRANCH  14  17
ENDBRANCH   1  13
BRANCH   1  23
ATOM     23  C   UNL d   1      26.333 -18.173  -0.493  0.00  0.00     0.010 A 
ATOM     24  C   UNL d   1      27.142 -17.171   0.311  0.00  0.00     0.007 A 
ATOM     25  C   UNL d   1      26.655 -18.428   0.967  0.00  0.00     0.007 A 
ENDBRANCH   1  23
TORSDOF 6
ENDMDL
MODEL 3
REMARK VINA RESULT:   -31.273      1.761      1.882
REMARK INTER + INTRA:         -33.962
REMARK INTER:                 -33.063
REMARK INTRA:                  -0.899
REMARK CONF_INDEPENDENT:        1.790
REMARK UNBOUND:                -0.899
REMARK  6 active torsions:
REMARK  status: ('A' for Active; 'I' for Inactive)
REMARK       I    between atoms: C_2  and  N_3 
REMARK    1  A    between atoms: C_2  and  C_17 
REMARK    2  A    between atoms: N_3  and  C_4 
REMARK    3  A    between atoms: C_4  and  C_5 
REMARK    4  A    between atoms: C_5  and  N_6 
REMARK    5  A    between atoms: C_5  and  C_14 
REMARK       I    between atoms: N_6  and  C_7 
REMARK    6  A    between atoms: C_7  and  C_9 
ROOT
ATOM      1  C   UNL d   1      24.078 -17.676  -0.245  0.00  0.00     0.106 C 
ENDROOT
BRANCH   1   2
ATOM      2  C   UNL d   1      24.472 -17.600  -1.756  0.00  0.00     0.148 C 
BRANCH   2   3
ATOM      3  N   UNL d   1      24.616 -16.249  -2.279  0.00  0.00    -0.354 N 
ATOM      4  C   UNL d   1      25.832 -15.688  -2.590  0.00  0.00     0.272 C 
ATOM      5  O   UNL d   1      26.896 -16.235  -2.307  0.00  0.00    -0.266 OA
ATOM      6  H   UNL d   1      23.805 -15.796  -2.708  0.00  0.00     0.162 HD
BRANCH   4   7
ATOM      7  C   UNL d   1      25.784 -14.423  -3.358  0.00  0.00     0.145 A 
ATOM      8  C   UNL d   1      26.760 -13.390  -3.290  0.00  0.00     0.058 A 
ATOM      9  C   UNL d   1      26.305 -12.384  -4.104  0.00  0.00     0.112 A 
ATOM     10  N   UNL d   1      25.122 -12.831  -4.610  0.00  0.00    -0.289 N 
ATOM     11  N   UNL d   1      24.789 -14.073  -4.201  0.00  0.00    -0.170 NA
ATOM     12  H   UNL d   1      24.492 -12.338  -5.236  0.00  0.00     0.188 HD
ENDBRANCH   4   7
ENDBRANCH   2   3
ENDBRANCH   1   2
BRANCH   1  13
ATOM     13  N   UNL d   1      22.886 -18.509  -0.022  0.00  0.00    -0.349 N 
ATOM     14  C   UNL d   1      21.646 -18.199  -0.553  0.00  0.00     0.272 C 
ATOM     15  O   UNL d   1      21.434 -17.157  -1.179  0.00  0.00    -0.266 OA
ATOM     16  H   UNL d   1      22.988 -19.377   0.485  0.00  0.00     0.163 HD
BRANCH  14  17
ATOM     17  C   UNL d   1      20.573 -19.161  -0.307  0.00  0.00     0.145 A 
ATOM     18  C   UNL d   1      20.395 -19.940   0.861  0.00  0.00     0.058 A 
ATOM     19  C   UNL d   1      19.180 -20.558   0.704  0.00  0.00     0.112 A 
ATOM     20  N   UNL d   1      18.709 -20.160  -0.512  0.00  0.00    -0.289 N 
ATOM     21  N   UNL d   1      19.539 -19.324  -1.154  0.00  0.00    -0.170 NA
ATOM     22  H   UNL d   1      17.828 -20.403  -0.958  0.00  0.00     0.188 HD
ENDBRANCH  14  17
ENDBRANCH   1  13
BRANCH   1  23
ATOM     23  C   UNL d   1      25.251 -18.209   0.578  0.00  0.00     0.010 A 
ATOM     24  C   UNL d   1      26.547 -18.617  -0.099  0.00  0.00     0.007 A 
ATOM     25  C   UNL d   1      26.525 -17.414   0.796  0.00  0.00     0.007 A 
ENDBRANCH   1  23
TORSDOF 6
ENDMDL
MODEL 4
REMARK VINA RESULT:   -30.569      1.180      7.498
REMARK INTER + INTRA:         -34.020
REMARK INTER:                 -32.359
REMARK INTRA:                  -1.661
REMARK CONF_INDEPENDENT:        1.790
REMARK UNBOUND:                -1.661
REMARK  6 active torsions:
REMARK  status: ('A' for Active; 'I' for Inactive)
REMARK       I    between atoms: C_2  and  N_3 
REMARK    1  A    between atoms: C_2  and  C_17 
REMARK    2  A    between atoms: N_3  and  C_4 
REMARK    3  A    between atoms: C_4  and  C_5 
REMARK    4  A    between atoms: C_5  and  N_6 
REMARK    5  A    between atoms: C_5  and  C_14 
REMARK       I    between atoms: N_6  and  C_7 
REMARK    6  A    between atoms: C_7  and  C_9 
ROOT
ATOM      1  C   UNL d   1      24.865 -17.062  -1.421  0.00  0.00     0.106 C 
ENDROOT
BRANCH   1   2
ATOM      2  C   UNL d   1      23.550 -16.362  -0.945  0.00  0.00     0.148 C 
BRANCH   2   3
ATOM      3  N   UNL d   1      22.368 -17.211  -0.971  0.00  0.00    -0.354 N 
ATOM      4  C   UNL d   1      22.304 -18.434  -0.347  0.00  0.00     0.272 C 
ATOM      5  O   UNL d   1      23.294 -18.966   0.152  0.00  0.00    -0.266 OA
ATOM      6  H   UNL d   1      21.463 -16.790  -1.197  0.00  0.00     0.162 HD
BRANCH   4   7
ATOM      7  C   UNL d   1      20.957 -19.038  -0.241  0.00  0.00     0.145 A 
ATOM      8  C   UNL d   1      20.636 -20.184   0.538  0.00  0.00     0.058 A 
ATOM      9  C   UNL d   1      19.307 -20.439   0.309  0.00  0.00     0.112 A 
ATOM     10  N   UNL d   1      18.897 -19.476  -0.563  0.00  0.00    -0.289 N 
ATOM     11  N   UNL d   1      19.863 -18.594  -0.895  0.00  0.00    -0.170 NA
ATOM     12  H   UNL d   1      17.973 -19.366  -0.971  0.00  0.00     0.188 HD
ENDBRANCH   4   7
ENDBRANCH   2   3
ENDBRANCH   1   2
BRANCH   1  13
ATOM     13  N   UNL d   1      25.393 -16.467  -2.660  0.00  0.00    -0.349 N 
ATOM     14  C   UNL d   1      25.765 -15.137  -2.752  0.00  0.00     0.272 C 
ATOM     15  O   UNL d   1      25.600 -14.336  -1.828  0.00  0.00    -0.266 OA
ATOM     16  H   UNL d   1      25.551 -17.067  -3.458  0.00  0.00     0.163 HD
BRANCH  14  17
ATOM     17  C   UNL d   1      26.342 -14.709  -4.026  0.00  0.00     0.145 A 
ATOM     18  C   UNL d   1      26.769 -13.401  -4.356  0.00  0.00     0.058 A 
ATOM     19  C   UNL d   1      27.384 -13.517  -5.578  0.00  0.00     0.112 A 
ATOM     20  N   UNL d   1      27.283 -14.831  -5.927  0.00  0.00    -0.289 N 
ATOM     21  N   UNL d   1      26.643 -15.575  -5.012  0.00  0.00    -0.170 NA
ATOM     22  H   UNL d   1      27.639 -15.292  -6.760  0.00  0.00     0.188 HD
ENDBRANCH  14  17
ENDBRANCH   1  13
BRANCH   1  23
ATOM     23  C   UNL d   1      25.923 -17.002  -0.319  0.00  0.00     0.010 A 
ATOM     24  C   UNL d   1      26.506 -18.278   0.261  0.00  0.00     0.007 A 
ATOM     25  C   UNL d   1      27.374 -17.373  -0.559  0.00  0.00     0.007 A 
ENDBRANCH   1  23
TORSDOF 6
ENDMDL
MODEL 5
REMARK VINA RESULT:   -30.313      1.838      7.582
REMARK INTER + INTRA:         -33.534
REMARK INTER:                 -32.103
REMARK INTRA:                  -1.431
REMARK CONF_INDEPENDENT:        1.790
REMARK UNBOUND:                -1.431
REMARK  6 active torsions:
REMARK  status: ('A' for Active; 'I' for Inactive)
REMARK       I    between atoms: C_2  and  N_3 
REMARK    1  A    between atoms: C_2  and  C_17 
REMARK    2  A    between atoms: N_3  and  C_4 
REMARK    3  A    between atoms: C_4  and  C_5 
REMARK    4  A    between atoms: C_5  and  N_6 
REMARK    5  A    between atoms: C_5  and  C_14 
REMARK       I    between atoms: N_6  and  C_7 
REMARK    6  A    between atoms: C_7  and  C_9 
ROOT
ATOM      1  C   UNL d   1      24.453 -16.441  -1.687  0.00  0.00     0.106 C 
ENDROOT
BRANCH   1   2
ATOM      2  C   UNL d   1      23.508 -16.368  -0.444  0.00  0.00     0.148 C 
BRANCH   2   3
ATOM      3  N   UNL d   1      22.280 -17.139  -0.571  0.00  0.00    -0.354 N 
ATOM      4  C   UNL d   1      22.219 -18.498  -0.370  0.00  0.00     0.272 C 
ATOM      5  O   UNL d   1      23.229 -19.182  -0.217  0.00  0.00    -0.266 OA
ATOM      6  H   UNL d   1      21.382 -16.651  -0.516  0.00  0.00     0.162 HD
BRANCH   4   7
ATOM      7  C   UNL d   1      20.861 -19.078  -0.270  0.00  0.00     0.145 A 
ATOM      8  C   UNL d   1      20.525 -20.245   0.472  0.00  0.00     0.058 A 
ATOM      9  C   UNL d   1      19.189 -20.464   0.249  0.00  0.00     0.112 A 
ATOM     10  N   UNL d   1      18.788 -19.462  -0.583  0.00  0.00    -0.289 N 
ATOM     11  N   UNL d   1      19.769 -18.589  -0.895  0.00  0.00    -0.170 NA
ATOM     12  H   UNL d   1      17.863 -19.319  -0.977  0.00  0.00     0.188 HD
ENDBRANCH   4   7
ENDBRANCH   2   3
ENDBRANCH   1   2
BRANCH   1  13
ATOM     13  N   UNL d   1      24.930 -15.111  -2.101  0.00  0.00    -0.349 N 
ATOM     14  C   UNL d   1      25.381 -14.842  -3.381  0.00  0.00     0.272 C 
ATOM     15  O   UNL d   1      25.495 -15.718  -4.242  0.00  0.00    -0.266 OA
ATOM     16  H   UNL d   1      24.867 -14.346  -1.443  0.00  0.00     0.163 HD
BRANCH  14  17
ATOM     17  C   UNL d   1      25.753 -13.457  -3.663  0.00  0.00     0.145 A 
ATOM     18  C   UNL d   1      25.987 -12.894  -4.940  0.00  0.00     0.058 A 
ATOM     19  C   UNL d   1      26.139 -11.547  -4.722  0.00  0.00     0.112 A 
ATOM     20  N   UNL d   1      26.020 -11.369  -3.376  0.00  0.00    -0.289 N 
ATOM     21  N   UNL d   1      25.799 -12.510  -2.707  0.00  0.00    -0.170 NA
ATOM     22  H   UNL d   1      26.060 -10.500  -2.849  0.00  0.00     0.188 HD
ENDBRANCH  14  17
ENDBRANCH   1  13
BRANCH   1  23
ATOM     23  C   UNL d   1      25.643 -17.355  -1.392  0.00  0.00     0.010 A 
ATOM     24  C   UNL d   1      26.801 -16.864  -0.543  0.00  0.00     0.007 A 
ATOM     25  C   UNL d   1      25.901 -17.941  -0.017  0.00  0.00     0.007 A 
ENDBRANCH   1  23
TORSDOF 6
ENDMDL
MODEL 6
REMARK VINA RESULT:   -29.927      2.620      3.392
REMARK INTER + INTRA:         -32.469
REMARK INTER:                 -31.716
REMARK INTRA:                  -0.753
REMARK CONF_INDEPENDENT:        1.790
REMARK UNBOUND:                -0.753
REMARK  6 active torsions:
REMARK  status: ('A' for Active; 'I' for Inactive)
REMARK       I    between atoms: C_2  and  N_3 
REMARK    1  A    between atoms: C_2  and  C_17 
REMARK    2  A    between atoms: N_3  and  C_4 
REMARK    3  A    between atoms: C_4  and  C_5 
REMARK    4  A    between atoms: C_5  and  N_6 
REMARK    5  A    between atoms: C_5  and  C_14 
REMARK       I    between atoms: N_6  and  C_7 
REMARK    6  A    between atoms: C_7  and  C_9 
ROOT
ATOM      1  C   UNL d   1      24.298 -18.528  -0.652  0.00  0.00     0.106 C 
ENDROOT
BRANCH   1   2
ATOM      2  C   UNL d   1      24.860 -17.799   0.612  0.00  0.00     0.148 C 
BRANCH   2   3
ATOM      3  N   UNL d   1      26.160 -17.171   0.422  0.00  0.00    -0.354 N 
ATOM      4  C   UNL d   1      27.311 -17.882   0.182  0.00  0.00     0.272 C 
ATOM      5  O   UNL d   1      27.351 -19.108   0.261  0.00  0.00    -0.266 OA
ATOM      6  H   UNL d   1      26.198 -16.182   0.164  0.00  0.00     0.162 HD
BRANCH   4   7
ATOM      7  C   UNL d   1      28.483 -17.089  -0.255  0.00  0.00     0.145 A 
ATOM      8  C   UNL d   1      29.774 -17.623  -0.525  0.00  0.00     0.058 A 
ATOM      9  C   UNL d   1      30.570 -16.550  -0.839  0.00  0.00     0.112 A 
ATOM     10  N   UNL d   1      29.761 -15.457  -0.749  0.00  0.00    -0.289 N 
ATOM     11  N   UNL d   1      28.484 -15.750  -0.424  0.00  0.00    -0.170 NA
ATOM     12  H   UNL d   1      30.018 -14.486  -0.892  0.00  0.00     0.188 HD
ENDBRANCH   4   7
ENDBRANCH   2   3
ENDBRANCH   1   2
BRANCH   1  13
ATOM     13  N   UNL d   1      23.008 -19.185  -0.387  0.00  0.00    -0.349 N 
ATOM     14  C   UNL d   1      21.794 -18.543  -0.553  0.00  0.00     0.272 C 
ATOM     15  O   UNL d   1      21.709 -17.350  -0.853  0.00  0.00    -0.266 OA
ATOM     16  H   UNL d   1      23.004 -20.164  -0.134  0.00  0.00     0.163 HD
BRANCH  14  17
ATOM     17  C   UNL d   1      20.595 -19.348  -0.322  0.00  0.00     0.145 A 
ATOM     18  C   UNL d   1      20.321 -20.139   0.819  0.00  0.00     0.058 A 
ATOM     19  C   UNL d   1      19.026 -20.567   0.663  0.00  0.00     0.112 A 
ATOM     20  N   UNL d   1      18.602 -20.056  -0.527  0.00  0.00    -0.289 N 
ATOM     21  N   UNL d   1      19.536 -19.325  -1.154  0.00  0.00    -0.170 NA
ATOM     22  H   UNL d   1      17.689 -20.150  -0.965  0.00  0.00     0.188 HD
ENDBRANCH  14  17
ENDBRANCH   1  13
BRANCH   1  23
ATOM     23  C   UNL d   1      24.155 -17.541  -1.810  0.00  0.00     0.010 A 
ATOM     24  C   UNL d   1      24.182 -16.044  -1.556  0.00  0.00     0.007 A 
ATOM     25  C   UNL d   1      25.308 -16.689  -2.305  0.00  0.00     0.007 A 
ENDBRANCH   1  23
TORSDOF 6
ENDMDL
MODEL 7
REMARK VINA RESULT:   -29.907      2.676      7.831
REMARK INTER + INTRA:         -32.910
REMARK INTER:                 -31.696
REMARK INTRA:                  -1.213
REMARK CONF_INDEPENDENT:        1.790
REMARK UNBOUND:                -1.213
REMARK  6 active torsions:
REMARK  status: ('A' for Active; 'I' for Inactive)
REMARK       I    between atoms: C_2  and  N_3 
REMARK    1  A    between atoms: C_2  and  C_17 
REMARK    2  A    between atoms: N_3  and  C_4 
REMARK    3  A    between atoms: C_4  and  C_5 
REMARK    4  A    between atoms: C_5  and  N_6 
REMARK    5  A    between atoms: C_5  and  C_14 
REMARK       I    between atoms: N_6  and  C_7 
REMARK    6  A    between atoms: C_7  and  C_9 
ROOT
ATOM      1  C   UNL d   1      25.031 -17.128  -0.366  0.00  0.00     0.106 C 
ENDROOT
BRANCH   1   2
ATOM      2  C   UNL d   1      24.548 -18.572  -0.011  0.00  0.00     0.148 C 
BRANCH   2   3
ATOM      3  N   UNL d   1      23.110 -18.700   0.177  0.00  0.00    -0.354 N 
ATOM      4  C   UNL d   1      22.239 -18.983  -0.848  0.00  0.00     0.272 C 
ATOM      5  O   UNL d   1      22.595 -18.996  -2.025  0.00  0.00    -0.266 OA
ATOM      6  H   UNL d   1      22.749 -18.882   1.117  0.00  0.00     0.162 HD
BRANCH   4   7
ATOM      7  C   UNL d   1      20.861 -19.346  -0.446  0.00  0.00     0.145 A 
ATOM      8  C   UNL d   1      20.482 -19.797   0.849  0.00  0.00     0.058 A 
ATOM      9  C   UNL d   1      19.141 -20.078   0.776  0.00  0.00     0.112 A 
ATOM     10  N   UNL d   1      18.779 -19.796  -0.508  0.00  0.00    -0.289 N 
ATOM     11  N   UNL d   1      19.790 -19.325  -1.267  0.00  0.00    -0.170 NA
ATOM     12  H   UNL d   1      17.862 -19.906  -0.929  0.00  0.00     0.188 HD
ENDBRANCH   4   7
ENDBRANCH   2   3
ENDBRANCH   1   2
BRANCH   1  13
ATOM     13  N   UNL d   1      26.492 -16.988  -0.256  0.00  0.00    -0.349 N 
ATOM     14  C   UNL d   1      27.108 -15.792   0.068  0.00  0.00     0.272 C 
ATOM     15  O   UNL d   1      26.481 -14.739   0.205  0.00  0.00    -0.266 OA
ATOM     16  H   UNL d   1      27.068 -17.813  -0.359  0.00  0.00     0.163 HD
BRANCH  14  17
ATOM     17  C   UNL d   1      28.563 -15.826   0.213  0.00  0.00     0.145 A 
ATOM     18  C   UNL d   1      29.371 -14.828   0.807  0.00  0.00     0.058 A 
ATOM     19  C   UNL d   1      30.632 -15.368   0.864  0.00  0.00     0.112 A 
ATOM     20  N   UNL d   1      30.537 -16.607   0.302  0.00  0.00    -0.289 N 
ATOM     21  N   UNL d   1      29.298 -16.906  -0.115  0.00  0.00    -0.170 NA
ATOM     22  H   UNL d   1      31.267 -17.304   0.186  0.00  0.00     0.188 HD
ENDBRANCH  14  17
ENDBRANCH   1  13
BRANCH   1  23
ATOM     23  C   UNL d   1      24.574 -16.750  -1.775  0.00  0.00     0.010 A 
ATOM     24  C   UNL d   1      24.504 -15.294  -2.200  0.00  0.00     0.007 A 
ATOM     25  C   UNL d   1      25.523 -16.200  -2.822  0.00  0.00     0.007 A 
ENDBRANCH   1  23
TORSDOF 6
ENDMDL
