MODEL 1
REMARK VINA RESULT:   -29.418      0.000      0.000
REMARK INTER + INTRA:         -32.923
REMARK INTER:                 -31.804
REMARK INTRA:                  -1.119
REMARK CONF_INDEPENDENT:        2.386
REMARK UNBOUND:                -1.119
REMARK  8 active torsions:
REMARK  status: ('A' for Active; 'I' for Inactive)
REMARK    1  A    between atoms: C_2  and  N_3 
REMARK    2  A    between atoms: N_3  and  S_4 
REMARK    3  A    between atoms: S_4  and  C_7 
REMARK    4  A    between atoms: C_10  and  N_11 
REMARK    5  A    between atoms: N_11  and  C_12 
REMARK    6  A    between atoms: C_12  and  N_14 
REMARK    7  A    between atoms: N_14  and  N_15 
REMARK       I    between atoms: N_15  and  C_16 
REMARK    8  A    between atoms: C_16  and  C_18 
ROOT
ATOM      1  C   UNL d   1      27.081 -15.966  -1.683  0.00  0.00     0.191 C 
ATOM      2  S   UNL d   1      28.714 -16.293  -1.347  0.00  0.00    -0.039 SA
ENDROOT
BRANCH   1   3
ATOM      3  N   UNL d   1      26.020 -15.728  -0.771  0.00  0.00    -0.332 N 
ATOM      4  H   UNL d   1      26.151 -14.975  -0.102  0.00  0.00     0.168 HD
BRANCH   3   5
ATOM      5  C   UNL d   1      24.802 -16.502  -0.582  0.00  0.00     0.034 A 
ATOM      6  C   UNL d   1      23.519 -15.994  -0.880  0.00  0.00     0.031 A 
ATOM      7  C   UNL d   1      22.337 -16.740  -0.571  0.00  0.00     0.027 A 
ATOM      8  C   UNL d   1      22.436 -18.037  -0.055  0.00  0.00     0.074 A 
ATOM      9  C   UNL d   1      23.681 -18.545   0.233  0.00  0.00     0.027 A 
ATOM     10  C   UNL d   1      24.814 -17.794  -0.059  0.00  0.00     0.031 A 
BRANCH   8  11
ATOM     11  S   UNL d   1      21.038 -19.073   0.291  0.00  0.00     0.241 S 
ATOM     12  O   UNL d   1      20.499 -18.693   1.570  0.00  0.00    -0.206 OA
ATOM     13  O   UNL d   1      21.405 -20.449  -0.003  0.00  0.00    -0.206 OA
BRANCH  11  14
ATOM     14  N   UNL d   1      19.897 -18.603  -0.895  0.00  0.00    -0.216 NA
ATOM     15  H   UNL d   1      19.537 -17.674  -0.679  0.00  0.00     0.139 HD
BRANCH  14  16
ATOM     16  C   UNL d   1      18.809 -19.607  -1.041  0.00  0.00     0.100 C 
ATOM     17  C   UNL d   1      18.606 -20.393   0.242  0.00  0.00     0.021 C 
ENDBRANCH  14  16
ENDBRANCH  11  14
ENDBRANCH   8  11
ENDBRANCH   3   5
ENDBRANCH   1   3
BRANCH   1  18
ATOM     18  N   UNL d   1      26.731 -15.912  -3.046  0.00  0.00    -0.273 N 
ATOM     19  H   UNL d   1      25.996 -16.435  -3.514  0.00  0.00     0.189 HD
BRANCH  18  20
ATOM     20  N   UNL d   1      27.478 -14.984  -3.870  0.00  0.00    -0.264 N 
ATOM     21  C   UNL d   1      27.394 -14.929  -5.241  0.00  0.00     0.271 C 
ATOM     22  O   UNL d   1      26.571 -15.575  -5.885  0.00  0.00    -0.266 OA
ATOM     23  H   UNL d   1      28.212 -14.483  -3.364  0.00  0.00     0.190 HD
BRANCH  21  24
ATOM     24  C   UNL d   1      28.372 -14.034  -5.959  0.00  0.00     0.057 A 
ATOM     25  C   UNL d   1      27.969 -12.708  -6.220  0.00  0.00     0.042 A 
ATOM     26  C   UNL d   1      28.681 -11.911  -7.125  0.00  0.00     0.035 A 
ATOM     27 CL   UNL d   1      28.041 -10.396  -7.636  0.00  0.00    -0.084 Cl
ATOM     28  C   UNL d   1      29.860 -12.371  -7.701  0.00  0.00     0.025 A 
ATOM     29  C   UNL d   1      30.307 -13.656  -7.402  0.00  0.00     0.026 A 
ATOM     30  C   UNL d   1      29.571 -14.488  -6.540  0.00  0.00     0.050 A 
ATOM     31 CL   UNL d   1      30.212 -16.072  -6.306  0.00  0.00    -0.083 Cl
ENDBRANCH  21  24
ENDBRANCH  18  20
ENDBRANCH   1  18
TORSDOF 8
ENDMDL
MODEL 2
REMARK VINA RESULT:   -29.196      2.191      2.603
REMARK INTER + INTRA:         -32.987
REMARK INTER:                 -31.583
REMARK INTRA:                  -1.404
REMARK CONF_INDEPENDENT:        2.386
REMARK UNBOUND:                -1.404
REMARK  8 active torsions:
REMARK  status: ('A' for Active; 'I' for Inactive)
REMARK    1  A    between atoms: C_2  and  N_3 
REMARK    2  A    between atoms: N_3  and  S_4 
REMARK    3  A    between atoms: S_4  and  C_7 
REMARK    4  A    between atoms: C_10  and  N_11 
REMARK    5  A    between atoms: N_11  and  C_12 
REMARK    6  A    between atoms: C_12  and  N_14 
REMARK    7  A    between atoms: N_14  and  N_15 
REMARK       I    between atoms: N_15  and  C_16 
REMARK    8  A    between atoms: C_16  and  C_18 
ROOT
ATOM      1  C   UNL d   1      26.714 -15.585  -0.499  0.00  0.00     0.191 C 
ATOM      2  S   UNL d   1      28.139 -16.135   0.244  0.00  0.00    -0.039 SA
ENDROOT
BRANCH   1   3
ATOM      3  N   UNL d   1      25.827 -16.296  -1.348  0.00  0.00    -0.332 N 
ATOM      4  H   UNL d   1      26.001 -16.235  -2.347  0.00  0.00     0.168 HD
BRANCH   3   5
ATOM      5  C   UNL d   1      24.615 -17.017  -0.987  0.00  0.00     0.034 A 
ATOM      6  C   UNL d   1      23.326 -16.449  -1.094  0.00  0.00     0.031 A 
ATOM      7  C   UNL d   1      22.169 -17.146  -0.619  0.00  0.00     0.027 A 
ATOM      8  C   UNL d   1      22.284 -18.451  -0.126  0.00  0.00     0.074 A 
ATOM      9  C   UNL d   1      23.533 -19.016  -0.024  0.00  0.00     0.027 A 
ATOM     10  C   UNL d   1      24.644 -18.313  -0.475  0.00  0.00     0.031 A 
BRANCH   8  11
ATOM     11  S   UNL d   1      20.906 -19.428   0.416  0.00  0.00     0.241 S 
ATOM     12  O   UNL d   1      20.290 -18.760   1.532  0.00  0.00    -0.206 OA
ATOM     13  O   UNL d   1      21.332 -20.815   0.498  0.00  0.00    -0.206 OA
BRANCH  11  14
ATOM     14  N   UNL d   1      19.811 -19.325  -0.896  0.00  0.00    -0.216 NA
ATOM     15  H   UNL d   1      19.627 -18.347  -1.117  0.00  0.00     0.139 HD
BRANCH  14  16
ATOM     16  C   UNL d   1      18.560 -20.085  -0.630  0.00  0.00     0.100 C 
ATOM     17  C   UNL d   1      18.729 -21.036   0.542  0.00  0.00     0.021 C 
ENDBRANCH  14  16
ENDBRANCH  11  14
ENDBRANCH   8  11
ENDBRANCH   3   5
ENDBRANCH   1   3
BRANCH   1  18
ATOM     18  N   UNL d   1      26.357 -14.249  -0.234  0.00  0.00    -0.273 N 
ATOM     19  H   UNL d   1      26.052 -13.857   0.653  0.00  0.00     0.189 HD
BRANCH  18  20
ATOM     20  N   UNL d   1      26.465 -13.318  -1.339  0.00  0.00    -0.264 N 
ATOM     21  C   UNL d   1      25.807 -13.464  -2.537  0.00  0.00     0.271 C 
ATOM     22  O   UNL d   1      24.958 -14.330  -2.731  0.00  0.00    -0.266 OA
ATOM     23  H   UNL d   1      27.211 -12.629  -1.225  0.00  0.00     0.190 HD
BRANCH  21  24
ATOM     24  C   UNL d   1      26.170 -12.509  -3.648  0.00  0.00     0.057 A 
ATOM     25  C   UNL d   1      25.726 -11.177  -3.530  0.00  0.00     0.042 A 
ATOM     26  C   UNL d   1      25.763 -10.313  -4.631  0.00  0.00     0.035 A 
ATOM     27 CL   UNL d   1      24.983  -8.779  -4.556  0.00  0.00    -0.084 Cl
ATOM     28  C   UNL d   1      26.336 -10.716  -5.832  0.00  0.00     0.025 A 
ATOM     29  C   UNL d   1      26.840 -12.011  -5.943  0.00  0.00     0.026 A 
ATOM     30  C   UNL d   1      26.758 -12.907  -4.863  0.00  0.00     0.050 A 
ATOM     31 CL   UNL d   1      27.368 -14.493  -5.163  0.00  0.00    -0.083 Cl
ENDBRANCH  21  24
ENDBRANCH  18  20
ENDBRANCH   1  18
TORSDOF 8
ENDMDL
MODEL 3
REMARK VINA RESULT:   -29.173      1.215      2.254
REMARK INTER + INTRA:         -33.110
REMARK INTER:                 -31.559
REMARK INTRA:                  -1.551
REMARK CONF_INDEPENDENT:        2.386
REMARK UNBOUND:                -1.551
REMARK  8 active torsions:
REMARK  status: ('A' for Active; 'I' for Inactive)
REMARK    1  A    between atoms: C_2  and  N_3 
REMARK    2  A    between atoms: N_3  and  S_4 
REMARK    3  A    between atoms: S_4  and  C_7 
REMARK    4  A    between atoms: C_10  and  N_11 
REMARK    5  A    between atoms: N_11  and  C_12 
REMARK    6  A    between atoms: C_12  and  N_14 
REMARK    7  A    between atoms: N_14  and  N_15 
REMARK       I    between atoms: N_15  and  C_16 
REMARK    8  A    between atoms: C_16  and  C_18 
ROOT
ATOM      1  C   UNL d   1      26.552 -15.344  -1.052  0.00  0.00     0.191 C 
ATOM      2  S   UNL d   1      27.483 -15.795   0.296  0.00  0.00    -0.039 SA
ENDROOT
BRANCH   1   3
ATOM      3  N   UNL d   1      25.660 -16.139  -1.817  0.00  0.00    -0.332 N 
ATOM      4  H   UNL d   1      25.802 -16.147  -2.823  0.00  0.00     0.168 HD
BRANCH   3   5
ATOM      5  C   UNL d   1      24.480 -16.863  -1.366  0.00  0.00     0.034 A 
ATOM      6  C   UNL d   1      23.214 -16.254  -1.231  0.00  0.00     0.031 A 
ATOM      7  C   UNL d   1      22.105 -16.968  -0.673  0.00  0.00     0.027 A 
ATOM      8  C   UNL d   1      22.233 -18.322  -0.339  0.00  0.00     0.074 A 
ATOM      9  C   UNL d   1      23.461 -18.927  -0.474  0.00  0.00     0.027 A 
ATOM     10  C   UNL d   1      24.527 -18.208  -1.001  0.00  0.00     0.031 A 
BRANCH   8  11
ATOM     11  S   UNL d   1      20.904 -19.315   0.286  0.00  0.00     0.241 S 
ATOM     12  O   UNL d   1      20.418 -18.709   1.498  0.00  0.00    -0.206 OA
ATOM     13  O   UNL d   1      21.315 -20.709   0.243  0.00  0.00    -0.206 OA
BRANCH  11  14
ATOM     14  N   UNL d   1      19.680 -19.125  -0.895  0.00  0.00    -0.216 NA
ATOM     15  H   UNL d   1      19.366 -18.155  -0.914  0.00  0.00     0.139 HD
BRANCH  14  16
ATOM     16  C   UNL d   1      18.556 -20.075  -0.681  0.00  0.00     0.100 C 
ATOM     17  C   UNL d   1      18.468 -20.512   0.770  0.00  0.00     0.021 C 
ENDBRANCH  14  16
ENDBRANCH  11  14
ENDBRANCH   8  11
ENDBRANCH   3   5
ENDBRANCH   1   3
BRANCH   1  18
ATOM     18  N   UNL d   1      26.669 -14.002  -1.461  0.00  0.00    -0.273 N 
ATOM     19  H   UNL d   1      26.447 -13.171  -0.919  0.00  0.00     0.189 HD
BRANCH  18  20
ATOM     20  N   UNL d   1      27.196 -13.775  -2.791  0.00  0.00    -0.264 N 
ATOM     21  C   UNL d   1      26.530 -14.095  -3.950  0.00  0.00     0.271 C 
ATOM     22  O   UNL d   1      25.365 -14.482  -3.964  0.00  0.00    -0.266 OA
ATOM     23  H   UNL d   1      28.185 -13.515  -2.803  0.00  0.00     0.190 HD
BRANCH  21  24
ATOM     24  C   UNL d   1      27.293 -13.965  -5.245  0.00  0.00     0.057 A 
ATOM     25  C   UNL d   1      28.130 -15.037  -5.616  0.00  0.00     0.042 A 
ATOM     26  C   UNL d   1      29.082 -14.880  -6.632  0.00  0.00     0.035 A 
ATOM     27 CL   UNL d   1      30.269 -16.098  -6.902  0.00  0.00    -0.084 Cl
ATOM     28  C   UNL d   1      29.148 -13.702  -7.367  0.00  0.00     0.025 A 
ATOM     29  C   UNL d   1      28.282 -12.656  -7.055  0.00  0.00     0.026 A 
ATOM     30  C   UNL d   1      27.360 -12.780  -6.000  0.00  0.00     0.050 A 
ATOM     31 CL   UNL d   1      26.393 -11.386  -5.689  0.00  0.00    -0.083 Cl
ENDBRANCH  21  24
ENDBRANCH  18  20
ENDBRANCH   1  18
TORSDOF 8
ENDMDL
MODEL 4
REMARK VINA RESULT:   -28.919      4.414      5.764
REMARK INTER + INTRA:         -32.779
REMARK INTER:                 -31.306
REMARK INTRA:                  -1.474
REMARK CONF_INDEPENDENT:        2.386
REMARK UNBOUND:                -1.474
REMARK  8 active torsions:
REMARK  status: ('A' for Active; 'I' for Inactive)
REMARK    1  A    between atoms: C_2  and  N_3 
REMARK    2  A    between atoms: N_3  and  S_4 
REMARK    3  A    between atoms: S_4  and  C_7 
REMARK    4  A    between atoms: C_10  and  N_11 
REMARK    5  A    between atoms: N_11  and  C_12 
REMARK    6  A    between atoms: C_12  and  N_14 
REMARK    7  A    between atoms: N_14  and  N_15 
REMARK       I    between atoms: N_15  and  C_16 
REMARK    8  A    between atoms: C_16  and  C_18 
ROOT
ATOM      1  C   UNL d   1      26.241 -14.778  -2.119  0.00  0.00     0.191 C 
ATOM      2  S   UNL d   1      25.376 -14.581  -3.568  0.00  0.00    -0.039 SA
ENDROOT
BRANCH   1   3
ATOM      3  N   UNL d   1      25.970 -15.656  -1.038  0.00  0.00    -0.332 N 
ATOM      4  H   UNL d   1      26.727 -15.823  -0.382  0.00  0.00     0.168 HD
BRANCH   3   5
ATOM      5  C   UNL d   1      24.775 -16.454  -0.802  0.00  0.00     0.034 A 
ATOM      6  C   UNL d   1      23.480 -16.015  -1.151  0.00  0.00     0.031 A 
ATOM      7  C   UNL d   1      22.320 -16.776  -0.796  0.00  0.00     0.027 A 
ATOM      8  C   UNL d   1      22.457 -18.025  -0.179  0.00  0.00     0.074 A 
ATOM      9  C   UNL d   1      23.714 -18.466   0.159  0.00  0.00     0.027 A 
ATOM     10  C   UNL d   1      24.825 -17.701  -0.179  0.00  0.00     0.031 A 
BRANCH   8  11
ATOM     11  S   UNL d   1      21.090 -19.079   0.233  0.00  0.00     0.241 S 
ATOM     12  O   UNL d   1      20.609 -18.707   1.537  0.00  0.00    -0.206 OA
ATOM     13  O   UNL d   1      21.459 -20.450  -0.081  0.00  0.00    -0.206 OA
BRANCH  11  14
ATOM     14  N   UNL d   1      19.887 -18.622  -0.895  0.00  0.00    -0.216 NA
ATOM     15  H   UNL d   1      19.459 -17.742  -0.606  0.00  0.00     0.139 HD
BRANCH  14  16
ATOM     16  C   UNL d   1      18.880 -19.698  -1.092  0.00  0.00     0.100 C 
ATOM     17  C   UNL d   1      18.672 -20.503   0.179  0.00  0.00     0.021 C 
ENDBRANCH  14  16
ENDBRANCH  11  14
ENDBRANCH   8  11
ENDBRANCH   3   5
ENDBRANCH   1   3
BRANCH   1  18
ATOM     18  N   UNL d   1      27.386 -13.972  -1.971  0.00  0.00    -0.273 N 
ATOM     19  H   UNL d   1      28.175 -13.898  -2.607  0.00  0.00     0.189 HD
BRANCH  18  20
ATOM     20  N   UNL d   1      27.434 -13.126  -0.795  0.00  0.00    -0.264 N 
ATOM     21  C   UNL d   1      27.569 -13.598   0.489  0.00  0.00     0.271 C 
ATOM     22  O   UNL d   1      27.800 -14.776   0.746  0.00  0.00    -0.266 OA
ATOM     23  H   UNL d   1      27.181 -12.153  -0.978  0.00  0.00     0.190 HD
BRANCH  21  24
ATOM     24  C   UNL d   1      27.416 -12.602   1.612  0.00  0.00     0.057 A 
ATOM     25  C   UNL d   1      27.176 -11.259   1.260  0.00  0.00     0.042 A 
ATOM     26  C   UNL d   1      27.312 -10.237   2.209  0.00  0.00     0.035 A 
ATOM     27 CL   UNL d   1      27.276  -8.587   1.718  0.00  0.00    -0.084 Cl
ATOM     28  C   UNL d   1      27.580 -10.536   3.541  0.00  0.00     0.025 A 
ATOM     29  C   UNL d   1      27.755 -11.867   3.917  0.00  0.00     0.026 A 
ATOM     30  C   UNL d   1      27.677 -12.897   2.963  0.00  0.00     0.050 A 
ATOM     31 CL   UNL d   1      27.973 -14.488   3.560  0.00  0.00    -0.083 Cl
ENDBRANCH  21  24
ENDBRANCH  18  20
ENDBRANCH   1  18
TORSDOF 8
ENDMDL
MODEL 5
REMARK VINA RESULT:   -28.808      4.255      6.119
REMARK INTER + INTRA:         -32.450
REMARK INTER:                 -31.194
REMARK INTRA:                  -1.256
REMARK CONF_INDEPENDENT:        2.386
REMARK UNBOUND:                -1.256
REMARK  8 active torsions:
REMARK  status: ('A' for Active; 'I' for Inactive)
REMARK    1  A    between atoms: C_2  and  N_3 
REMARK    2  A    between atoms: N_3  and  S_4 
REMARK    3  A    between atoms: S_4  and  C_7 
REMARK    4  A    between atoms: C_10  and  N_11 
REMARK    5  A    between atoms: N_11  and  C_12 
REMARK    6  A    between atoms: C_12  and  N_14 
REMARK    7  A    between atoms: N_14  and  N_15 
REMARK       I    between atoms: N_15  and  C_16 
REMARK    8  A    between atoms: C_16  and  C_18 
ROOT
ATOM      1  C   UNL d   1      26.201 -14.789  -2.140  0.00  0.00     0.191 C 
ATOM      2  S   UNL d   1      25.245 -14.469  -3.507  0.00  0.00    -0.039 SA
ENDROOT
BRANCH   1   3
ATOM      3  N   UNL d   1      25.944 -15.686  -1.071  0.00  0.00    -0.332 N 
ATOM      4  H   UNL d   1      26.715 -15.875  -0.436  0.00  0.00     0.168 HD
BRANCH   3   5
ATOM      5  C   UNL d   1      24.746 -16.474  -0.821  0.00  0.00     0.034 A 
ATOM      6  C   UNL d   1      23.448 -16.014  -1.133  0.00  0.00     0.031 A 
ATOM      7  C   UNL d   1      22.288 -16.767  -0.765  0.00  0.00     0.027 A 
ATOM      8  C   UNL d   1      22.423 -18.028  -0.174  0.00  0.00     0.074 A 
ATOM      9  C   UNL d   1      23.683 -18.490   0.128  0.00  0.00     0.027 A 
ATOM     10  C   UNL d   1      24.794 -17.732  -0.222  0.00  0.00     0.031 A 
BRANCH   8  11
ATOM     11  S   UNL d   1      21.054 -19.073   0.250  0.00  0.00     0.241 S 
ATOM     12  O   UNL d   1      20.564 -18.674   1.543  0.00  0.00    -0.206 OA
ATOM     13  O   UNL d   1      21.424 -20.451  -0.032  0.00  0.00    -0.206 OA
BRANCH  11  14
ATOM     14  N   UNL d   1      19.858 -18.639  -0.895  0.00  0.00    -0.216 NA
ATOM     15  H   UNL d   1      19.453 -17.737  -0.647  0.00  0.00     0.139 HD
BRANCH  14  16
ATOM     16  C   UNL d   1      18.823 -19.698  -1.039  0.00  0.00     0.100 C 
ATOM     17  C   UNL d   1      18.656 -20.488   0.247  0.00  0.00     0.021 C 
ENDBRANCH  14  16
ENDBRANCH  11  14
ENDBRANCH   8  11
ENDBRANCH   3   5
ENDBRANCH   1   3
BRANCH   1  18
ATOM     18  N   UNL d   1      27.415 -14.081  -2.057  0.00  0.00    -0.273 N 
ATOM     19  H   UNL d   1      28.046 -13.848  -2.819  0.00  0.00     0.189 HD
BRANCH  18  20
ATOM     20  N   UNL d   1      27.795 -13.599  -0.745  0.00  0.00    -0.264 N 
ATOM     21  C   UNL d   1      28.078 -14.416   0.324  0.00  0.00     0.271 C 
ATOM     22  O   UNL d   1      28.166 -15.637   0.226  0.00  0.00    -0.266 OA
ATOM     23  H   UNL d   1      27.667 -12.593  -0.622  0.00  0.00     0.190 HD
BRANCH  21  24
ATOM     24  C   UNL d   1      28.275 -13.756   1.667  0.00  0.00     0.057 A 
ATOM     25  C   UNL d   1      29.032 -14.455   2.629  0.00  0.00     0.042 A 
ATOM     26  C   UNL d   1      29.018 -14.060   3.972  0.00  0.00     0.035 A 
ATOM     27 CL   UNL d   1      29.728 -15.064   5.178  0.00  0.00    -0.084 Cl
ATOM     28  C   UNL d   1      28.346 -12.909   4.367  0.00  0.00     0.025 A 
ATOM     29  C   UNL d   1      27.646 -12.170   3.415  0.00  0.00     0.026 A 
ATOM     30  C   UNL d   1      27.605 -12.587   2.073  0.00  0.00     0.050 A 
ATOM     31 CL   UNL d   1      26.653 -11.609   1.017  0.00  0.00    -0.083 Cl
ENDBRANCH  21  24
ENDBRANCH  18  20
ENDBRANCH   1  18
TORSDOF 8
ENDMDL
MODEL 6
REMARK VINA RESULT:   -27.923      2.983      3.560
REMARK INTER + INTRA:         -31.781
REMARK INTER:                 -30.309
REMARK INTRA:                  -1.472
REMARK CONF_INDEPENDENT:        2.386
REMARK UNBOUND:                -1.472
REMARK  8 active torsions:
REMARK  status: ('A' for Active; 'I' for Inactive)
REMARK    1  A    between atoms: C_2  and  N_3 
REMARK    2  A    between atoms: N_3  and  S_4 
REMARK    3  A    between atoms: S_4  and  C_7 
REMARK    4  A    between atoms: C_10  and  N_11 
REMARK    5  A    between atoms: N_11  and  C_12 
REMARK    6  A    between atoms: C_12  and  N_14 
REMARK    7  A    between atoms: N_14  and  N_15 
REMARK       I    between atoms: N_15  and  C_16 
REMARK    8  A    between atoms: C_16  and  C_18 
ROOT
ATOM      1  C   UNL d   1      27.204 -16.151  -0.959  0.00  0.00     0.191 C 
ATOM      2  S   UNL d   1      27.764 -17.220   0.237  0.00  0.00    -0.039 SA
ENDROOT
BRANCH   1   3
ATOM      3  N   UNL d   1      25.867 -15.903  -1.367  0.00  0.00    -0.332 N 
ATOM      4  H   UNL d   1      25.703 -15.057  -1.906  0.00  0.00     0.168 HD
BRANCH   3   5
ATOM      5  C   UNL d   1      24.663 -16.642  -1.017  0.00  0.00     0.034 A 
ATOM      6  C   UNL d   1      23.380 -16.054  -1.005  0.00  0.00     0.031 A 
ATOM      7  C   UNL d   1      22.237 -16.782  -0.542  0.00  0.00     0.027 A 
ATOM      8  C   UNL d   1      22.356 -18.130  -0.183  0.00  0.00     0.074 A 
ATOM      9  C   UNL d   1      23.600 -18.714  -0.197  0.00  0.00     0.027 A 
ATOM     10  C   UNL d   1      24.699 -17.982  -0.633  0.00  0.00     0.031 A 
BRANCH   8  11
ATOM     11  S   UNL d   1      20.991 -19.140   0.331  0.00  0.00     0.241 S 
ATOM     12  O   UNL d   1      20.451 -18.587   1.545  0.00  0.00    -0.206 OA
ATOM     13  O   UNL d   1      21.395 -20.534   0.241  0.00  0.00    -0.206 OA
BRANCH  11  14
ATOM     14  N   UNL d   1      19.828 -18.883  -0.898  0.00  0.00    -0.216 NA
ATOM     15  H   UNL d   1      19.441 -17.943  -0.818  0.00  0.00     0.139 HD
BRANCH  14  16
ATOM     16  C   UNL d   1      18.769 -19.928  -0.881  0.00  0.00     0.100 C 
ATOM     17  C   UNL d   1      18.559 -20.481   0.518  0.00  0.00     0.021 C 
ENDBRANCH  14  16
ENDBRANCH  11  14
ENDBRANCH   8  11
ENDBRANCH   3   5
ENDBRANCH   1   3
BRANCH   1  18
ATOM     18  N   UNL d   1      28.190 -15.403  -1.629  0.00  0.00    -0.273 N 
ATOM     19  H   UNL d   1      29.014 -15.758  -2.107  0.00  0.00     0.189 HD
BRANCH  18  20
ATOM     20  N   UNL d   1      27.996 -13.968  -1.673  0.00  0.00    -0.264 N 
ATOM     21  C   UNL d   1      27.102 -13.336  -2.504  0.00  0.00     0.271 C 
ATOM     22  O   UNL d   1      26.287 -13.943  -3.193  0.00  0.00    -0.266 OA
ATOM     23  H   UNL d   1      28.704 -13.441  -1.158  0.00  0.00     0.190 HD
BRANCH  21  24
ATOM     24  C   UNL d   1      27.154 -11.829  -2.559  0.00  0.00     0.057 A 
ATOM     25  C   UNL d   1      27.402 -11.144  -1.352  0.00  0.00     0.042 A 
ATOM     26  C   UNL d   1      27.178  -9.765  -1.256  0.00  0.00     0.035 A 
ATOM     27 CL   UNL d   1      27.231  -8.983   0.278  0.00  0.00    -0.084 Cl
ATOM     28  C   UNL d   1      26.810  -9.025  -2.374  0.00  0.00     0.025 A 
ATOM     29  C   UNL d   1      26.625  -9.679  -3.591  0.00  0.00     0.026 A 
ATOM     30  C   UNL d   1      26.791 -11.072  -3.688  0.00  0.00     0.050 A 
ATOM     31 CL   UNL d   1      26.471 -11.754  -5.240  0.00  0.00    -0.083 Cl
ENDBRANCH  21  24
ENDBRANCH  18  20
ENDBRANCH   1  18
TORSDOF 8
ENDMDL
MODEL 7
REMARK VINA RESULT:   -27.865      3.112      3.762
REMARK INTER + INTRA:         -30.969
REMARK INTER:                 -30.251
REMARK INTRA:                  -0.718
REMARK CONF_INDEPENDENT:        2.386
REMARK UNBOUND:                -0.718
REMARK  8 active torsions:
REMARK  status: ('A' for Active; 'I' for Inactive)
REMARK    1  A    between atoms: C_2  and  N_3 
REMARK    2  A    between atoms: N_3  and  S_4 
REMARK    3  A    between atoms: S_4  and  C_7 
REMARK    4  A    between atoms: C_10  and  N_11 
REMARK    5  A    between atoms: N_11  and  C_12 
REMARK    6  A    between atoms: C_12  and  N_14 
REMARK    7  A    between atoms: N_14  and  N_15 
REMARK       I    between atoms: N_15  and  C_16 
REMARK    8  A    between atoms: C_16  and  C_18 
ROOT
ATOM      1  C   UNL d   1      25.808 -14.794  -3.559  0.00  0.00     0.191 C 
ATOM      2  S   UNL d   1      26.970 -15.372  -4.654  0.00  0.00    -0.039 SA
ENDROOT
BRANCH   1   3
ATOM      3  N   UNL d   1      25.562 -15.214  -2.225  0.00  0.00    -0.332 N 
ATOM      4  H   UNL d   1      26.256 -14.957  -1.529  0.00  0.00     0.168 HD
BRANCH   3   5
ATOM      5  C   UNL d   1      24.497 -16.073  -1.731  0.00  0.00     0.034 A 
ATOM      6  C   UNL d   1      23.200 -15.596  -1.441  0.00  0.00     0.031 A 
ATOM      7  C   UNL d   1      22.215 -16.446  -0.846  0.00  0.00     0.027 A 
ATOM      8  C   UNL d   1      22.489 -17.802  -0.630  0.00  0.00     0.074 A 
ATOM      9  C   UNL d   1      23.746 -18.280  -0.916  0.00  0.00     0.027 A 
ATOM     10  C   UNL d   1      24.693 -17.430  -1.476  0.00  0.00     0.031 A 
BRANCH   8  11
ATOM     11  S   UNL d   1      21.314 -18.956   0.029  0.00  0.00     0.241 S 
ATOM     12  O   UNL d   1      21.020 -18.575   1.386  0.00  0.00    -0.206 OA
ATOM     13  O   UNL d   1      21.755 -20.300  -0.307  0.00  0.00    -0.206 OA
BRANCH  11  14
ATOM     14  N   UNL d   1      19.905 -18.653  -0.894  0.00  0.00    -0.216 NA
ATOM     15  H   UNL d   1      19.688 -17.657  -0.878  0.00  0.00     0.139 HD
BRANCH  14  16
ATOM     16  C   UNL d   1      18.759 -19.484  -0.437  0.00  0.00     0.100 C 
ATOM     17  C   UNL d   1      19.226 -20.654   0.412  0.00  0.00     0.021 C 
ENDBRANCH  14  16
ENDBRANCH  11  14
ENDBRANCH   8  11
ENDBRANCH   3   5
ENDBRANCH   1   3
BRANCH   1  18
ATOM     18  N   UNL d   1      24.982 -13.754  -4.027  0.00  0.00    -0.273 N 
ATOM     19  H   UNL d   1      24.086 -13.843  -4.497  0.00  0.00     0.189 HD
BRANCH  18  20
ATOM     20  N   UNL d   1      25.444 -12.402  -3.785  0.00  0.00    -0.264 N 
ATOM     21  C   UNL d   1      25.747 -11.501  -4.777  0.00  0.00     0.271 C 
ATOM     22  O   UNL d   1      25.523 -11.716  -5.965  0.00  0.00    -0.266 OA
ATOM     23  H   UNL d   1      25.698 -12.222  -2.811  0.00  0.00     0.190 HD
BRANCH  21  24
ATOM     24  C   UNL d   1      26.390 -10.201  -4.360  0.00  0.00     0.057 A 
ATOM     25  C   UNL d   1      25.960  -9.624  -3.148  0.00  0.00     0.042 A 
ATOM     26  C   UNL d   1      26.281  -8.297  -2.836  0.00  0.00     0.035 A 
ATOM     27 CL   UNL d   1      25.541  -7.520  -1.489  0.00  0.00    -0.084 Cl
ATOM     28  C   UNL d   1      27.119  -7.556  -3.662  0.00  0.00     0.025 A 
ATOM     29  C   UNL d   1      27.605  -8.136  -4.832  0.00  0.00     0.026 A 
ATOM     30  C   UNL d   1      27.244  -9.448  -5.185  0.00  0.00     0.050 A 
ATOM     31 CL   UNL d   1      27.873 -10.014  -6.689  0.00  0.00    -0.083 Cl
ENDBRANCH  21  24
ENDBRANCH  18  20
ENDBRANCH   1  18
TORSDOF 8
ENDMDL
MODEL 8
REMARK VINA RESULT:   -27.862      2.246      3.221
REMARK INTER + INTRA:         -30.876
REMARK INTER:                 -30.248
REMARK INTRA:                  -0.628
REMARK CONF_INDEPENDENT:        2.386
REMARK UNBOUND:                -0.628
REMARK  8 active torsions:
REMARK  status: ('A' for Active; 'I' for Inactive)
REMARK    1  A    between atoms: C_2  and  N_3 
REMARK    2  A    between atoms: N_3  and  S_4 
REMARK    3  A    between atoms: S_4  and  C_7 
REMARK    4  A    between atoms: C_10  and  N_11 
REMARK    5  A    between atoms: N_11  and  C_12 
REMARK    6  A    between atoms: C_12  and  N_14 
REMARK    7  A    between atoms: N_14  and  N_15 
REMARK       I    between atoms: N_15  and  C_16 
REMARK    8  A    between atoms: C_16  and  C_18 
ROOT
ATOM      1  C   UNL d   1      26.626 -15.582  -1.808  0.00  0.00     0.191 C 
ATOM      2  S   UNL d   1      25.519 -14.340  -2.149  0.00  0.00    -0.039 SA
ENDROOT
BRANCH   1   3
ATOM      3  N   UNL d   1      26.374 -16.867  -1.262  0.00  0.00    -0.332 N 
ATOM      4  H   UNL d   1      27.175 -17.479  -1.142  0.00  0.00     0.168 HD
BRANCH   3   5
ATOM      5  C   UNL d   1      25.090 -17.482  -0.955  0.00  0.00     0.034 A 
ATOM      6  C   UNL d   1      24.021 -17.522  -1.877  0.00  0.00     0.031 A 
ATOM      7  C   UNL d   1      22.737 -18.030  -1.498  0.00  0.00     0.027 A 
ATOM      8  C   UNL d   1      22.545 -18.589  -0.229  0.00  0.00     0.074 A 
ATOM      9  C   UNL d   1      23.582 -18.562   0.673  0.00  0.00     0.027 A 
ATOM     10  C   UNL d   1      24.814 -18.047   0.289  0.00  0.00     0.031 A 
BRANCH   8  11
ATOM     11  S   UNL d   1      21.018 -19.312   0.311  0.00  0.00     0.241 S 
ATOM     12  O   UNL d   1      20.621 -18.668   1.535  0.00  0.00    -0.206 OA
ATOM     13  O   UNL d   1      21.138 -20.758   0.215  0.00  0.00    -0.206 OA
BRANCH  11  14
ATOM     14  N   UNL d   1      19.905 -18.828  -0.895  0.00  0.00    -0.216 NA
ATOM     15  H   UNL d   1      19.584 -17.878  -0.708  0.00  0.00     0.139 HD
BRANCH  14  16
ATOM     16  C   UNL d   1      18.775 -19.788  -1.019  0.00  0.00     0.100 C 
ATOM     17  C   UNL d   1      18.454 -20.441   0.314  0.00  0.00     0.021 C 
ENDBRANCH  14  16
ENDBRANCH  11  14
ENDBRANCH   8  11
ENDBRANCH   3   5
ENDBRANCH   1   3
BRANCH   1  18
ATOM     18  N   UNL d   1      27.973 -15.309  -2.116  0.00  0.00    -0.273 N 
ATOM     19  H   UNL d   1      28.683 -14.932  -1.494  0.00  0.00     0.189 HD
BRANCH  18  20
ATOM     20  N   UNL d   1      28.408 -15.631  -3.459  0.00  0.00    -0.264 N 
ATOM     21  C   UNL d   1      29.247 -16.676  -3.769  0.00  0.00     0.271 C 
ATOM     22  O   UNL d   1      29.597 -17.517  -2.946  0.00  0.00    -0.266 OA
ATOM     23  H   UNL d   1      28.182 -14.911  -4.149  0.00  0.00     0.190 HD
BRANCH  21  24
ATOM     24  C   UNL d   1      29.749 -16.762  -5.189  0.00  0.00     0.057 A 
ATOM     25  C   UNL d   1      30.227 -18.012  -5.634  0.00  0.00     0.042 A 
ATOM     26  C   UNL d   1      30.971 -18.112  -6.816  0.00  0.00     0.035 A 
ATOM     27 CL   UNL d   1      31.769 -19.584  -7.216  0.00  0.00    -0.084 Cl
ATOM     28  C   UNL d   1      31.162 -17.001  -7.630  0.00  0.00     0.025 A 
ATOM     29  C   UNL d   1      30.639 -15.771  -7.237  0.00  0.00     0.026 A 
ATOM     30  C   UNL d   1      29.939 -15.646  -6.024  0.00  0.00     0.050 A 
ATOM     31 CL   UNL d   1      29.400 -14.053  -5.636  0.00  0.00    -0.083 Cl
ENDBRANCH  21  24
ENDBRANCH  18  20
ENDBRANCH   1  18
TORSDOF 8
ENDMDL
MODEL 9
REMARK VINA RESULT:   -26.535      3.072      3.879
REMARK INTER + INTRA:         -30.099
REMARK INTER:                 -28.921
REMARK INTRA:                  -1.178
REMARK CONF_INDEPENDENT:        2.386
REMARK UNBOUND:                -1.178
REMARK  8 active torsions:
REMARK  status: ('A' for Active; 'I' for Inactive)
REMARK    1  A    between atoms: C_2  and  N_3 
REMARK    2  A    between atoms: N_3  and  S_4 
REMARK    3  A    between atoms: S_4  and  C_7 
REMARK    4  A    between atoms: C_10  and  N_11 
REMARK    5  A    between atoms: N_11  and  C_12 
REMARK    6  A    between atoms: C_12  and  N_14 
REMARK    7  A    between atoms: N_14  and  N_15 
REMARK       I    between atoms: N_15  and  C_16 
REMARK    8  A    between atoms: C_16  and  C_18 
ROOT
ATOM      1  C   UNL d   1      26.429 -14.580  -0.997  0.00  0.00     0.191 C 
ATOM      2  S   UNL d   1      26.439 -14.149   0.646  0.00  0.00    -0.039 SA
ENDROOT
BRANCH   1   3
ATOM      3  N   UNL d   1      25.796 -15.687  -1.618  0.00  0.00    -0.332 N 
ATOM      4  H   UNL d   1      26.073 -15.897  -2.573  0.00  0.00     0.168 HD
BRANCH   3   5
ATOM      5  C   UNL d   1      24.704 -16.505  -1.109  0.00  0.00     0.034 A 
ATOM      6  C   UNL d   1      24.915 -17.693  -0.376  0.00  0.00     0.031 A 
ATOM      7  C   UNL d   1      23.818 -18.531   0.005  0.00  0.00     0.027 A 
ATOM      8  C   UNL d   1      22.502 -18.134  -0.258  0.00  0.00     0.074 A 
ATOM      9  C   UNL d   1      22.285 -16.975  -0.964  0.00  0.00     0.027 A 
ATOM     10  C   UNL d   1      23.366 -16.187  -1.341  0.00  0.00     0.031 A 
BRANCH   8  11
ATOM     11  S   UNL d   1      21.073 -19.060   0.239  0.00  0.00     0.241 S 
ATOM     12  O   UNL d   1      20.645 -18.577   1.526  0.00  0.00    -0.206 OA
ATOM     13  O   UNL d   1      21.337 -20.471   0.005  0.00  0.00    -0.206 OA
BRANCH  11  14
ATOM     14  N   UNL d   1      19.882 -18.586  -0.896  0.00  0.00    -0.216 NA
ATOM     15  H   UNL d   1      19.517 -17.667  -0.650  0.00  0.00     0.139 HD
BRANCH  14  16
ATOM     16  C   UNL d   1      18.805 -19.604  -1.021  0.00  0.00     0.100 C 
ATOM     17  C   UNL d   1      18.477 -20.231   0.323  0.00  0.00     0.021 C 
ENDBRANCH  14  16
ENDBRANCH  11  14
ENDBRANCH   8  11
ENDBRANCH   3   5
ENDBRANCH   1   3
BRANCH   1  18
ATOM     18  N   UNL d   1      27.134 -13.722  -1.864  0.00  0.00    -0.273 N 
ATOM     19  H   UNL d   1      26.806 -12.848  -2.267  0.00  0.00     0.189 HD
BRANCH  18  20
ATOM     20  N   UNL d   1      28.490 -14.107  -2.194  0.00  0.00    -0.264 N 
ATOM     21  C   UNL d   1      28.987 -15.381  -2.050  0.00  0.00     0.271 C 
ATOM     22  O   UNL d   1      28.282 -16.342  -1.755  0.00  0.00    -0.266 OA
ATOM     23  H   UNL d   1      29.110 -13.316  -2.380  0.00  0.00     0.190 HD
BRANCH  21  24
ATOM     24  C   UNL d   1      30.468 -15.576  -2.263  0.00  0.00     0.057 A 
ATOM     25  C   UNL d   1      30.939 -15.567  -3.592  0.00  0.00     0.042 A 
ATOM     26  C   UNL d   1      32.228 -16.026  -3.894  0.00  0.00     0.035 A 
ATOM     27 CL   UNL d   1      32.702 -16.259  -5.533  0.00  0.00    -0.084 Cl
ATOM     28  C   UNL d   1      33.105 -16.397  -2.882  0.00  0.00     0.025 A 
ATOM     29  C   UNL d   1      32.675 -16.348  -1.557  0.00  0.00     0.026 A 
ATOM     30  C   UNL d   1      31.365 -15.944  -1.244  0.00  0.00     0.050 A 
ATOM     31 CL   UNL d   1      30.952 -15.988   0.431  0.00  0.00    -0.083 Cl
ENDBRANCH  21  24
ENDBRANCH  18  20
ENDBRANCH   1  18
TORSDOF 8
ENDMDL
