MODEL 1
REMARK VINA RESULT:    -7.646      0.000      0.000
REMARK INTER + INTRA:          -9.108
REMARK INTER:                  -8.839
REMARK INTRA:                  -0.269
REMARK CONF_INDEPENDENT:        1.193
REMARK UNBOUND:                -0.269
REMARK  4 active torsions:
REMARK  status: ('A' for Active; 'I' for Inactive)
REMARK    1  A    between atoms: C_5  and  C_6 
REMARK       I    between atoms: C_6  and  N_8 
REMARK    2  A    between atoms: N_8  and  N_9 
REMARK    3  A    between atoms: N_9  and  C_10 
REMARK    4  A    between atoms: C_18  and  O_19 
ROOT
ATOM      1  C   UNL d   1      22.494 -18.299  -1.062  0.00  0.00     0.272 C 
ATOM      2  O   UNL d   1      22.994 -18.895  -2.026  0.00  0.00    -0.266 OA
ATOM      3  N   UNL d   1      22.944 -17.050  -0.632  0.00  0.00    -0.265 N 
ATOM      4  H   UNL d   1      22.452 -16.484   0.047  0.00  0.00     0.190 HD
ENDROOT
BRANCH   3   5
ATOM      5  N   UNL d   1      23.935 -16.399  -1.379  0.00  0.00    -0.295 N 
ATOM      6  H   UNL d   1      23.652 -15.628  -1.987  0.00  0.00     0.187 HD
BRANCH   5   7
ATOM      7  C   UNL d   1      25.295 -16.636  -1.114  0.00  0.00     0.086 A 
ATOM      8  C   UNL d   1      26.312 -16.100  -1.919  0.00  0.00     0.037 A 
ATOM      9  C   UNL d   1      27.664 -16.318  -1.615  0.00  0.00     0.045 A 
ATOM     10  C   UNL d   1      28.013 -17.112  -0.528  0.00  0.00     0.119 A 
ATOM     11  F   UNL d   1      29.307 -17.312  -0.244  0.00  0.00    -0.206 F 
ATOM     12  C   UNL d   1      27.037 -17.695   0.262  0.00  0.00     0.086 A 
ATOM     13  C   UNL d   1      25.693 -17.451  -0.034  0.00  0.00     0.147 A 
ATOM     14  F   UNL d   1      24.763 -18.029   0.741  0.00  0.00    -0.204 F 
ENDBRANCH   5   7
ENDBRANCH   3   5
BRANCH   1  15
ATOM     15  C   UNL d   1      21.354 -18.952  -0.323  0.00  0.00     0.066 A 
ATOM     16  C   UNL d   1      21.279 -18.950   1.080  0.00  0.00     0.020 A 
ATOM     17  C   UNL d   1      20.209 -19.566   1.754  0.00  0.00     0.008 A 
ATOM     18  C   UNL d   1      19.181 -20.191   1.044  0.00  0.00    -0.059 A 
ATOM     19  C   UNL d   1      18.017 -20.839   1.735  0.00  0.00     0.048 C 
ATOM     20  C   UNL d   1      19.248 -20.205  -0.352  0.00  0.00     0.044 A 
ATOM     21  C   UNL d   1      20.319 -19.602  -1.025  0.00  0.00     0.082 A 
BRANCH  21  22
ATOM     22  O   UNL d   1      20.267 -19.708  -2.391  0.00  0.00    -0.360 OA
ATOM     23  H   UNL d   1      19.325 -19.698  -2.667  0.00  0.00     0.217 HD
ENDBRANCH  21  22
ENDBRANCH   1  15
TORSDOF 4
ENDMDL
MODEL 2
REMARK VINA RESULT:    -6.304      9.204     11.769
REMARK INTER + INTRA:          -8.101
REMARK INTER:                  -7.497
REMARK INTRA:                  -0.604
REMARK CONF_INDEPENDENT:        1.193
REMARK UNBOUND:                -0.604
REMARK  4 active torsions:
REMARK  status: ('A' for Active; 'I' for Inactive)
REMARK    1  A    between atoms: C_5  and  C_6 
REMARK       I    between atoms: C_6  and  N_8 
REMARK    2  A    between atoms: N_8  and  N_9 
REMARK    3  A    between atoms: N_9  and  C_10 
REMARK    4  A    between atoms: C_18  and  O_19 
ROOT
ATOM      1  C   UNL d   1      32.196 -20.830   3.865  0.00  0.00     0.272 C 
ATOM      2  O   UNL d   1      31.906 -19.627   3.832  0.00  0.00    -0.266 OA
ATOM      3  N   UNL d   1      31.792 -21.731   2.878  0.00  0.00    -0.265 N 
ATOM      4  H   UNL d   1      32.148 -22.676   2.807  0.00  0.00     0.190 HD
ENDROOT
BRANCH   3   5
ATOM      5  N   UNL d   1      31.114 -21.239   1.756  0.00  0.00    -0.295 N 
ATOM      6  H   UNL d   1      30.923 -20.236   1.710  0.00  0.00     0.187 HD
BRANCH   5   7
ATOM      7  C   UNL d   1      30.922 -22.054   0.627  0.00  0.00     0.086 A 
ATOM      8  C   UNL d   1      31.757 -21.972  -0.498  0.00  0.00     0.037 A 
ATOM      9  C   UNL d   1      31.571 -22.821  -1.600  0.00  0.00     0.045 A 
ATOM     10  C   UNL d   1      30.520 -23.731  -1.605  0.00  0.00     0.119 A 
ATOM     11  F   UNL d   1      30.352 -24.539  -2.661  0.00  0.00    -0.206 F 
ATOM     12  C   UNL d   1      29.647 -23.809  -0.533  0.00  0.00     0.086 A 
ATOM     13  C   UNL d   1      29.857 -22.976   0.570  0.00  0.00     0.147 A 
ATOM     14  F   UNL d   1      28.998 -23.065   1.597  0.00  0.00    -0.204 F 
ENDBRANCH   5   7
ENDBRANCH   3   5
BRANCH   1  15
ATOM     15  C   UNL d   1      33.020 -21.342   5.019  0.00  0.00     0.066 A 
ATOM     16  C   UNL d   1      34.398 -21.588   4.899  0.00  0.00     0.020 A 
ATOM     17  C   UNL d   1      35.150 -22.069   5.986  0.00  0.00     0.008 A 
ATOM     18  C   UNL d   1      34.548 -22.307   7.223  0.00  0.00    -0.059 A 
ATOM     19  C   UNL d   1      35.329 -22.802   8.406  0.00  0.00     0.048 C 
ATOM     20  C   UNL d   1      33.176 -22.073   7.354  0.00  0.00     0.044 A 
ATOM     21  C   UNL d   1      32.422 -21.605   6.269  0.00  0.00     0.082 A 
BRANCH  21  22
ATOM     22  O   UNL d   1      31.087 -21.439   6.531  0.00  0.00    -0.360 OA
ATOM     23  H   UNL d   1      30.689 -22.324   6.679  0.00  0.00     0.217 HD
ENDBRANCH  21  22
ENDBRANCH   1  15
TORSDOF 4
ENDMDL
MODEL 3
REMARK VINA RESULT:    -6.167      5.152      8.348
REMARK INTER + INTRA:          -8.291
REMARK INTER:                  -7.360
REMARK INTRA:                  -0.931
REMARK CONF_INDEPENDENT:        1.193
REMARK UNBOUND:                -0.931
REMARK  4 active torsions:
REMARK  status: ('A' for Active; 'I' for Inactive)
REMARK    1  A    between atoms: C_5  and  C_6 
REMARK       I    between atoms: C_6  and  N_8 
REMARK    2  A    between atoms: N_8  and  N_9 
REMARK    3  A    between atoms: N_9  and  C_10 
REMARK    4  A    between atoms: C_18  and  O_19 
ROOT
ATOM      1  C   UNL d   1      27.599 -14.458   1.961  0.00  0.00     0.272 C 
ATOM      2  O   UNL d   1      26.658 -13.736   1.603  0.00  0.00    -0.266 OA
ATOM      3  N   UNL d   1      28.135 -15.457   1.146  0.00  0.00    -0.265 N 
ATOM      4  H   UNL d   1      28.996 -15.945   1.357  0.00  0.00     0.190 HD
ENDROOT
BRANCH   3   5
ATOM      5  N   UNL d   1      27.656 -15.585  -0.164  0.00  0.00    -0.295 N 
ATOM      6  H   UNL d   1      28.268 -15.299  -0.931  0.00  0.00     0.187 HD
BRANCH   5   7
ATOM      7  C   UNL d   1      26.478 -16.306  -0.422  0.00  0.00     0.086 A 
ATOM      8  C   UNL d   1      26.190 -17.516   0.228  0.00  0.00     0.037 A 
ATOM      9  C   UNL d   1      24.990 -18.200  -0.017  0.00  0.00     0.045 A 
ATOM     10  C   UNL d   1      24.085 -17.705  -0.949  0.00  0.00     0.119 A 
ATOM     11  F   UNL d   1      22.941 -18.365  -1.174  0.00  0.00    -0.206 F 
ATOM     12  C   UNL d   1      24.356 -16.539  -1.645  0.00  0.00     0.086 A 
ATOM     13  C   UNL d   1      25.542 -15.851  -1.374  0.00  0.00     0.147 A 
ATOM     14  F   UNL d   1      25.787 -14.725  -2.062  0.00  0.00    -0.204 F 
ENDBRANCH   5   7
ENDBRANCH   3   5
BRANCH   1  15
ATOM     15  C   UNL d   1      28.188 -14.249   3.333  0.00  0.00     0.066 A 
ATOM     16  C   UNL d   1      27.405 -13.839   4.425  0.00  0.00     0.020 A 
ATOM     17  C   UNL d   1      27.972 -13.646   5.697  0.00  0.00     0.008 A 
ATOM     18  C   UNL d   1      29.334 -13.867   5.914  0.00  0.00    -0.059 A 
ATOM     19  C   UNL d   1      29.963 -13.688   7.266  0.00  0.00     0.048 C 
ATOM     20  C   UNL d   1      30.125 -14.269   4.834  0.00  0.00     0.044 A 
ATOM     21  C   UNL d   1      29.564 -14.450   3.563  0.00  0.00     0.082 A 
BRANCH  21  22
ATOM     22  O   UNL d   1      30.458 -14.824   2.593  0.00  0.00    -0.360 OA
ATOM     23  H   UNL d   1      30.406 -15.799   2.485  0.00  0.00     0.217 HD
ENDBRANCH  21  22
ENDBRANCH   1  15
TORSDOF 4
ENDMDL
MODEL 4
REMARK VINA RESULT:    -6.107      5.229      8.142
REMARK INTER + INTRA:          -8.232
REMARK INTER:                  -7.301
REMARK INTRA:                  -0.931
REMARK CONF_INDEPENDENT:        1.193
REMARK UNBOUND:                -0.931
REMARK  4 active torsions:
REMARK  status: ('A' for Active; 'I' for Inactive)
REMARK    1  A    between atoms: C_5  and  C_6 
REMARK       I    between atoms: C_6  and  N_8 
REMARK    2  A    between atoms: N_8  and  N_9 
REMARK    3  A    between atoms: N_9  and  C_10 
REMARK    4  A    between atoms: C_18  and  O_19 
ROOT
ATOM      1  C   UNL d   1      27.398 -14.216   1.810  0.00  0.00     0.272 C 
ATOM      2  O   UNL d   1      26.761 -13.631   0.924  0.00  0.00    -0.266 OA
ATOM      3  N   UNL d   1      27.881 -15.517   1.659  0.00  0.00    -0.265 N 
ATOM      4  H   UNL d   1      28.531 -15.949   2.304  0.00  0.00     0.190 HD
ENDROOT
BRANCH   3   5
ATOM      5  N   UNL d   1      27.725 -16.151   0.420  0.00  0.00    -0.295 N 
ATOM      6  H   UNL d   1      28.567 -16.426  -0.090  0.00  0.00     0.187 HD
BRANCH   5   7
ATOM      7  C   UNL d   1      26.462 -16.610   0.010  0.00  0.00     0.086 A 
ATOM      8  C   UNL d   1      25.650 -15.871  -0.864  0.00  0.00     0.037 A 
ATOM      9  C   UNL d   1      24.408 -16.366  -1.289  0.00  0.00     0.045 A 
ATOM     10  C   UNL d   1      23.945 -17.586  -0.810  0.00  0.00     0.119 A 
ATOM     11  F   UNL d   1      22.759 -18.051  -1.224  0.00  0.00    -0.206 F 
ATOM     12  C   UNL d   1      24.697 -18.322   0.090  0.00  0.00     0.086 A 
ATOM     13  C   UNL d   1      25.944 -17.833   0.488  0.00  0.00     0.147 A 
ATOM     14  F   UNL d   1      26.655 -18.560   1.363  0.00  0.00    -0.204 F 
ENDBRANCH   5   7
ENDBRANCH   3   5
BRANCH   1  15
ATOM     15  C   UNL d   1      27.660 -13.493   3.107  0.00  0.00     0.066 A 
ATOM     16  C   UNL d   1      27.639 -12.091   3.196  0.00  0.00     0.020 A 
ATOM     17  C   UNL d   1      27.889 -11.433   4.413  0.00  0.00     0.008 A 
ATOM     18  C   UNL d   1      28.157 -12.159   5.576  0.00  0.00    -0.059 A 
ATOM     19  C   UNL d   1      28.408 -11.485   6.894  0.00  0.00     0.048 C 
ATOM     20  C   UNL d   1      28.188 -13.554   5.500  0.00  0.00     0.044 A 
ATOM     21  C   UNL d   1      27.951 -14.211   4.285  0.00  0.00     0.082 A 
BRANCH  21  22
ATOM     22  O   UNL d   1      28.033 -15.578   4.350  0.00  0.00    -0.360 OA
ATOM     23  H   UNL d   1      28.910 -15.852   4.004  0.00  0.00     0.217 HD
ENDBRANCH  21  22
ENDBRANCH   1  15
TORSDOF 4
ENDMDL
MODEL 5
REMARK VINA RESULT:    -5.810      2.937      7.402
REMARK INTER + INTRA:          -7.729
REMARK INTER:                  -7.003
REMARK INTRA:                  -0.726
REMARK CONF_INDEPENDENT:        1.193
REMARK UNBOUND:                -0.726
REMARK  4 active torsions:
REMARK  status: ('A' for Active; 'I' for Inactive)
REMARK    1  A    between atoms: C_5  and  C_6 
REMARK       I    between atoms: C_6  and  N_8 
REMARK    2  A    between atoms: N_8  and  N_9 
REMARK    3  A    between atoms: N_9  and  C_10 
REMARK    4  A    between atoms: C_18  and  O_19 
ROOT
ATOM      1  C   UNL d   1      24.516 -17.304  -1.458  0.00  0.00     0.272 C 
ATOM      2  O   UNL d   1      24.511 -17.438  -2.689  0.00  0.00    -0.266 OA
ATOM      3  N   UNL d   1      23.500 -17.801  -0.639  0.00  0.00    -0.265 N 
ATOM      4  H   UNL d   1      23.565 -17.837   0.370  0.00  0.00     0.190 HD
ENDROOT
BRANCH   3   5
ATOM      5  N   UNL d   1      22.482 -18.566  -1.223  0.00  0.00    -0.295 N 
ATOM      6  H   UNL d   1      22.638 -18.940  -2.161  0.00  0.00     0.187 HD
BRANCH   5   7
ATOM      7  C   UNL d   1      21.393 -19.007  -0.451  0.00  0.00     0.086 A 
ATOM      8  C   UNL d   1      21.401 -18.940   0.950  0.00  0.00     0.037 A 
ATOM      9  C   UNL d   1      20.288 -19.351   1.700  0.00  0.00     0.045 A 
ATOM     10  C   UNL d   1      19.173 -19.875   1.057  0.00  0.00     0.119 A 
ATOM     11  F   UNL d   1      18.114 -20.262   1.781  0.00  0.00    -0.206 F 
ATOM     12  C   UNL d   1      19.146 -20.000  -0.322  0.00  0.00     0.086 A 
ATOM     13  C   UNL d   1      20.250 -19.564  -1.061  0.00  0.00     0.147 A 
ATOM     14  F   UNL d   1      20.206 -19.697  -2.395  0.00  0.00    -0.204 F 
ENDBRANCH   5   7
ENDBRANCH   3   5
BRANCH   1  15
ATOM     15  C   UNL d   1      25.669 -16.572  -0.817  0.00  0.00     0.066 A 
ATOM     16  C   UNL d   1      26.020 -15.265  -1.191  0.00  0.00     0.020 A 
ATOM     17  C   UNL d   1      27.100 -14.598  -0.585  0.00  0.00     0.008 A 
ATOM     18  C   UNL d   1      27.850 -15.216   0.419  0.00  0.00    -0.059 A 
ATOM     19  C   UNL d   1      28.995 -14.522   1.097  0.00  0.00     0.048 C 
ATOM     20  C   UNL d   1      27.514 -16.520   0.795  0.00  0.00     0.044 A 
ATOM     21  C   UNL d   1      26.446 -17.190   0.183  0.00  0.00     0.082 A 
BRANCH  21  22
ATOM     22  O   UNL d   1      26.241 -18.469   0.634  0.00  0.00    -0.360 OA
ATOM     23  H   UNL d   1      27.073 -18.786   1.050  0.00  0.00     0.217 HD
ENDBRANCH  21  22
ENDBRANCH   1  15
TORSDOF 4
ENDMDL
MODEL 6
REMARK VINA RESULT:    -5.651      3.903      7.943
REMARK INTER + INTRA:          -8.101
REMARK INTER:                  -6.844
REMARK INTRA:                  -1.257
REMARK CONF_INDEPENDENT:        1.193
REMARK UNBOUND:                -1.257
REMARK  4 active torsions:
REMARK  status: ('A' for Active; 'I' for Inactive)
REMARK    1  A    between atoms: C_5  and  C_6 
REMARK       I    between atoms: C_6  and  N_8 
REMARK    2  A    between atoms: N_8  and  N_9 
REMARK    3  A    between atoms: N_9  and  C_10 
REMARK    4  A    between atoms: C_18  and  O_19 
ROOT
ATOM      1  C   UNL d   1      26.252 -14.004  -1.802  0.00  0.00     0.272 C 
ATOM      2  O   UNL d   1      26.972 -13.811  -0.814  0.00  0.00    -0.266 OA
ATOM      3  N   UNL d   1      25.423 -15.121  -1.927  0.00  0.00    -0.265 N 
ATOM      4  H   UNL d   1      24.719 -15.215  -2.647  0.00  0.00     0.190 HD
ENDROOT
BRANCH   3   5
ATOM      5  N   UNL d   1      25.329 -16.010  -0.848  0.00  0.00    -0.295 N 
ATOM      6  H   UNL d   1      25.954 -15.870  -0.052  0.00  0.00     0.187 HD
BRANCH   5   7
ATOM      7  C   UNL d   1      24.251 -16.908  -0.759  0.00  0.00     0.086 A 
ATOM      8  C   UNL d   1      22.924 -16.496  -0.951  0.00  0.00     0.037 A 
ATOM      9  C   UNL d   1      21.866 -17.416  -0.895  0.00  0.00     0.045 A 
ATOM     10  C   UNL d   1      22.121 -18.750  -0.602  0.00  0.00     0.119 A 
ATOM     11  F   UNL d   1      21.104 -19.622  -0.553  0.00  0.00    -0.206 F 
ATOM     12  C   UNL d   1      23.413 -19.186  -0.361  0.00  0.00     0.086 A 
ATOM     13  C   UNL d   1      24.462 -18.267  -0.445  0.00  0.00     0.147 A 
ATOM     14  F   UNL d   1      25.706 -18.708  -0.204  0.00  0.00    -0.204 F 
ENDBRANCH   5   7
ENDBRANCH   3   5
BRANCH   1  15
ATOM     15  C   UNL d   1      26.272 -12.990  -2.919  0.00  0.00     0.066 A 
ATOM     16  C   UNL d   1      27.025 -11.808  -2.837  0.00  0.00     0.020 A 
ATOM     17  C   UNL d   1      27.030 -10.872  -3.886  0.00  0.00     0.008 A 
ATOM     18  C   UNL d   1      26.289 -11.097  -5.049  0.00  0.00    -0.059 A 
ATOM     19  C   UNL d   1      26.290 -10.125  -6.194  0.00  0.00     0.048 C 
ATOM     20  C   UNL d   1      25.530 -12.267  -5.140  0.00  0.00     0.044 A 
ATOM     21  C   UNL d   1      25.515 -13.195  -4.090  0.00  0.00     0.082 A 
BRANCH  21  22
ATOM     22  O   UNL d   1      24.712 -14.286  -4.304  0.00  0.00    -0.360 OA
ATOM     23  H   UNL d   1      24.077 -14.066  -5.020  0.00  0.00     0.217 HD
ENDBRANCH  21  22
ENDBRANCH   1  15
TORSDOF 4
ENDMDL
MODEL 7
REMARK VINA RESULT:    -5.626      8.846     10.852
REMARK INTER + INTRA:          -7.740
REMARK INTER:                  -6.820
REMARK INTRA:                  -0.921
REMARK CONF_INDEPENDENT:        1.193
REMARK UNBOUND:                -0.921
REMARK  4 active torsions:
REMARK  status: ('A' for Active; 'I' for Inactive)
REMARK    1  A    between atoms: C_5  and  C_6 
REMARK       I    between atoms: C_6  and  N_8 
REMARK    2  A    between atoms: N_8  and  N_9 
REMARK    3  A    between atoms: N_9  and  C_10 
REMARK    4  A    between atoms: C_18  and  O_19 
ROOT
ATOM      1  C   UNL d   1      32.168 -21.891   2.063  0.00  0.00     0.272 C 
ATOM      2  O   UNL d   1      33.332 -22.244   2.297  0.00  0.00    -0.266 OA
ATOM      3  N   UNL d   1      31.530 -20.874   2.775  0.00  0.00    -0.265 N 
ATOM      4  H   UNL d   1      30.644 -20.471   2.498  0.00  0.00     0.190 HD
ENDROOT
BRANCH   3   5
ATOM      5  N   UNL d   1      32.266 -20.158   3.728  0.00  0.00    -0.295 N 
ATOM      6  H   UNL d   1      32.215 -19.138   3.708  0.00  0.00     0.187 HD
BRANCH   5   7
ATOM      7  C   UNL d   1      32.852 -20.822   4.819  0.00  0.00     0.086 A 
ATOM      8  C   UNL d   1      34.240 -21.005   4.918  0.00  0.00     0.037 A 
ATOM      9  C   UNL d   1      34.808 -21.637   6.035  0.00  0.00     0.045 A 
ATOM     10  C   UNL d   1      33.989 -22.133   7.043  0.00  0.00     0.119 A 
ATOM     11  F   UNL d   1      34.541 -22.733   8.107  0.00  0.00    -0.206 F 
ATOM     12  C   UNL d   1      32.613 -22.013   6.959  0.00  0.00     0.086 A 
ATOM     13  C   UNL d   1      32.059 -21.358   5.855  0.00  0.00     0.147 A 
ATOM     14  F   UNL d   1      30.722 -21.255   5.790  0.00  0.00    -0.204 F 
ENDBRANCH   5   7
ENDBRANCH   3   5
BRANCH   1  15
ATOM     15  C   UNL d   1      31.409 -22.590   0.963  0.00  0.00     0.066 A 
ATOM     16  C   UNL d   1      32.064 -23.260  -0.084  0.00  0.00     0.020 A 
ATOM     17  C   UNL d   1      31.340 -23.904  -1.103  0.00  0.00     0.008 A 
ATOM     18  C   UNL d   1      29.943 -23.904  -1.098  0.00  0.00    -0.059 A 
ATOM     19  C   UNL d   1      29.144 -24.599  -2.162  0.00  0.00     0.048 C 
ATOM     20  C   UNL d   1      29.280 -23.235  -0.066  0.00  0.00     0.044 A 
ATOM     21  C   UNL d   1      30.000 -22.582   0.944  0.00  0.00     0.082 A 
BRANCH  21  22
ATOM     22  O   UNL d   1      29.223 -21.950   1.881  0.00  0.00    -0.360 OA
ATOM     23  H   UNL d   1      29.305 -20.980   1.746  0.00  0.00     0.217 HD
ENDBRANCH  21  22
ENDBRANCH   1  15
TORSDOF 4
ENDMDL
MODEL 8
REMARK VINA RESULT:    -5.500      4.337      8.314
REMARK INTER + INTRA:          -7.929
REMARK INTER:                  -6.693
REMARK INTRA:                  -1.236
REMARK CONF_INDEPENDENT:        1.193
REMARK UNBOUND:                -1.236
REMARK  4 active torsions:
REMARK  status: ('A' for Active; 'I' for Inactive)
REMARK    1  A    between atoms: C_5  and  C_6 
REMARK       I    between atoms: C_6  and  N_8 
REMARK    2  A    between atoms: N_8  and  N_9 
REMARK    3  A    between atoms: N_9  and  C_10 
REMARK    4  A    between atoms: C_18  and  O_19 
ROOT
ATOM      1  C   UNL d   1      25.624 -14.290  -4.186  0.00  0.00     0.272 C 
ATOM      2  O   UNL d   1      24.423 -14.108  -4.425  0.00  0.00    -0.266 OA
ATOM      3  N   UNL d   1      26.075 -14.946  -3.038  0.00  0.00    -0.265 N 
ATOM      4  H   UNL d   1      27.034 -15.239  -2.904  0.00  0.00     0.190 HD
ENDROOT
BRANCH   3   5
ATOM      5  N   UNL d   1      25.129 -15.507  -2.170  0.00  0.00    -0.295 N 
ATOM      6  H   UNL d   1      24.139 -15.402  -2.404  0.00  0.00     0.187 HD
BRANCH   5   7
ATOM      7  C   UNL d   1      25.532 -16.387  -1.152  0.00  0.00     0.086 A 
ATOM      8  C   UNL d   1      26.850 -16.413  -0.672  0.00  0.00     0.037 A 
ATOM      9  C   UNL d   1      27.223 -17.274   0.372  0.00  0.00     0.045 A 
ATOM     10  C   UNL d   1      26.291 -18.150   0.915  0.00  0.00     0.119 A 
ATOM     11  F   UNL d   1      26.656 -18.967   1.913  0.00  0.00    -0.206 F 
ATOM     12  C   UNL d   1      24.992 -18.187   0.437  0.00  0.00     0.086 A 
ATOM     13  C   UNL d   1      24.625 -17.307  -0.585  0.00  0.00     0.147 A 
ATOM     14  F   UNL d   1      23.363 -17.360  -1.038  0.00  0.00    -0.204 F 
ENDBRANCH   5   7
ENDBRANCH   3   5
BRANCH   1  15
ATOM     15  C   UNL d   1      26.643 -13.781  -5.174  0.00  0.00     0.066 A 
ATOM     16  C   UNL d   1      27.688 -14.590  -5.649  0.00  0.00     0.020 A 
ATOM     17  C   UNL d   1      28.631 -14.098  -6.569  0.00  0.00     0.008 A 
ATOM     18  C   UNL d   1      28.548 -12.787  -7.046  0.00  0.00    -0.059 A 
ATOM     19  C   UNL d   1      29.528 -12.240  -8.044  0.00  0.00     0.048 C 
ATOM     20  C   UNL d   1      27.516 -11.970  -6.577  0.00  0.00     0.044 A 
ATOM     21  C   UNL d   1      26.582 -12.456  -5.651  0.00  0.00     0.082 A 
BRANCH  21  22
ATOM     22  O   UNL d   1      25.638 -11.541  -5.260  0.00  0.00    -0.360 OA
ATOM     23  H   UNL d   1      24.838 -12.030  -4.967  0.00  0.00     0.217 HD
ENDBRANCH  21  22
ENDBRANCH   1  15
TORSDOF 4
ENDMDL
MODEL 9
REMARK VINA RESULT:    -5.326      4.673      8.599
REMARK INTER + INTRA:          -7.575
REMARK INTER:                  -6.520
REMARK INTRA:                  -1.055
REMARK CONF_INDEPENDENT:        1.193
REMARK UNBOUND:                -1.055
REMARK  4 active torsions:
REMARK  status: ('A' for Active; 'I' for Inactive)
REMARK    1  A    between atoms: C_5  and  C_6 
REMARK       I    between atoms: C_6  and  N_8 
REMARK    2  A    between atoms: N_8  and  N_9 
REMARK    3  A    between atoms: N_9  and  C_10 
REMARK    4  A    between atoms: C_18  and  O_19 
ROOT
ATOM      1  C   UNL d   1      27.075 -14.602  -4.687  0.00  0.00     0.272 C 
ATOM      2  O   UNL d   1      27.530 -15.570  -5.311  0.00  0.00    -0.266 OA
ATOM      3  N   UNL d   1      26.645 -14.693  -3.362  0.00  0.00    -0.265 N 
ATOM      4  H   UNL d   1      26.419 -13.888  -2.793  0.00  0.00     0.190 HD
ENDROOT
BRANCH   3   5
ATOM      5  N   UNL d   1      26.825 -15.903  -2.679  0.00  0.00    -0.295 N 
ATOM      6  H   UNL d   1      27.764 -16.305  -2.651  0.00  0.00     0.187 HD
BRANCH   5   7
ATOM      7  C   UNL d   1      25.806 -16.414  -1.857  0.00  0.00     0.086 A 
ATOM      8  C   UNL d   1      24.482 -15.959  -1.947  0.00  0.00     0.037 A 
ATOM      9  C   UNL d   1      23.472 -16.510  -1.143  0.00  0.00     0.045 A 
ATOM     10  C   UNL d   1      23.785 -17.491  -0.209  0.00  0.00     0.119 A 
ATOM     11  F   UNL d   1      22.814 -18.013   0.552  0.00  0.00    -0.206 F 
ATOM     12  C   UNL d   1      25.089 -17.933  -0.059  0.00  0.00     0.086 A 
ATOM     13  C   UNL d   1      26.083 -17.396  -0.883  0.00  0.00     0.147 A 
ATOM     14  F   UNL d   1      27.340 -17.835  -0.719  0.00  0.00    -0.204 F 
ENDBRANCH   5   7
ENDBRANCH   3   5
BRANCH   1  15
ATOM     15  C   UNL d   1      26.980 -13.271  -5.389  0.00  0.00     0.066 A 
ATOM     16  C   UNL d   1      27.784 -12.954  -6.496  0.00  0.00     0.020 A 
ATOM     17  C   UNL d   1      27.685 -11.707  -7.136  0.00  0.00     0.008 A 
ATOM     18  C   UNL d   1      26.772 -10.746  -6.694  0.00  0.00    -0.059 A 
ATOM     19  C   UNL d   1      26.631  -9.413  -7.369  0.00  0.00     0.048 C 
ATOM     20  C   UNL d   1      25.971 -11.047  -5.588  0.00  0.00     0.044 A 
ATOM     21  C   UNL d   1      26.077 -12.285  -4.942  0.00  0.00     0.082 A 
BRANCH  21  22
ATOM     22  O   UNL d   1      25.248 -12.437  -3.861  0.00  0.00    -0.360 OA
ATOM     23  H   UNL d   1      24.405 -11.971  -4.050  0.00  0.00     0.217 HD
ENDBRANCH  21  22
ENDBRANCH   1  15
TORSDOF 4
ENDMDL
