MODEL 1
REMARK VINA RESULT:    -8.211      0.000      0.000
REMARK INTER + INTRA:         -11.031
REMARK INTER:                  -9.702
REMARK INTRA:                  -1.329
REMARK CONF_INDEPENDENT:        1.492
REMARK UNBOUND:                -1.329
REMARK  5 active torsions:
REMARK  status: ('A' for Active; 'I' for Inactive)
REMARK       I    between atoms: N_1  and  C_2 
REMARK       I    between atoms: C_2  and  N_4 
REMARK    1  A    between atoms: N_4  and  N_5 
REMARK       I    between atoms: N_5  and  C_6 
REMARK       I    between atoms: C_6  and  N_8 
REMARK    2  A    between atoms: N_8  and  C_9 
REMARK    3  A    between atoms: C_9  and  C_10 
REMARK    4  A    between atoms: C_14  and  O_15 
REMARK    5  A    between atoms: O_15  and  C_16 
ROOT
ATOM      1  N   UNL d   1      20.630 -20.066   0.519  0.00  0.00    -0.248 N 
ATOM      2  C   UNL d   1      21.188 -19.338  -0.520  0.00  0.00     0.335 C 
ATOM      3  O   UNL d   1      20.700 -19.327  -1.649  0.00  0.00    -0.246 OA
ATOM      4  N   UNL d   1      22.334 -18.636  -0.198  0.00  0.00    -0.338 N 
ATOM      5  H   UNL d   1      21.005 -20.106   1.462  0.00  0.00     0.192 HD
ATOM      6  H   UNL d   1      22.691 -18.645   0.746  0.00  0.00     0.164 HD
ENDROOT
BRANCH   4   7
ATOM      7  C   UNL d   1      23.041 -17.847  -1.206  0.00  0.00     0.163 C 
BRANCH   7   8
ATOM      8  C   UNL d   1      24.439 -17.439  -0.803  0.00  0.00    -0.035 A 
ATOM      9  C   UNL d   1      25.305 -18.212  -0.042  0.00  0.00     0.028 A 
ATOM     10  C   UNL d   1      26.572 -17.706   0.246  0.00  0.00     0.120 A 
ATOM     11  N   UNL d   1      27.029 -16.502  -0.173  0.00  0.00    -0.237 NA
ATOM     12  C   UNL d   1      26.193 -15.763  -0.926  0.00  0.00     0.164 A 
ATOM     13  C   UNL d   1      24.920 -16.215  -1.245  0.00  0.00     0.066 A 
BRANCH  12  14
ATOM     14  O   UNL d   1      26.709 -14.562  -1.330  0.00  0.00    -0.329 OA
BRANCH  14  15
ATOM     15  C   UNL d   1      26.609 -14.162  -2.696  0.00  0.00     0.130 C 
ATOM     16  C   UNL d   1      26.872 -15.252  -3.740  0.00  0.00     0.032 C 
ATOM     17  C   UNL d   1      26.274 -14.683  -5.019  0.00  0.00     0.002 C 
ATOM     18  C   UNL d   1      25.191 -13.683  -4.604  0.00  0.00     0.002 C 
ATOM     19  C   UNL d   1      25.281 -13.507  -3.095  0.00  0.00     0.032 C 
ENDBRANCH  14  15
ENDBRANCH  12  14
ENDBRANCH   7   8
ENDBRANCH   4   7
BRANCH   1  20
ATOM     20  N   UNL d   1      19.458 -20.854   0.282  0.00  0.00    -0.248 N 
ATOM     21  C   UNL d   1      18.630 -21.200   1.320  0.00  0.00     0.332 C 
ATOM     22  N   UNL d   1      17.547 -21.948   0.980  0.00  0.00    -0.351 N 
ATOM     23  O   UNL d   1      18.820 -20.875   2.494  0.00  0.00    -0.246 OA
ATOM     24  H   UNL d   1      16.914 -22.220   1.724  0.00  0.00     0.160 HD
ATOM     25  H   UNL d   1      17.321 -22.255   0.046  0.00  0.00     0.160 HD
ATOM     26  H   UNL d   1      19.287 -21.135  -0.679  0.00  0.00     0.192 HD
ENDBRANCH   1  20
TORSDOF 5
ENDMDL
MODEL 2
REMARK VINA RESULT:    -7.569      3.357      8.635
REMARK INTER + INTRA:         -10.498
REMARK INTER:                  -9.061
REMARK INTRA:                  -1.437
REMARK CONF_INDEPENDENT:        1.492
REMARK UNBOUND:                -1.437
REMARK  5 active torsions:
REMARK  status: ('A' for Active; 'I' for Inactive)
REMARK       I    between atoms: N_1  and  C_2 
REMARK       I    between atoms: C_2  and  N_4 
REMARK    1  A    between atoms: N_4  and  N_5 
REMARK       I    between atoms: N_5  and  C_6 
REMARK       I    between atoms: C_6  and  N_8 
REMARK    2  A    between atoms: N_8  and  C_9 
REMARK    3  A    between atoms: C_9  and  C_10 
REMARK    4  A    between atoms: C_14  and  O_15 
REMARK    5  A    between atoms: O_15  and  C_16 
ROOT
ATOM      1  N   UNL d   1      27.046 -13.927  -4.708  0.00  0.00    -0.248 N 
ATOM      2  C   UNL d   1      25.994 -14.692  -4.229  0.00  0.00     0.335 C 
ATOM      3  O   UNL d   1      25.539 -15.648  -4.854  0.00  0.00    -0.246 OA
ATOM      4  N   UNL d   1      25.488 -14.295  -3.005  0.00  0.00    -0.338 N 
ATOM      5  H   UNL d   1      27.445 -13.127  -4.226  0.00  0.00     0.192 HD
ATOM      6  H   UNL d   1      25.905 -13.522  -2.506  0.00  0.00     0.164 HD
ENDROOT
BRANCH   4   7
ATOM      7  C   UNL d   1      24.360 -14.996  -2.394  0.00  0.00     0.163 C 
BRANCH   7   8
ATOM      8  C   UNL d   1      24.756 -16.166  -1.524  0.00  0.00    -0.035 A 
ATOM      9  C   UNL d   1      26.035 -16.400  -1.039  0.00  0.00     0.028 A 
ATOM     10  C   UNL d   1      26.250 -17.521  -0.239  0.00  0.00     0.120 A 
ATOM     11  N   UNL d   1      25.289 -18.409   0.109  0.00  0.00    -0.237 NA
ATOM     12  C   UNL d   1      24.046 -18.169  -0.347  0.00  0.00     0.164 A 
ATOM     13  C   UNL d   1      23.771 -17.068  -1.147  0.00  0.00     0.066 A 
BRANCH  12  14
ATOM     14  O   UNL d   1      23.112 -19.090   0.043  0.00  0.00    -0.329 OA
BRANCH  14  15
ATOM     15  C   UNL d   1      21.723 -18.767  -0.001  0.00  0.00     0.130 C 
ATOM     16  C   UNL d   1      20.983 -19.146  -1.288  0.00  0.00     0.032 C 
ATOM     17  C   UNL d   1      19.514 -19.108  -0.889  0.00  0.00     0.002 C 
ATOM     18  C   UNL d   1      19.452 -19.348   0.622  0.00  0.00     0.002 C 
ATOM     19  C   UNL d   1      20.880 -19.328   1.150  0.00  0.00     0.032 C 
ENDBRANCH  14  15
ENDBRANCH  12  14
ENDBRANCH   7   8
ENDBRANCH   4   7
BRANCH   1  20
ATOM     20  N   UNL d   1      27.621 -14.236  -5.983  0.00  0.00    -0.248 N 
ATOM     21  C   UNL d   1      28.740 -13.573  -6.421  0.00  0.00     0.332 C 
ATOM     22  N   UNL d   1      29.200 -13.947  -7.644  0.00  0.00    -0.351 N 
ATOM     23  O   UNL d   1      29.318 -12.695  -5.778  0.00  0.00    -0.246 OA
ATOM     24  H   UNL d   1      30.027 -13.477  -7.997  0.00  0.00     0.160 HD
ATOM     25  H   UNL d   1      28.784 -14.655  -8.231  0.00  0.00     0.160 HD
ATOM     26  H   UNL d   1      27.154 -14.955  -6.528  0.00  0.00     0.192 HD
ENDBRANCH   1  20
TORSDOF 5
ENDMDL
MODEL 3
REMARK VINA RESULT:    -7.516      1.825      2.559
REMARK INTER + INTRA:         -10.509
REMARK INTER:                  -9.007
REMARK INTRA:                  -1.502
REMARK CONF_INDEPENDENT:        1.492
REMARK UNBOUND:                -1.502
REMARK  5 active torsions:
REMARK  status: ('A' for Active; 'I' for Inactive)
REMARK       I    between atoms: N_1  and  C_2 
REMARK       I    between atoms: C_2  and  N_4 
REMARK    1  A    between atoms: N_4  and  N_5 
REMARK       I    between atoms: N_5  and  C_6 
REMARK       I    between atoms: C_6  and  N_8 
REMARK    2  A    between atoms: N_8  and  C_9 
REMARK    3  A    between atoms: C_9  and  C_10 
REMARK    4  A    between atoms: C_14  and  O_15 
REMARK    5  A    between atoms: O_15  and  C_16 
ROOT
ATOM      1  N   UNL d   1      22.214 -18.966  -0.019  0.00  0.00    -0.248 N 
ATOM      2  C   UNL d   1      23.391 -18.580  -0.641  0.00  0.00     0.335 C 
ATOM      3  O   UNL d   1      23.447 -18.328  -1.843  0.00  0.00    -0.246 OA
ATOM      4  N   UNL d   1      24.496 -18.507   0.186  0.00  0.00    -0.338 N 
ATOM      5  H   UNL d   1      22.128 -19.188   0.968  0.00  0.00     0.192 HD
ATOM      6  H   UNL d   1      24.409 -18.693   1.175  0.00  0.00     0.164 HD
ENDROOT
BRANCH   4   7
ATOM      7  C   UNL d   1      25.809 -18.138  -0.343  0.00  0.00     0.163 C 
BRANCH   7   8
ATOM      8  C   UNL d   1      25.929 -16.686  -0.742  0.00  0.00    -0.035 A 
ATOM      9  C   UNL d   1      26.628 -15.720  -0.031  0.00  0.00     0.028 A 
ATOM     10  C   UNL d   1      26.657 -14.418  -0.528  0.00  0.00     0.120 A 
ATOM     11  N   UNL d   1      26.050 -14.020  -1.671  0.00  0.00    -0.237 NA
ATOM     12  C   UNL d   1      25.389 -14.964  -2.368  0.00  0.00     0.164 A 
ATOM     13  C   UNL d   1      25.326 -16.277  -1.923  0.00  0.00     0.066 A 
BRANCH  12  14
ATOM     14  O   UNL d   1      24.804 -14.510  -3.518  0.00  0.00    -0.329 OA
BRANCH  14  15
ATOM     15  C   UNL d   1      25.604 -14.226  -4.665  0.00  0.00     0.130 C 
ATOM     16  C   UNL d   1      26.212 -12.821  -4.733  0.00  0.00     0.032 C 
ATOM     17  C   UNL d   1      27.323 -12.954  -5.765  0.00  0.00     0.002 C 
ATOM     18  C   UNL d   1      27.747 -14.426  -5.783  0.00  0.00     0.002 C 
ATOM     19  C   UNL d   1      26.761 -15.199  -4.918  0.00  0.00     0.032 C 
ENDBRANCH  14  15
ENDBRANCH  12  14
ENDBRANCH   7   8
ENDBRANCH   4   7
BRANCH   1  20
ATOM     20  N   UNL d   1      21.017 -19.102  -0.794  0.00  0.00    -0.248 N 
ATOM     21  C   UNL d   1      19.855 -19.538  -0.208  0.00  0.00     0.332 C 
ATOM     22  N   UNL d   1      18.781 -19.629  -1.037  0.00  0.00    -0.351 N 
ATOM     23  O   UNL d   1      19.751 -19.836   0.983  0.00  0.00    -0.246 OA
ATOM     24  H   UNL d   1      17.906 -19.948  -0.635  0.00  0.00     0.160 HD
ATOM     25  H   UNL d   1      18.784 -19.406  -2.021  0.00  0.00     0.160 HD
ATOM     26  H   UNL d   1      21.085 -18.865  -1.779  0.00  0.00     0.192 HD
ENDBRANCH   1  20
TORSDOF 5
ENDMDL
MODEL 4
REMARK VINA RESULT:    -7.351      2.180      3.139
REMARK INTER + INTRA:         -10.220
REMARK INTER:                  -8.842
REMARK INTRA:                  -1.378
REMARK CONF_INDEPENDENT:        1.492
REMARK UNBOUND:                -1.378
REMARK  5 active torsions:
REMARK  status: ('A' for Active; 'I' for Inactive)
REMARK       I    between atoms: N_1  and  C_2 
REMARK       I    between atoms: C_2  and  N_4 
REMARK    1  A    between atoms: N_4  and  N_5 
REMARK       I    between atoms: N_5  and  C_6 
REMARK       I    between atoms: C_6  and  N_8 
REMARK    2  A    between atoms: N_8  and  C_9 
REMARK    3  A    between atoms: C_9  and  C_10 
REMARK    4  A    between atoms: C_14  and  O_15 
REMARK    5  A    between atoms: O_15  and  C_16 
ROOT
ATOM      1  N   UNL d   1      20.588 -19.730   0.066  0.00  0.00    -0.248 N 
ATOM      2  C   UNL d   1      21.205 -18.604  -0.458  0.00  0.00     0.335 C 
ATOM      3  O   UNL d   1      20.646 -17.868  -1.269  0.00  0.00    -0.246 OA
ATOM      4  N   UNL d   1      22.493 -18.377  -0.012  0.00  0.00    -0.338 N 
ATOM      5  H   UNL d   1      21.017 -20.366   0.732  0.00  0.00     0.192 HD
ATOM      6  H   UNL d   1      22.911 -18.987   0.676  0.00  0.00     0.164 HD
ENDROOT
BRANCH   4   7
ATOM      7  C   UNL d   1      23.271 -17.241  -0.504  0.00  0.00     0.163 C 
BRANCH   7   8
ATOM      8  C   UNL d   1      24.756 -17.353  -0.251  0.00  0.00    -0.035 A 
ATOM      9  C   UNL d   1      25.403 -18.494   0.202  0.00  0.00     0.028 A 
ATOM     10  C   UNL d   1      26.785 -18.450   0.382  0.00  0.00     0.120 A 
ATOM     11  N   UNL d   1      27.555 -17.362   0.140  0.00  0.00    -0.237 NA
ATOM     12  C   UNL d   1      26.926 -16.263  -0.317  0.00  0.00     0.164 A 
ATOM     13  C   UNL d   1      25.553 -16.248  -0.517  0.00  0.00     0.066 A 
BRANCH  12  14
ATOM     14  O   UNL d   1      27.752 -15.198  -0.555  0.00  0.00    -0.329 OA
BRANCH  14  15
ATOM     15  C   UNL d   1      27.862 -14.147   0.403  0.00  0.00     0.130 C 
ATOM     16  C   UNL d   1      26.544 -13.607   0.968  0.00  0.00     0.032 C 
ATOM     17  C   UNL d   1      26.964 -12.867   2.230  0.00  0.00     0.002 C 
ATOM     18  C   UNL d   1      28.282 -13.489   2.700  0.00  0.00     0.002 C 
ATOM     19  C   UNL d   1      28.746 -14.455   1.618  0.00  0.00     0.032 C 
ENDBRANCH  14  15
ENDBRANCH  12  14
ENDBRANCH   7   8
ENDBRANCH   4   7
BRANCH   1  20
ATOM     20  N   UNL d   1      19.263 -20.071  -0.356  0.00  0.00    -0.248 N 
ATOM     21  C   UNL d   1      18.525 -20.992   0.345  0.00  0.00     0.332 C 
ATOM     22  N   UNL d   1      17.281 -21.239  -0.145  0.00  0.00    -0.351 N 
ATOM     23  O   UNL d   1      18.926 -21.576   1.354  0.00  0.00    -0.246 OA
ATOM     24  H   UNL d   1      16.709 -21.915   0.351  0.00  0.00     0.160 HD
ATOM     25  H   UNL d   1      16.880 -20.805  -0.963  0.00  0.00     0.160 HD
ATOM     26  H   UNL d   1      18.918 -19.603  -1.189  0.00  0.00     0.192 HD
ENDBRANCH   1  20
TORSDOF 5
ENDMDL
MODEL 5
REMARK VINA RESULT:    -7.324      2.902      4.269
REMARK INTER + INTRA:         -10.134
REMARK INTER:                  -8.815
REMARK INTRA:                  -1.319
REMARK CONF_INDEPENDENT:        1.492
REMARK UNBOUND:                -1.319
REMARK  5 active torsions:
REMARK  status: ('A' for Active; 'I' for Inactive)
REMARK       I    between atoms: N_1  and  C_2 
REMARK       I    between atoms: C_2  and  N_4 
REMARK    1  A    between atoms: N_4  and  N_5 
REMARK       I    between atoms: N_5  and  C_6 
REMARK       I    between atoms: C_6  and  N_8 
REMARK    2  A    between atoms: N_8  and  C_9 
REMARK    3  A    between atoms: C_9  and  C_10 
REMARK    4  A    between atoms: C_14  and  O_15 
REMARK    5  A    between atoms: O_15  and  C_16 
ROOT
ATOM      1  N   UNL d   1      22.583 -18.454  -1.032  0.00  0.00    -0.248 N 
ATOM      2  C   UNL d   1      23.680 -17.667  -0.720  0.00  0.00     0.335 C 
ATOM      3  O   UNL d   1      24.151 -17.617   0.414  0.00  0.00    -0.246 OA
ATOM      4  N   UNL d   1      24.198 -16.936  -1.773  0.00  0.00    -0.338 N 
ATOM      5  H   UNL d   1      22.161 -18.517  -1.954  0.00  0.00     0.192 HD
ATOM      6  H   UNL d   1      23.804 -17.022  -2.698  0.00  0.00     0.164 HD
ENDROOT
BRANCH   4   7
ATOM      7  C   UNL d   1      25.339 -16.043  -1.580  0.00  0.00     0.163 C 
BRANCH   7   8
ATOM      8  C   UNL d   1      25.598 -15.109  -2.739  0.00  0.00    -0.035 A 
ATOM      9  C   UNL d   1      25.154 -13.796  -2.818  0.00  0.00     0.028 A 
ATOM     10  C   UNL d   1      25.477 -13.051  -3.951  0.00  0.00     0.120 A 
ATOM     11  N   UNL d   1      26.206 -13.517  -4.993  0.00  0.00    -0.237 NA
ATOM     12  C   UNL d   1      26.650 -14.785  -4.905  0.00  0.00     0.164 A 
ATOM     13  C   UNL d   1      26.360 -15.575  -3.801  0.00  0.00     0.066 A 
BRANCH  12  14
ATOM     14  O   UNL d   1      27.388 -15.200  -5.978  0.00  0.00    -0.329 OA
BRANCH  14  15
ATOM     15  C   UNL d   1      28.746 -14.785  -6.119  0.00  0.00     0.130 C 
ATOM     16  C   UNL d   1      29.748 -15.873  -6.519  0.00  0.00     0.032 C 
ATOM     17  C   UNL d   1      30.955 -15.092  -7.018  0.00  0.00     0.002 C 
ATOM     18  C   UNL d   1      30.445 -13.727  -7.489  0.00  0.00     0.002 C 
ATOM     19  C   UNL d   1      28.980 -13.619  -7.088  0.00  0.00     0.032 C 
ENDBRANCH  14  15
ENDBRANCH  12  14
ENDBRANCH   7   8
ENDBRANCH   4   7
BRANCH   1  20
ATOM     20  N   UNL d   1      21.952 -19.226  -0.004  0.00  0.00    -0.248 N 
ATOM     21  C   UNL d   1      20.723 -19.799  -0.219  0.00  0.00     0.332 C 
ATOM     22  N   UNL d   1      20.219 -20.510   0.824  0.00  0.00    -0.351 N 
ATOM     23  O   UNL d   1      20.089 -19.700  -1.272  0.00  0.00    -0.246 OA
ATOM     24  H   UNL d   1      19.313 -20.948   0.697  0.00  0.00     0.160 HD
ATOM     25  H   UNL d   1      20.674 -20.638   1.715  0.00  0.00     0.160 HD
ATOM     26  H   UNL d   1      22.458 -19.315   0.872  0.00  0.00     0.192 HD
ENDBRANCH   1  20
TORSDOF 5
ENDMDL
MODEL 6
REMARK VINA RESULT:    -7.147      1.692      2.286
REMARK INTER + INTRA:          -9.841
REMARK INTER:                  -8.639
REMARK INTRA:                  -1.202
REMARK CONF_INDEPENDENT:        1.492
REMARK UNBOUND:                -1.202
REMARK  5 active torsions:
REMARK  status: ('A' for Active; 'I' for Inactive)
REMARK       I    between atoms: N_1  and  C_2 
REMARK       I    between atoms: C_2  and  N_4 
REMARK    1  A    between atoms: N_4  and  N_5 
REMARK       I    between atoms: N_5  and  C_6 
REMARK       I    between atoms: C_6  and  N_8 
REMARK    2  A    between atoms: N_8  and  C_9 
REMARK    3  A    between atoms: C_9  and  C_10 
REMARK    4  A    between atoms: C_14  and  O_15 
REMARK    5  A    between atoms: O_15  and  C_16 
ROOT
ATOM      1  N   UNL d   1      20.634 -20.079   0.538  0.00  0.00    -0.248 N 
ATOM      2  C   UNL d   1      21.186 -19.340  -0.497  0.00  0.00     0.335 C 
ATOM      3  O   UNL d   1      20.693 -19.318  -1.623  0.00  0.00    -0.246 OA
ATOM      4  N   UNL d   1      22.332 -18.639  -0.173  0.00  0.00    -0.338 N 
ATOM      5  H   UNL d   1      21.014 -20.129   1.479  0.00  0.00     0.192 HD
ATOM      6  H   UNL d   1      22.693 -18.658   0.770  0.00  0.00     0.164 HD
ENDROOT
BRANCH   4   7
ATOM      7  C   UNL d   1      23.034 -17.839  -1.175  0.00  0.00     0.163 C 
BRANCH   7   8
ATOM      8  C   UNL d   1      24.501 -17.629  -0.883  0.00  0.00    -0.035 A 
ATOM      9  C   UNL d   1      25.189 -18.193   0.182  0.00  0.00     0.028 A 
ATOM     10  C   UNL d   1      26.548 -17.914   0.321  0.00  0.00     0.120 A 
ATOM     11  N   UNL d   1      27.258 -17.126  -0.522  0.00  0.00    -0.237 NA
ATOM     12  C   UNL d   1      26.592 -16.595  -1.564  0.00  0.00     0.164 A 
ATOM     13  C   UNL d   1      25.238 -16.838  -1.754  0.00  0.00     0.066 A 
BRANCH  12  14
ATOM     14  O   UNL d   1      27.358 -15.818  -2.388  0.00  0.00    -0.329 OA
BRANCH  14  15
ATOM     15  C   UNL d   1      28.581 -16.325  -2.920  0.00  0.00     0.130 C 
ATOM     16  C   UNL d   1      28.932 -15.885  -4.345  0.00  0.00     0.032 C 
ATOM     17  C   UNL d   1      30.420 -16.184  -4.463  0.00  0.00     0.002 C 
ATOM     18  C   UNL d   1      30.998 -16.161  -3.045  0.00  0.00     0.002 C 
ATOM     19  C   UNL d   1      29.831 -16.050  -2.074  0.00  0.00     0.032 C 
ENDBRANCH  14  15
ENDBRANCH  12  14
ENDBRANCH   7   8
ENDBRANCH   4   7
BRANCH   1  20
ATOM     20  N   UNL d   1      19.462 -20.867   0.298  0.00  0.00    -0.248 N 
ATOM     21  C   UNL d   1      18.624 -21.201   1.332  0.00  0.00     0.332 C 
ATOM     22  N   UNL d   1      17.542 -21.950   0.989  0.00  0.00    -0.351 N 
ATOM     23  O   UNL d   1      18.805 -20.864   2.504  0.00  0.00    -0.246 OA
ATOM     24  H   UNL d   1      16.902 -22.213   1.731  0.00  0.00     0.160 HD
ATOM     25  H   UNL d   1      17.325 -22.266   0.056  0.00  0.00     0.160 HD
ATOM     26  H   UNL d   1      19.300 -21.157  -0.662  0.00  0.00     0.192 HD
ENDBRANCH   1  20
TORSDOF 5
ENDMDL
MODEL 7
REMARK VINA RESULT:    -7.110      4.975      7.710
REMARK INTER + INTRA:         -10.100
REMARK INTER:                  -8.602
REMARK INTRA:                  -1.498
REMARK CONF_INDEPENDENT:        1.492
REMARK UNBOUND:                -1.498
REMARK  5 active torsions:
REMARK  status: ('A' for Active; 'I' for Inactive)
REMARK       I    between atoms: N_1  and  C_2 
REMARK       I    between atoms: C_2  and  N_4 
REMARK    1  A    between atoms: N_4  and  N_5 
REMARK       I    between atoms: N_5  and  C_6 
REMARK       I    between atoms: C_6  and  N_8 
REMARK    2  A    between atoms: N_8  and  C_9 
REMARK    3  A    between atoms: C_9  and  C_10 
REMARK    4  A    between atoms: C_14  and  O_15 
REMARK    5  A    between atoms: O_15  and  C_16 
ROOT
ATOM      1  N   UNL d   1      27.411 -13.837   2.266  0.00  0.00    -0.248 N 
ATOM      2  C   UNL d   1      27.810 -13.571   0.965  0.00  0.00     0.335 C 
ATOM      3  O   UNL d   1      28.834 -14.050   0.481  0.00  0.00    -0.246 OA
ATOM      4  N   UNL d   1      26.979 -12.723   0.257  0.00  0.00    -0.338 N 
ATOM      5  H   UNL d   1      26.578 -13.456   2.704  0.00  0.00     0.192 HD
ATOM      6  H   UNL d   1      26.131 -12.370   0.677  0.00  0.00     0.164 HD
ENDROOT
BRANCH   4   7
ATOM      7  C   UNL d   1      27.293 -12.336  -1.118  0.00  0.00     0.163 C 
BRANCH   7   8
ATOM      8  C   UNL d   1      26.435 -13.014  -2.162  0.00  0.00    -0.035 A 
ATOM      9  C   UNL d   1      26.054 -12.445  -3.369  0.00  0.00     0.028 A 
ATOM     10  C   UNL d   1      25.265 -13.195  -4.239  0.00  0.00     0.120 A 
ATOM     11  N   UNL d   1      24.840 -14.458  -3.993  0.00  0.00    -0.237 NA
ATOM     12  C   UNL d   1      25.228 -15.013  -2.829  0.00  0.00     0.164 A 
ATOM     13  C   UNL d   1      26.014 -14.314  -1.924  0.00  0.00     0.066 A 
BRANCH  12  14
ATOM     14  O   UNL d   1      24.781 -16.291  -2.637  0.00  0.00    -0.329 OA
BRANCH  14  15
ATOM     15  C   UNL d   1      24.540 -16.776  -1.317  0.00  0.00     0.130 C 
ATOM     16  C   UNL d   1      23.502 -17.895  -1.187  0.00  0.00     0.032 C 
ATOM     17  C   UNL d   1      23.780 -18.493   0.185  0.00  0.00     0.002 C 
ATOM     18  C   UNL d   1      25.246 -18.199   0.516  0.00  0.00     0.002 C 
ATOM     19  C   UNL d   1      25.781 -17.261  -0.557  0.00  0.00     0.032 C 
ENDBRANCH  14  15
ENDBRANCH  12  14
ENDBRANCH   7   8
ENDBRANCH   4   7
BRANCH   1  20
ATOM     20  N   UNL d   1      28.221 -14.679   3.095  0.00  0.00    -0.248 N 
ATOM     21  C   UNL d   1      28.007 -14.735   4.450  0.00  0.00     0.332 C 
ATOM     22  N   UNL d   1      28.833 -15.567   5.138  0.00  0.00    -0.351 N 
ATOM     23  O   UNL d   1      27.137 -14.090   5.039  0.00  0.00    -0.246 OA
ATOM     24  H   UNL d   1      28.700 -15.632   6.142  0.00  0.00     0.160 HD
ATOM     25  H   UNL d   1      29.567 -16.126   4.731  0.00  0.00     0.160 HD
ATOM     26  H   UNL d   1      28.946 -15.214   2.626  0.00  0.00     0.192 HD
ENDBRANCH   1  20
TORSDOF 5
ENDMDL
MODEL 8
REMARK VINA RESULT:    -6.979      4.751      8.512
REMARK INTER + INTRA:          -9.930
REMARK INTER:                  -8.470
REMARK INTRA:                  -1.460
REMARK CONF_INDEPENDENT:        1.492
REMARK UNBOUND:                -1.460
REMARK  5 active torsions:
REMARK  status: ('A' for Active; 'I' for Inactive)
REMARK       I    between atoms: N_1  and  C_2 
REMARK       I    between atoms: C_2  and  N_4 
REMARK    1  A    between atoms: N_4  and  N_5 
REMARK       I    between atoms: N_5  and  C_6 
REMARK       I    between atoms: C_6  and  N_8 
REMARK    2  A    between atoms: N_8  and  C_9 
REMARK    3  A    between atoms: C_9  and  C_10 
REMARK    4  A    between atoms: C_14  and  O_15 
REMARK    5  A    between atoms: O_15  and  C_16 
ROOT
ATOM      1  N   UNL d   1      30.443 -14.719   0.021  0.00  0.00    -0.248 N 
ATOM      2  C   UNL d   1      29.769 -15.470  -0.929  0.00  0.00     0.335 C 
ATOM      3  O   UNL d   1      29.198 -16.523  -0.650  0.00  0.00    -0.246 OA
ATOM      4  N   UNL d   1      29.795 -14.955  -2.212  0.00  0.00    -0.338 N 
ATOM      5  H   UNL d   1      30.932 -13.850  -0.170  0.00  0.00     0.192 HD
ATOM      6  H   UNL d   1      30.250 -14.074  -2.400  0.00  0.00     0.164 HD
ENDROOT
BRANCH   4   7
ATOM      7  C   UNL d   1      29.147 -15.659  -3.318  0.00  0.00     0.163 C 
BRANCH   7   8
ATOM      8  C   UNL d   1      27.679 -15.336  -3.481  0.00  0.00    -0.035 A 
ATOM      9  C   UNL d   1      27.102 -14.817  -4.631  0.00  0.00     0.028 A 
ATOM     10  C   UNL d   1      25.728 -14.577  -4.637  0.00  0.00     0.120 A 
ATOM     11  N   UNL d   1      24.904 -14.820  -3.590  0.00  0.00    -0.237 NA
ATOM     12  C   UNL d   1      25.465 -15.340  -2.483  0.00  0.00     0.164 A 
ATOM     13  C   UNL d   1      26.826 -15.602  -2.419  0.00  0.00     0.066 A 
BRANCH  12  14
ATOM     14  O   UNL d   1      24.585 -15.576  -1.462  0.00  0.00    -0.329 OA
BRANCH  14  15
ATOM     15  C   UNL d   1      23.971 -16.856  -1.325  0.00  0.00     0.130 C 
ATOM     16  C   UNL d   1      24.733 -17.884  -0.483  0.00  0.00     0.032 C 
ATOM     17  C   UNL d   1      23.680 -18.933  -0.148  0.00  0.00     0.002 C 
ATOM     18  C   UNL d   1      22.317 -18.239  -0.214  0.00  0.00     0.002 C 
ATOM     19  C   UNL d   1      22.537 -16.843  -0.780  0.00  0.00     0.032 C 
ENDBRANCH  14  15
ENDBRANCH  12  14
ENDBRANCH   7   8
ENDBRANCH   4   7
BRANCH   1  20
ATOM     20  N   UNL d   1      30.503 -15.182   1.375  0.00  0.00    -0.248 N 
ATOM     21  C   UNL d   1      31.160 -14.450   2.333  0.00  0.00     0.332 C 
ATOM     22  N   UNL d   1      31.153 -14.983   3.583  0.00  0.00    -0.351 N 
ATOM     23  O   UNL d   1      31.728 -13.378   2.114  0.00  0.00    -0.246 OA
ATOM     24  H   UNL d   1      31.629 -14.466   4.315  0.00  0.00     0.160 HD
ATOM     25  H   UNL d   1      30.713 -15.853   3.843  0.00  0.00     0.160 HD
ATOM     26  H   UNL d   1      30.044 -16.066   1.573  0.00  0.00     0.192 HD
ENDBRANCH   1  20
TORSDOF 5
ENDMDL
MODEL 9
REMARK VINA RESULT:    -6.698      3.033      4.561
REMARK INTER + INTRA:          -9.638
REMARK INTER:                  -8.190
REMARK INTRA:                  -1.448
REMARK CONF_INDEPENDENT:        1.492
REMARK UNBOUND:                -1.448
REMARK  5 active torsions:
REMARK  status: ('A' for Active; 'I' for Inactive)
REMARK       I    between atoms: N_1  and  C_2 
REMARK       I    between atoms: C_2  and  N_4 
REMARK    1  A    between atoms: N_4  and  N_5 
REMARK       I    between atoms: N_5  and  C_6 
REMARK       I    between atoms: C_6  and  N_8 
REMARK    2  A    between atoms: N_8  and  C_9 
REMARK    3  A    between atoms: C_9  and  C_10 
REMARK    4  A    between atoms: C_14  and  O_15 
REMARK    5  A    between atoms: O_15  and  C_16 
ROOT
ATOM      1  N   UNL d   1      22.708 -17.621  -0.615  0.00  0.00    -0.248 N 
ATOM      2  C   UNL d   1      24.075 -17.400  -0.668  0.00  0.00     0.335 C 
ATOM      3  O   UNL d   1      24.888 -18.201  -0.212  0.00  0.00    -0.246 OA
ATOM      4  N   UNL d   1      24.455 -16.211  -1.262  0.00  0.00    -0.338 N 
ATOM      5  H   UNL d   1      22.005 -16.982  -0.974  0.00  0.00     0.192 HD
ATOM      6  H   UNL d   1      23.761 -15.589  -1.652  0.00  0.00     0.164 HD
ENDROOT
BRANCH   4   7
ATOM      7  C   UNL d   1      25.865 -15.837  -1.362  0.00  0.00     0.163 C 
BRANCH   7   8
ATOM      8  C   UNL d   1      26.349 -15.623  -2.778  0.00  0.00    -0.035 A 
ATOM      9  C   UNL d   1      25.529 -15.516  -3.892  0.00  0.00     0.028 A 
ATOM     10  C   UNL d   1      26.120 -15.311  -5.138  0.00  0.00     0.120 A 
ATOM     11  N   UNL d   1      27.454 -15.203  -5.344  0.00  0.00    -0.237 NA
ATOM     12  C   UNL d   1      28.246 -15.289  -4.259  0.00  0.00     0.164 A 
ATOM     13  C   UNL d   1      27.714 -15.491  -2.993  0.00  0.00     0.066 A 
BRANCH  12  14
ATOM     14  O   UNL d   1      29.582 -15.161  -4.523  0.00  0.00    -0.329 OA
BRANCH  14  15
ATOM     15  C   UNL d   1      30.342 -16.295  -4.936  0.00  0.00     0.130 C 
ATOM     16  C   UNL d   1      30.041 -17.612  -4.213  0.00  0.00     0.032 C 
ATOM     17  C   UNL d   1      30.632 -18.675  -5.128  0.00  0.00     0.002 C 
ATOM     18  C   UNL d   1      30.665 -18.086  -6.541  0.00  0.00     0.002 C 
ATOM     19  C   UNL d   1      30.285 -16.615  -6.435  0.00  0.00     0.032 C 
ENDBRANCH  14  15
ENDBRANCH  12  14
ENDBRANCH   7   8
ENDBRANCH   4   7
BRANCH   1  20
ATOM     20  N   UNL d   1      22.208 -18.810   0.009  0.00  0.00    -0.248 N 
ATOM     21  C   UNL d   1      20.907 -19.203  -0.183  0.00  0.00     0.332 C 
ATOM     22  N   UNL d   1      20.541 -20.345   0.456  0.00  0.00    -0.351 N 
ATOM     23  O   UNL d   1      20.096 -18.590  -0.880  0.00  0.00    -0.246 OA
ATOM     24  H   UNL d   1      19.585 -20.664   0.334  0.00  0.00     0.160 HD
ATOM     25  H   UNL d   1      21.143 -20.902   1.044  0.00  0.00     0.160 HD
ATOM     26  H   UNL d   1      22.862 -19.325   0.591  0.00  0.00     0.192 HD
ENDBRANCH   1  20
TORSDOF 5
ENDMDL
