MODEL 1
REMARK VINA RESULT:   -27.757      0.000      0.000
REMARK INTER + INTRA:         -30.967
REMARK INTER:                 -29.845
REMARK INTRA:                  -1.122
REMARK CONF_INDEPENDENT:        2.088
REMARK UNBOUND:                -1.122
REMARK  7 active torsions:
REMARK  status: ('A' for Active; 'I' for Inactive)
REMARK    1  A    between atoms: O_2  and  C_3 
REMARK    2  A    between atoms: C_5  and  C_6 
REMARK    3  A    between atoms: C_6  and  N_7 
REMARK       I    between atoms: N_7  and  C_8 
REMARK    4  A    between atoms: C_8  and  C_10 
REMARK    5  A    between atoms: C_14  and  N_13 
REMARK    6  A    between atoms: C_27  and  O_28 
REMARK    7  A    between atoms: C_30  and  O_31 
ROOT
ATOM      1  C   UNL d   1      25.076 -17.465  -0.700  0.00  0.00     0.081 C 
ATOM      2  C   UNL d   1      24.235 -16.108  -1.024  0.00  0.00     0.033 C 
ATOM      3  C   UNL d   1      23.069 -16.105  -0.073  0.00  0.00     0.121 C 
ATOM      4  N   UNL d   1      22.409 -17.640  -0.134  0.00  0.00    -0.373 N 
ATOM      5  C   UNL d   1      23.301 -18.477   0.751  0.00  0.00     0.121 C 
ATOM      6  C   UNL d   1      24.385 -18.836  -0.210  0.00  0.00     0.033 C 
ENDROOT
BRANCH   1   7
ATOM      7  C   UNL d   1      26.264 -17.125   0.091  0.00  0.00     0.222 C 
ATOM      8  N   UNL d   1      26.840 -15.964  -0.316  0.00  0.00    -0.356 N 
ATOM      9  H   UNL d   1      26.412 -15.395  -1.038  0.00  0.00     0.162 HD
ATOM     10  O   UNL d   1      26.653 -17.858   1.027  0.00  0.00    -0.273 OA
BRANCH   8  11
ATOM     11  C   UNL d   1      27.991 -15.478   0.376  0.00  0.00     0.161 C 
BRANCH  11  12
ATOM     12  C   UNL d   1      27.722 -14.413   1.403  0.00  0.00    -0.035 C 
ATOM     13  C   UNL d   1      27.826 -14.761   2.766  0.00  0.00     0.048 C 
ATOM     14  C   UNL d   1      27.865 -13.788   3.787  0.00  0.00     0.104 C 
ATOM     15  C   UNL d   1      27.726 -12.438   3.415  0.00  0.00     0.135 C 
ATOM     16  C   UNL d   1      27.532 -12.087   2.057  0.00  0.00     0.104 C 
ATOM     17  C   UNL d   1      27.496 -13.073   1.076  0.00  0.00     0.048 C 
BRANCH  14  18
ATOM     18  O   UNL d   1      28.348 -14.266   4.987  0.00  0.00    -0.353 OA
ATOM     19  C   UNL d   1      29.481 -15.131   5.044  0.00  0.00     0.210 C 
ENDBRANCH  14  18
BRANCH  15  20
ATOM     20  O   UNL d   1      27.828 -11.332   4.189  0.00  0.00    -0.351 OA
ATOM     21  C   UNL d   1      28.691 -11.261   5.263  0.00  0.00     0.210 C 
ENDBRANCH  15  20
BRANCH  16  22
ATOM     22  O   UNL d   1      27.442 -10.808   1.533  0.00  0.00    -0.353 OA
ATOM     23  C   UNL d   1      28.617  -9.995   1.587  0.00  0.00     0.210 C 
ENDBRANCH  16  22
ENDBRANCH  11  12
ENDBRANCH   8  11
ENDBRANCH   1   7
BRANCH   4  24
ATOM     24  C   UNL d   1      21.275 -18.248  -1.211  0.00  0.00     0.401 C 
ATOM     25  N   UNL d   1      19.531 -18.575  -1.102  0.00  0.00    -0.248 NA
ATOM     26  C   UNL d   1      19.343 -19.711  -0.502  0.00  0.00     0.031 C 
ATOM     27  H   UNL d   1      19.021 -18.596  -2.019  0.00  0.00     0.131 HD
ATOM     28  C   UNL d   1      18.298 -20.446   0.357  0.00  0.00     0.023 C 
ATOM     29  C   UNL d   1      20.707 -20.189  -0.300  0.00  0.00     0.249 C 
ATOM     30  C   UNL d   1      18.621 -20.679   1.657  0.00  0.00     0.021 C 
ATOM     31  C   UNL d   1      19.911 -20.339   2.120  0.00  0.00     0.019 C 
ATOM     32 CL   UNL d   1      20.257 -20.445   3.810  0.00  0.00    -0.088 Cl
ATOM     33  C   UNL d   1      20.824 -20.162   1.165  0.00  0.00     0.090 C 
ATOM     34  N   UNL d   1      21.550 -19.704  -1.157  0.00  0.00     0.140 N 
ATOM     35  H   UNL d   1      21.443 -19.846  -2.172  0.00  0.00     0.322 HD
ENDBRANCH   4  24
TORSDOF 7
ENDMDL
MODEL 2
REMARK VINA RESULT:   -27.472      0.978      2.433
REMARK INTER + INTRA:         -30.629
REMARK INTER:                 -29.560
REMARK INTRA:                  -1.069
REMARK CONF_INDEPENDENT:        2.088
REMARK UNBOUND:                -1.069
REMARK  7 active torsions:
REMARK  status: ('A' for Active; 'I' for Inactive)
REMARK    1  A    between atoms: O_2  and  C_3 
REMARK    2  A    between atoms: C_5  and  C_6 
REMARK    3  A    between atoms: C_6  and  N_7 
REMARK       I    between atoms: N_7  and  C_8 
REMARK    4  A    between atoms: C_8  and  C_10 
REMARK    5  A    between atoms: C_14  and  N_13 
REMARK    6  A    between atoms: C_27  and  O_28 
REMARK    7  A    between atoms: C_30  and  O_31 
ROOT
ATOM      1  C   UNL d   1      25.113 -17.707  -0.703  0.00  0.00     0.081 C 
ATOM      2  C   UNL d   1      24.365 -16.320  -1.112  0.00  0.00     0.033 C 
ATOM      3  C   UNL d   1      23.188 -16.193  -0.182  0.00  0.00     0.121 C 
ATOM      4  N   UNL d   1      22.434 -17.685  -0.173  0.00  0.00    -0.373 N 
ATOM      5  C   UNL d   1      23.259 -18.527   0.769  0.00  0.00     0.121 C 
ATOM      6  C   UNL d   1      24.331 -19.004  -0.153  0.00  0.00     0.033 C 
ENDROOT
BRANCH   1   7
ATOM      7  C   UNL d   1      26.311 -17.400   0.089  0.00  0.00     0.222 C 
ATOM      8  N   UNL d   1      26.917 -16.254  -0.317  0.00  0.00    -0.356 N 
ATOM      9  H   UNL d   1      26.504 -15.672  -1.038  0.00  0.00     0.162 HD
ATOM     10  O   UNL d   1      26.679 -18.144   1.024  0.00  0.00    -0.273 OA
BRANCH   8  11
ATOM     11  C   UNL d   1      28.080 -15.800   0.377  0.00  0.00     0.161 C 
BRANCH  11  12
ATOM     12  C   UNL d   1      27.946 -14.464   1.053  0.00  0.00    -0.035 C 
ATOM     13  C   UNL d   1      27.907 -13.309   0.243  0.00  0.00     0.048 C 
ATOM     14  C   UNL d   1      27.512 -12.052   0.748  0.00  0.00     0.104 C 
ATOM     15  C   UNL d   1      27.217 -11.958   2.121  0.00  0.00     0.135 C 
ATOM     16  C   UNL d   1      27.340 -13.093   2.958  0.00  0.00     0.104 C 
ATOM     17  C   UNL d   1      27.736 -14.317   2.427  0.00  0.00     0.048 C 
BRANCH  14  18
ATOM     18  O   UNL d   1      27.164 -11.147  -0.233  0.00  0.00    -0.353 OA
ATOM     19  C   UNL d   1      27.131 -11.517  -1.610  0.00  0.00     0.210 C 
ENDBRANCH  14  18
BRANCH  15  20
ATOM     20  O   UNL d   1      26.729 -10.900   2.811  0.00  0.00    -0.351 OA
ATOM     21  C   UNL d   1      27.243  -9.628   2.670  0.00  0.00     0.210 C 
ENDBRANCH  15  20
BRANCH  16  22
ATOM     22  O   UNL d   1      27.028 -13.171   4.306  0.00  0.00    -0.353 OA
ATOM     23  C   UNL d   1      27.633 -14.225   5.057  0.00  0.00     0.210 C 
ENDBRANCH  16  22
ENDBRANCH  11  12
ENDBRANCH   8  11
ENDBRANCH   1   7
BRANCH   4  24
ATOM     24  C   UNL d   1      21.278 -18.277  -1.236  0.00  0.00     0.401 C 
ATOM     25  N   UNL d   1      19.530 -18.576  -1.106  0.00  0.00    -0.248 NA
ATOM     26  C   UNL d   1      19.331 -19.706  -0.500  0.00  0.00     0.031 C 
ATOM     27  H   UNL d   1      19.010 -18.592  -2.018  0.00  0.00     0.131 HD
ATOM     28  C   UNL d   1      18.283 -20.422   0.374  0.00  0.00     0.023 C 
ATOM     29  C   UNL d   1      20.689 -20.206  -0.311  0.00  0.00     0.249 C 
ATOM     30  C   UNL d   1      18.617 -20.655   1.671  0.00  0.00     0.021 C 
ATOM     31  C   UNL d   1      19.917 -20.334   2.118  0.00  0.00     0.019 C 
ATOM     32 CL   UNL d   1      20.280 -20.440   3.805  0.00  0.00    -0.088 Cl
ATOM     33  C   UNL d   1      20.823 -20.175   1.152  0.00  0.00     0.090 C 
ATOM     34  N   UNL d   1      21.530 -19.738  -1.179  0.00  0.00     0.140 N 
ATOM     35  H   UNL d   1      21.410 -19.882  -2.192  0.00  0.00     0.322 HD
ENDBRANCH   4  24
TORSDOF 7
ENDMDL
MODEL 3
REMARK VINA RESULT:   -25.408      3.336      4.801
REMARK INTER + INTRA:         -28.519
REMARK INTER:                 -27.496
REMARK INTRA:                  -1.023
REMARK CONF_INDEPENDENT:        2.088
REMARK UNBOUND:                -1.023
REMARK  7 active torsions:
REMARK  status: ('A' for Active; 'I' for Inactive)
REMARK    1  A    between atoms: O_2  and  C_3 
REMARK    2  A    between atoms: C_5  and  C_6 
REMARK    3  A    between atoms: C_6  and  N_7 
REMARK       I    between atoms: N_7  and  C_8 
REMARK    4  A    between atoms: C_8  and  C_10 
REMARK    5  A    between atoms: C_14  and  N_13 
REMARK    6  A    between atoms: C_27  and  O_28 
REMARK    7  A    between atoms: C_30  and  O_31 
ROOT
ATOM      1  C   UNL d   1      25.051 -17.307  -0.815  0.00  0.00     0.081 C 
ATOM      2  C   UNL d   1      24.139 -15.979  -1.052  0.00  0.00     0.033 C 
ATOM      3  C   UNL d   1      23.008 -16.070  -0.064  0.00  0.00     0.121 C 
ATOM      4  N   UNL d   1      22.417 -17.630  -0.169  0.00  0.00    -0.373 N 
ATOM      5  C   UNL d   1      23.376 -18.460   0.649  0.00  0.00     0.121 C 
ATOM      6  C   UNL d   1      24.441 -18.728  -0.362  0.00  0.00     0.033 C 
ENDROOT
BRANCH   1   7
ATOM      7  C   UNL d   1      26.250 -16.946  -0.050  0.00  0.00     0.222 C 
ATOM      8  N   UNL d   1      27.088 -16.141  -0.754  0.00  0.00    -0.356 N 
ATOM      9  H   UNL d   1      26.829 -15.795  -1.672  0.00  0.00     0.162 HD
ATOM     10  O   UNL d   1      26.424 -17.357   1.118  0.00  0.00    -0.273 OA
BRANCH   8  11
ATOM     11  C   UNL d   1      28.287 -15.674  -0.135  0.00  0.00     0.161 C 
BRANCH  11  12
ATOM     12  C   UNL d   1      29.504 -15.661  -1.018  0.00  0.00    -0.035 C 
ATOM     13  C   UNL d   1      29.321 -15.838  -2.405  0.00  0.00     0.048 C 
ATOM     14  C   UNL d   1      30.347 -15.571  -3.337  0.00  0.00     0.104 C 
ATOM     15  C   UNL d   1      31.604 -15.182  -2.837  0.00  0.00     0.135 C 
ATOM     16  C   UNL d   1      31.821 -15.089  -1.441  0.00  0.00     0.104 C 
ATOM     17  C   UNL d   1      30.787 -15.362  -0.551  0.00  0.00     0.048 C 
BRANCH  14  18
ATOM     18  O   UNL d   1      29.894 -15.424  -4.631  0.00  0.00    -0.353 OA
ATOM     19  C   UNL d   1      28.543 -15.713  -4.985  0.00  0.00     0.210 C 
ENDBRANCH  14  18
BRANCH  15  20
ATOM     20  O   UNL d   1      32.700 -14.782  -3.524  0.00  0.00    -0.351 OA
ATOM     21  C   UNL d   1      32.621 -14.242  -4.791  0.00  0.00     0.210 C 
ENDBRANCH  15  20
BRANCH  16  22
ATOM     22  O   UNL d   1      32.976 -14.662  -0.805  0.00  0.00    -0.353 OA
ATOM     23  C   UNL d   1      33.108 -14.969   0.584  0.00  0.00     0.210 C 
ENDBRANCH  16  22
ENDBRANCH  11  12
ENDBRANCH   8  11
ENDBRANCH   1   7
BRANCH   4  24
ATOM     24  C   UNL d   1      21.274 -18.245  -1.233  0.00  0.00     0.401 C 
ATOM     25  N   UNL d   1      19.531 -18.576  -1.106  0.00  0.00    -0.248 NA
ATOM     26  C   UNL d   1      19.352 -19.710  -0.499  0.00  0.00     0.031 C 
ATOM     27  H   UNL d   1      19.013 -18.602  -2.018  0.00  0.00     0.131 HD
ATOM     28  C   UNL d   1      18.317 -20.444   0.373  0.00  0.00     0.023 C 
ATOM     29  C   UNL d   1      20.719 -20.184  -0.308  0.00  0.00     0.249 C 
ATOM     30  C   UNL d   1      18.652 -20.671   1.671  0.00  0.00     0.021 C 
ATOM     31  C   UNL d   1      19.946 -20.325   2.120  0.00  0.00     0.019 C 
ATOM     32 CL   UNL d   1      20.308 -20.424   3.807  0.00  0.00    -0.088 Cl
ATOM     33  C   UNL d   1      20.850 -20.150   1.156  0.00  0.00     0.090 C 
ATOM     34  N   UNL d   1      21.552 -19.701  -1.175  0.00  0.00     0.140 N 
ATOM     35  H   UNL d   1      21.437 -19.847  -2.188  0.00  0.00     0.322 HD
ENDBRANCH   4  24
TORSDOF 7
ENDMDL
MODEL 4
REMARK VINA RESULT:   -25.362      2.823      3.971
REMARK INTER + INTRA:         -28.451
REMARK INTER:                 -27.450
REMARK INTRA:                  -1.002
REMARK CONF_INDEPENDENT:        2.088
REMARK UNBOUND:                -1.002
REMARK  7 active torsions:
REMARK  status: ('A' for Active; 'I' for Inactive)
REMARK    1  A    between atoms: O_2  and  C_3 
REMARK    2  A    between atoms: C_5  and  C_6 
REMARK    3  A    between atoms: C_6  and  N_7 
REMARK       I    between atoms: N_7  and  C_8 
REMARK    4  A    between atoms: C_8  and  C_10 
REMARK    5  A    between atoms: C_14  and  N_13 
REMARK    6  A    between atoms: C_27  and  O_28 
REMARK    7  A    between atoms: C_30  and  O_31 
ROOT
ATOM      1  C   UNL d   1      25.073 -17.413  -0.827  0.00  0.00     0.081 C 
ATOM      2  C   UNL d   1      24.202 -16.065  -1.100  0.00  0.00     0.033 C 
ATOM      3  C   UNL d   1      23.062 -16.101  -0.118  0.00  0.00     0.121 C 
ATOM      4  N   UNL d   1      22.427 -17.646  -0.192  0.00  0.00    -0.373 N 
ATOM      5  C   UNL d   1      23.357 -18.485   0.651  0.00  0.00     0.121 C 
ATOM      6  C   UNL d   1      24.420 -18.806  -0.347  0.00  0.00     0.033 C 
ENDROOT
BRANCH   1   7
ATOM      7  C   UNL d   1      26.278 -17.069  -0.062  0.00  0.00     0.222 C 
ATOM      8  N   UNL d   1      26.984 -16.062  -0.638  0.00  0.00    -0.356 N 
ATOM      9  H   UNL d   1      26.633 -15.584  -1.461  0.00  0.00     0.162 HD
ATOM     10  O   UNL d   1      26.567 -17.667   0.998  0.00  0.00    -0.273 OA
BRANCH   8  11
ATOM     11  C   UNL d   1      28.169 -15.588   0.004  0.00  0.00     0.161 C 
BRANCH  11  12
ATOM     12  C   UNL d   1      28.899 -14.492  -0.721  0.00  0.00    -0.035 C 
ATOM     13  C   UNL d   1      30.024 -14.842  -1.497  0.00  0.00     0.048 C 
ATOM     14  C   UNL d   1      30.605 -13.949  -2.422  0.00  0.00     0.104 C 
ATOM     15  C   UNL d   1      30.069 -12.650  -2.507  0.00  0.00     0.135 C 
ATOM     16  C   UNL d   1      28.997 -12.263  -1.667  0.00  0.00     0.104 C 
ATOM     17  C   UNL d   1      28.451 -13.169  -0.764  0.00  0.00     0.048 C 
BRANCH  14  18
ATOM     18  O   UNL d   1      31.423 -14.564  -3.346  0.00  0.00    -0.353 OA
ATOM     19  C   UNL d   1      30.888 -15.212  -4.499  0.00  0.00     0.210 C 
ENDBRANCH  14  18
BRANCH  15  20
ATOM     20  O   UNL d   1      30.386 -11.659  -3.373  0.00  0.00    -0.351 OA
ATOM     21  C   UNL d   1      31.116 -11.889  -4.521  0.00  0.00     0.210 C 
ENDBRANCH  15  20
BRANCH  16  22
ATOM     22  O   UNL d   1      28.328 -11.049  -1.678  0.00  0.00    -0.353 OA
ATOM     23  C   UNL d   1      27.101 -10.986  -2.407  0.00  0.00     0.210 C 
ENDBRANCH  16  22
ENDBRANCH  11  12
ENDBRANCH   8  11
ENDBRANCH   1   7
BRANCH   4  24
ATOM     24  C   UNL d   1      21.274 -18.251  -1.250  0.00  0.00     0.401 C 
ATOM     25  N   UNL d   1      19.531 -18.575  -1.111  0.00  0.00    -0.248 NA
ATOM     26  C   UNL d   1      19.351 -19.711  -0.508  0.00  0.00     0.031 C 
ATOM     27  H   UNL d   1      19.005 -18.595  -2.020  0.00  0.00     0.131 HD
ATOM     28  C   UNL d   1      18.319 -20.444   0.368  0.00  0.00     0.023 C 
ATOM     29  C   UNL d   1      20.717 -20.191  -0.329  0.00  0.00     0.249 C 
ATOM     30  C   UNL d   1      18.663 -20.677   1.663  0.00  0.00     0.021 C 
ATOM     31  C   UNL d   1      19.962 -20.339   2.103  0.00  0.00     0.019 C 
ATOM     32 CL   UNL d   1      20.336 -20.447   3.788  0.00  0.00    -0.088 Cl
ATOM     33  C   UNL d   1      20.859 -20.164   1.133  0.00  0.00     0.090 C 
ATOM     34  N   UNL d   1      21.546 -19.708  -1.201  0.00  0.00     0.140 N 
ATOM     35  H   UNL d   1      21.423 -19.850  -2.213  0.00  0.00     0.322 HD
ENDBRANCH   4  24
TORSDOF 7
ENDMDL
MODEL 5
REMARK VINA RESULT:   -25.345      3.013      4.542
REMARK INTER + INTRA:         -28.591
REMARK INTER:                 -27.433
REMARK INTRA:                  -1.158
REMARK CONF_INDEPENDENT:        2.088
REMARK UNBOUND:                -1.158
REMARK  7 active torsions:
REMARK  status: ('A' for Active; 'I' for Inactive)
REMARK    1  A    between atoms: O_2  and  C_3 
REMARK    2  A    between atoms: C_5  and  C_6 
REMARK    3  A    between atoms: C_6  and  N_7 
REMARK       I    between atoms: N_7  and  C_8 
REMARK    4  A    between atoms: C_8  and  C_10 
REMARK    5  A    between atoms: C_14  and  N_13 
REMARK    6  A    between atoms: C_27  and  O_28 
REMARK    7  A    between atoms: C_30  and  O_31 
ROOT
ATOM      1  C   UNL d   1      25.037 -17.240  -0.903  0.00  0.00     0.081 C 
ATOM      2  C   UNL d   1      24.090 -15.935  -1.128  0.00  0.00     0.033 C 
ATOM      3  C   UNL d   1      22.980 -16.048  -0.118  0.00  0.00     0.121 C 
ATOM      4  N   UNL d   1      22.424 -17.622  -0.206  0.00  0.00    -0.373 N 
ATOM      5  C   UNL d   1      23.417 -18.426   0.597  0.00  0.00     0.121 C 
ATOM      6  C   UNL d   1      24.469 -18.673  -0.433  0.00  0.00     0.033 C 
ENDROOT
BRANCH   1   7
ATOM      7  C   UNL d   1      26.241 -16.848  -0.162  0.00  0.00     0.222 C 
ATOM      8  N   UNL d   1      26.828 -15.738  -0.682  0.00  0.00    -0.356 N 
ATOM      9  H   UNL d   1      26.396 -15.231  -1.448  0.00  0.00     0.162 HD
ATOM     10  O   UNL d   1      26.633 -17.497   0.833  0.00  0.00    -0.273 OA
BRANCH   8  11
ATOM     11  C   UNL d   1      27.995 -15.208  -0.052  0.00  0.00     0.161 C 
BRANCH  11  12
ATOM     12  C   UNL d   1      29.299 -15.560  -0.714  0.00  0.00    -0.035 C 
ATOM     13  C   UNL d   1      30.391 -14.684  -0.538  0.00  0.00     0.048 C 
ATOM     14  C   UNL d   1      31.709 -15.053  -0.879  0.00  0.00     0.104 C 
ATOM     15  C   UNL d   1      31.907 -16.313  -1.473  0.00  0.00     0.135 C 
ATOM     16  C   UNL d   1      30.804 -17.161  -1.735  0.00  0.00     0.104 C 
ATOM     17  C   UNL d   1      29.516 -16.764  -1.388  0.00  0.00     0.048 C 
BRANCH  14  18
ATOM     18  O   UNL d   1      32.674 -14.256  -0.298  0.00  0.00    -0.353 OA
ATOM     19  C   UNL d   1      32.683 -14.000   1.105  0.00  0.00     0.210 C 
ENDBRANCH  14  18
BRANCH  15  20
ATOM     20  O   UNL d   1      33.072 -16.924  -1.794  0.00  0.00    -0.351 OA
ATOM     21  C   UNL d   1      33.697 -17.814  -0.945  0.00  0.00     0.210 C 
ENDBRANCH  15  20
BRANCH  16  22
ATOM     22  O   UNL d   1      30.846 -18.446  -2.253  0.00  0.00    -0.353 OA
ATOM     23  C   UNL d   1      30.484 -18.608  -3.626  0.00  0.00     0.210 C 
ENDBRANCH  16  22
ENDBRANCH  11  12
ENDBRANCH   8  11
ENDBRANCH   1   7
BRANCH   4  24
ATOM     24  C   UNL d   1      21.276 -18.268  -1.246  0.00  0.00     0.401 C 
ATOM     25  N   UNL d   1      19.530 -18.576  -1.108  0.00  0.00    -0.248 NA
ATOM     26  C   UNL d   1      19.338 -19.682  -0.456  0.00  0.00     0.031 C 
ATOM     27  H   UNL d   1      19.012 -18.634  -2.019  0.00  0.00     0.131 HD
ATOM     28  C   UNL d   1      18.294 -20.370   0.444  0.00  0.00     0.023 C 
ATOM     29  C   UNL d   1      20.700 -20.162  -0.243  0.00  0.00     0.249 C 
ATOM     30  C   UNL d   1      18.626 -20.546   1.750  0.00  0.00     0.021 C 
ATOM     31  C   UNL d   1      19.922 -20.196   2.187  0.00  0.00     0.019 C 
ATOM     32 CL   UNL d   1      20.282 -20.230   3.877  0.00  0.00    -0.088 Cl
ATOM     33  C   UNL d   1      20.829 -20.070   1.218  0.00  0.00     0.090 C 
ATOM     34  N   UNL d   1      21.539 -19.723  -1.128  0.00  0.00     0.140 N 
ATOM     35  H   UNL d   1      21.423 -19.909  -2.134  0.00  0.00     0.322 HD
ENDBRANCH   4  24
TORSDOF 7
ENDMDL
MODEL 6
REMARK VINA RESULT:   -25.262      2.790      3.765
REMARK INTER + INTRA:         -28.394
REMARK INTER:                 -27.350
REMARK INTRA:                  -1.043
REMARK CONF_INDEPENDENT:        2.088
REMARK UNBOUND:                -1.043
REMARK  7 active torsions:
REMARK  status: ('A' for Active; 'I' for Inactive)
REMARK    1  A    between atoms: O_2  and  C_3 
REMARK    2  A    between atoms: C_5  and  C_6 
REMARK    3  A    between atoms: C_6  and  N_7 
REMARK       I    between atoms: N_7  and  C_8 
REMARK    4  A    between atoms: C_8  and  C_10 
REMARK    5  A    between atoms: C_14  and  N_13 
REMARK    6  A    between atoms: C_27  and  O_28 
REMARK    7  A    between atoms: C_30  and  O_31 
ROOT
ATOM      1  C   UNL d   1      25.058 -17.336  -0.852  0.00  0.00     0.081 C 
ATOM      2  C   UNL d   1      24.153 -16.010  -1.126  0.00  0.00     0.033 C 
ATOM      3  C   UNL d   1      23.022 -16.066  -0.135  0.00  0.00     0.121 C 
ATOM      4  N   UNL d   1      22.422 -17.626  -0.195  0.00  0.00    -0.373 N 
ATOM      5  C   UNL d   1      23.378 -18.438   0.646  0.00  0.00     0.121 C 
ATOM      6  C   UNL d   1      24.440 -18.740  -0.358  0.00  0.00     0.033 C 
ENDROOT
BRANCH   1   7
ATOM      7  C   UNL d   1      26.259 -16.959  -0.098  0.00  0.00     0.222 C 
ATOM      8  N   UNL d   1      26.989 -16.006  -0.734  0.00  0.00    -0.356 N 
ATOM      9  H   UNL d   1      26.655 -15.580  -1.592  0.00  0.00     0.162 HD
ATOM     10  O   UNL d   1      26.527 -17.486   1.004  0.00  0.00    -0.273 OA
BRANCH   8  11
ATOM     11  C   UNL d   1      28.174 -15.507  -0.112  0.00  0.00     0.161 C 
BRANCH  11  12
ATOM     12  C   UNL d   1      28.867 -14.393  -0.847  0.00  0.00    -0.035 C 
ATOM     13  C   UNL d   1      28.073 -13.482  -1.574  0.00  0.00     0.048 C 
ATOM     14  C   UNL d   1      28.588 -12.262  -2.063  0.00  0.00     0.104 C 
ATOM     15  C   UNL d   1      29.957 -12.000  -1.864  0.00  0.00     0.135 C 
ATOM     16  C   UNL d   1      30.780 -12.951  -1.214  0.00  0.00     0.104 C 
ATOM     17  C   UNL d   1      30.239 -14.145  -0.747  0.00  0.00     0.048 C 
BRANCH  14  18
ATOM     18  O   UNL d   1      27.614 -11.345  -2.397  0.00  0.00    -0.353 OA
ATOM     19  C   UNL d   1      26.965 -11.376  -3.666  0.00  0.00     0.210 C 
ENDBRANCH  14  18
BRANCH  15  20
ATOM     20  O   UNL d   1      30.653 -10.874  -2.149  0.00  0.00    -0.351 OA
ATOM     21  C   UNL d   1      30.053  -9.634  -2.216  0.00  0.00     0.210 C 
ENDBRANCH  15  20
BRANCH  16  22
ATOM     22  O   UNL d   1      32.120 -12.810  -0.892  0.00  0.00    -0.353 OA
ATOM     23  C   UNL d   1      32.432 -12.301   0.406  0.00  0.00     0.210 C 
ENDBRANCH  16  22
ENDBRANCH  11  12
ENDBRANCH   8  11
ENDBRANCH   1   7
BRANCH   4  24
ATOM     24  C   UNL d   1      21.276 -18.265  -1.241  0.00  0.00     0.401 C 
ATOM     25  N   UNL d   1      19.530 -18.575  -1.106  0.00  0.00    -0.248 NA
ATOM     26  C   UNL d   1      19.339 -19.686  -0.463  0.00  0.00     0.031 C 
ATOM     27  H   UNL d   1      19.013 -18.626  -2.018  0.00  0.00     0.131 HD
ATOM     28  C   UNL d   1      18.295 -20.382   0.431  0.00  0.00     0.023 C 
ATOM     29  C   UNL d   1      20.701 -20.166  -0.253  0.00  0.00     0.249 C 
ATOM     30  C   UNL d   1      18.626 -20.568   1.736  0.00  0.00     0.021 C 
ATOM     31  C   UNL d   1      19.922 -20.220   2.176  0.00  0.00     0.019 C 
ATOM     32 CL   UNL d   1      20.280 -20.267   3.866  0.00  0.00    -0.088 Cl
ATOM     33  C   UNL d   1      20.829 -20.086   1.208  0.00  0.00     0.090 C 
ATOM     34  N   UNL d   1      21.540 -19.720  -1.134  0.00  0.00     0.140 N 
ATOM     35  H   UNL d   1      21.425 -19.899  -2.142  0.00  0.00     0.322 HD
ENDBRANCH   4  24
TORSDOF 7
ENDMDL
MODEL 7
REMARK VINA RESULT:   -24.906      3.708      5.438
REMARK INTER + INTRA:         -28.018
REMARK INTER:                 -26.994
REMARK INTRA:                  -1.024
REMARK CONF_INDEPENDENT:        2.088
REMARK UNBOUND:                -1.024
REMARK  7 active torsions:
REMARK  status: ('A' for Active; 'I' for Inactive)
REMARK    1  A    between atoms: O_2  and  C_3 
REMARK    2  A    between atoms: C_5  and  C_6 
REMARK    3  A    between atoms: C_6  and  N_7 
REMARK       I    between atoms: N_7  and  C_8 
REMARK    4  A    between atoms: C_8  and  C_10 
REMARK    5  A    between atoms: C_14  and  N_13 
REMARK    6  A    between atoms: C_27  and  O_28 
REMARK    7  A    between atoms: C_30  and  O_31 
ROOT
ATOM      1  C   UNL d   1      25.060 -17.334  -0.935  0.00  0.00     0.081 C 
ATOM      2  C   UNL d   1      24.138 -16.014  -1.178  0.00  0.00     0.033 C 
ATOM      3  C   UNL d   1      23.027 -16.090  -0.165  0.00  0.00     0.121 C 
ATOM      4  N   UNL d   1      22.441 -17.655  -0.229  0.00  0.00    -0.373 N 
ATOM      5  C   UNL d   1      23.420 -18.466   0.584  0.00  0.00     0.121 C 
ATOM      6  C   UNL d   1      24.465 -18.748  -0.443  0.00  0.00     0.033 C 
ENDROOT
BRANCH   1   7
ATOM      7  C   UNL d   1      26.273 -16.953  -0.200  0.00  0.00     0.222 C 
ATOM      8  N   UNL d   1      27.395 -17.093  -0.953  0.00  0.00    -0.356 N 
ATOM      9  H   UNL d   1      27.338 -17.357  -1.930  0.00  0.00     0.162 HD
ATOM     10  O   UNL d   1      26.217 -16.548   0.981  0.00  0.00    -0.273 OA
BRANCH   8  11
ATOM     11  C   UNL d   1      28.658 -16.732  -0.390  0.00  0.00     0.161 C 
BRANCH  11  12
ATOM     12  C   UNL d   1      29.850 -16.983  -1.271  0.00  0.00    -0.035 C 
ATOM     13  C   UNL d   1      30.333 -18.305  -1.375  0.00  0.00     0.048 C 
ATOM     14  C   UNL d   1      31.257 -18.690  -2.370  0.00  0.00     0.104 C 
ATOM     15  C   UNL d   1      31.747 -17.692  -3.233  0.00  0.00     0.135 C 
ATOM     16  C   UNL d   1      31.335 -16.347  -3.078  0.00  0.00     0.104 C 
ATOM     17  C   UNL d   1      30.425 -16.002  -2.083  0.00  0.00     0.048 C 
BRANCH  14  18
ATOM     18  O   UNL d   1      31.320 -20.053  -2.567  0.00  0.00    -0.353 OA
ATOM     19  C   UNL d   1      32.136 -20.888  -1.748  0.00  0.00     0.210 C 
ENDBRANCH  14  18
BRANCH  15  20
ATOM     20  O   UNL d   1      32.553 -17.829  -4.313  0.00  0.00    -0.351 OA
ATOM     21  C   UNL d   1      33.426 -18.888  -4.452  0.00  0.00     0.210 C 
ENDBRANCH  15  20
BRANCH  16  22
ATOM     22  O   UNL d   1      31.680 -15.273  -3.883  0.00  0.00    -0.353 OA
ATOM     23  C   UNL d   1      30.819 -14.979  -4.985  0.00  0.00     0.210 C 
ENDBRANCH  16  22
ENDBRANCH  11  12
ENDBRANCH   8  11
ENDBRANCH   1   7
BRANCH   4  24
ATOM     24  C   UNL d   1      21.279 -18.293  -1.259  0.00  0.00     0.401 C 
ATOM     25  N   UNL d   1      19.530 -18.575  -1.111  0.00  0.00    -0.248 NA
ATOM     26  C   UNL d   1      19.326 -19.673  -0.449  0.00  0.00     0.031 C 
ATOM     27  H   UNL d   1      19.007 -18.634  -2.020  0.00  0.00     0.131 HD
ATOM     28  C   UNL d   1      18.276 -20.338   0.461  0.00  0.00     0.023 C 
ATOM     29  C   UNL d   1      20.681 -20.170  -0.237  0.00  0.00     0.249 C 
ATOM     30  C   UNL d   1      18.611 -20.507   1.768  0.00  0.00     0.021 C 
ATOM     31  C   UNL d   1      19.914 -20.172   2.196  0.00  0.00     0.019 C 
ATOM     32 CL   UNL d   1      20.280 -20.195   3.885  0.00  0.00    -0.088 Cl
ATOM     33  C   UNL d   1      20.818 -20.067   1.222  0.00  0.00     0.090 C 
ATOM     34  N   UNL d   1      21.523 -19.751  -1.130  0.00  0.00     0.140 N 
ATOM     35  H   UNL d   1      21.400 -19.944  -2.134  0.00  0.00     0.322 HD
ENDBRANCH   4  24
TORSDOF 7
ENDMDL
