MODEL 1
REMARK VINA RESULT:   -10.910      0.000      0.000
REMARK INTER + INTRA:         -16.497
REMARK INTER:                 -14.191
REMARK INTRA:                  -2.305
REMARK CONF_INDEPENDENT:        3.281
REMARK UNBOUND:                -2.305
REMARK  11 active torsions:
REMARK  status: ('A' for Active; 'I' for Inactive)
REMARK    1  A    between atoms: C_2  and  C_3 
REMARK    2  A    between atoms: C_6  and  C_7 
REMARK    3  A    between atoms: C_7  and  N_8 
REMARK    4  A    between atoms: N_8  and  C_9 
REMARK    5  A    between atoms: C_11  and  C_12 
REMARK       I    between atoms: C_12  and  N_14 
REMARK    6  A    between atoms: N_14  and  C_15 
REMARK    7  A    between atoms: C_15  and  C_16 
REMARK    8  A    between atoms: C_16  and  N_17 
REMARK       I    between atoms: N_17  and  C_18 
REMARK    9  A    between atoms: C_22  and  S_23 
REMARK   10  A    between atoms: S_23  and  N_26 
REMARK   11  A    between atoms: N_26  and  C_27 
ROOT
ATOM      1  C   UNL d   1      24.833 -17.120  -1.132  0.00  0.00     0.030 C 
ATOM      2  C   UNL d   1      25.675 -16.555  -0.150  0.00  0.00     0.046 C 
ATOM      3  C   UNL d   1      26.512 -15.464  -0.426  0.00  0.00     0.035 C 
ATOM      4  C   UNL d   1      26.535 -14.990  -1.725  0.00  0.00     0.042 C 
ATOM      5  C   UNL d   1      25.621 -15.489  -2.666  0.00  0.00     0.083 C 
ATOM      6  C   UNL d   1      24.807 -16.566  -2.397  0.00  0.00     0.054 C 
ENDROOT
BRANCH   5   7
ATOM      7  S   UNL d   1      25.760 -14.800  -4.264  0.00  0.00     0.263 S 
ATOM      8  O   UNL d   1      26.289 -15.852  -5.117  0.00  0.00    -0.200 OA
ATOM      9  O   UNL d   1      24.403 -14.334  -4.400  0.00  0.00    -0.200 OA
BRANCH   7  10
ATOM     10  N   UNL d   1      26.886 -13.529  -4.224  0.00  0.00    -0.280 N 
ATOM     11  H   UNL d   1      27.883 -13.710  -4.209  0.00  0.00     0.179 HD
BRANCH  10  12
ATOM     12  C   UNL d   1      26.480 -12.143  -4.300  0.00  0.00     0.048 A 
ATOM     13  C   UNL d   1      26.066 -11.585  -5.521  0.00  0.00     0.030 A 
ATOM     14  C   UNL d   1      25.747 -10.214  -5.608  0.00  0.00     0.002 A 
ATOM     15  C   UNL d   1      25.788  -9.404  -4.476  0.00  0.00     0.001 A 
ATOM     16  C   UNL d   1      26.225  -9.939  -3.280  0.00  0.00     0.009 A 
ATOM     17  C   UNL d   1      26.593 -11.284  -3.197  0.00  0.00    -0.035 A 
ATOM     18  C   UNL d   1      27.029 -11.756  -1.860  0.00  0.00     0.050 C 
ENDBRANCH  10  12
ENDBRANCH   7  10
ENDBRANCH   5   7
BRANCH   3  19
ATOM     19  C   UNL d   1      27.261 -14.781   0.675  0.00  0.00     0.251 C 
ATOM     20  O   UNL d   1      28.248 -15.320   1.162  0.00  0.00    -0.268 OA
ATOM     21  N   UNL d   1      26.755 -13.582   1.158  0.00  0.00    -0.355 N 
ATOM     22  H   UNL d   1      25.910 -13.180   0.784  0.00  0.00     0.162 HD
BRANCH  21  23
ATOM     23  C   UNL d   1      27.359 -12.918   2.302  0.00  0.00     0.142 C 
BRANCH  23  24
ATOM     24  C   UNL d   1      27.157 -13.699   3.604  0.00  0.00     0.142 C 
BRANCH  24  25
ATOM     25  N   UNL d   1      28.250 -14.593   3.931  0.00  0.00    -0.360 N 
ATOM     26  C   UNL d   1      28.930 -14.648   5.116  0.00  0.00     0.213 C 
ATOM     27  C   UNL d   1      28.539 -13.707   6.227  0.00  0.00     0.117 C 
ATOM     28  O   UNL d   1      29.844 -15.459   5.256  0.00  0.00    -0.274 OA
ATOM     29  H   UNL d   1      28.580 -15.260   3.241  0.00  0.00     0.162 HD
ENDBRANCH  24  25
ENDBRANCH  23  24
ENDBRANCH  21  23
ENDBRANCH   3  19
BRANCH   1  30
ATOM     30  N   UNL d   1      24.017 -18.172  -0.787  0.00  0.00    -0.384 N 
ATOM     31  H   UNL d   1      23.913 -18.258   0.219  0.00  0.00     0.160 HD
BRANCH  30  32
ATOM     32  C   UNL d   1      22.905 -18.691  -1.597  0.00  0.00     0.184 C 
BRANCH  32  33
ATOM     33  C   UNL d   1      21.747 -19.099  -0.740  0.00  0.00     0.070 A 
ATOM     34  C   UNL d   1      21.565 -18.950   0.619  0.00  0.00     0.037 A 
ATOM     35  C   UNL d   1      20.329 -19.512   0.934  0.00  0.00     0.035 A 
ATOM     36  C   UNL d   1      19.774 -19.926  -0.254  0.00  0.00     0.053 A 
ATOM     37  O   UNL d   1      20.637 -19.694  -1.297  0.00  0.00    -0.318 OA
BRANCH  36  38
ATOM     38  C   UNL d   1      18.405 -20.450  -0.486  0.00  0.00     0.060 C 
ATOM     39  C   UNL d   1      18.006 -21.326   0.700  0.00  0.00     0.012 C 
ENDBRANCH  36  38
ENDBRANCH  32  33
ENDBRANCH  30  32
ENDBRANCH   1  30
TORSDOF 11
ENDMDL
MODEL 2
REMARK VINA RESULT:   -10.480      2.264      3.188
REMARK INTER + INTRA:         -16.496
REMARK INTER:                 -13.761
REMARK INTRA:                  -2.735
REMARK CONF_INDEPENDENT:        3.281
REMARK UNBOUND:                -2.735
REMARK  11 active torsions:
REMARK  status: ('A' for Active; 'I' for Inactive)
REMARK    1  A    between atoms: C_2  and  C_3 
REMARK    2  A    between atoms: C_6  and  C_7 
REMARK    3  A    between atoms: C_7  and  N_8 
REMARK    4  A    between atoms: N_8  and  C_9 
REMARK    5  A    between atoms: C_11  and  C_12 
REMARK       I    between atoms: C_12  and  N_14 
REMARK    6  A    between atoms: N_14  and  C_15 
REMARK    7  A    between atoms: C_15  and  C_16 
REMARK    8  A    between atoms: C_16  and  N_17 
REMARK       I    between atoms: N_17  and  C_18 
REMARK    9  A    between atoms: C_22  and  S_23 
REMARK   10  A    between atoms: S_23  and  N_26 
REMARK   11  A    between atoms: N_26  and  C_27 
ROOT
ATOM      1  C   UNL d   1      24.819 -17.296  -1.080  0.00  0.00     0.030 C 
ATOM      2  C   UNL d   1      25.808 -16.915  -0.147  0.00  0.00     0.046 C 
ATOM      3  C   UNL d   1      26.760 -15.926  -0.436  0.00  0.00     0.035 C 
ATOM      4  C   UNL d   1      26.740 -15.371  -1.702  0.00  0.00     0.042 C 
ATOM      5  C   UNL d   1      25.693 -15.680  -2.584  0.00  0.00     0.083 C 
ATOM      6  C   UNL d   1      24.765 -16.657  -2.303  0.00  0.00     0.054 C 
ENDROOT
BRANCH   5   7
ATOM      7  S   UNL d   1      25.792 -14.907  -4.145  0.00  0.00     0.263 S 
ATOM      8  O   UNL d   1      25.566 -15.950  -5.132  0.00  0.00    -0.200 OA
ATOM      9  O   UNL d   1      24.822 -13.866  -3.916  0.00  0.00    -0.200 OA
BRANCH   7  10
ATOM     10  N   UNL d   1      27.363 -14.297  -4.364  0.00  0.00    -0.280 N 
ATOM     11  H   UNL d   1      27.595 -13.342  -4.119  0.00  0.00     0.179 HD
BRANCH  10  12
ATOM     12  C   UNL d   1      28.452 -15.131  -4.821  0.00  0.00     0.048 A 
ATOM     13  C   UNL d   1      29.028 -16.086  -3.966  0.00  0.00     0.030 A 
ATOM     14  C   UNL d   1      30.141 -16.843  -4.388  0.00  0.00     0.002 A 
ATOM     15  C   UNL d   1      30.654 -16.692  -5.673  0.00  0.00     0.001 A 
ATOM     16  C   UNL d   1      30.112 -15.733  -6.507  0.00  0.00     0.009 A 
ATOM     17  C   UNL d   1      29.043 -14.943  -6.078  0.00  0.00    -0.035 A 
ATOM     18  C   UNL d   1      28.530 -13.958  -7.061  0.00  0.00     0.050 C 
ENDBRANCH  10  12
ENDBRANCH   7  10
ENDBRANCH   5   7
BRANCH   3  19
ATOM     19  C   UNL d   1      27.683 -15.425   0.629  0.00  0.00     0.251 C 
ATOM     20  O   UNL d   1      27.717 -15.988   1.718  0.00  0.00    -0.268 OA
ATOM     21  N   UNL d   1      28.420 -14.279   0.364  0.00  0.00    -0.355 N 
ATOM     22  H   UNL d   1      28.340 -13.795  -0.516  0.00  0.00     0.162 HD
BRANCH  21  23
ATOM     23  C   UNL d   1      29.251 -13.664   1.389  0.00  0.00     0.142 C 
BRANCH  23  24
ATOM     24  C   UNL d   1      28.473 -13.378   2.676  0.00  0.00     0.142 C 
BRANCH  24  25
ATOM     25  N   UNL d   1      28.572 -14.428   3.671  0.00  0.00    -0.360 N 
ATOM     26  C   UNL d   1      28.273 -14.321   5.000  0.00  0.00     0.213 C 
ATOM     27  C   UNL d   1      27.782 -12.998   5.534  0.00  0.00     0.117 C 
ATOM     28  O   UNL d   1      28.407 -15.297   5.735  0.00  0.00    -0.274 OA
ATOM     29  H   UNL d   1      28.895 -15.351   3.399  0.00  0.00     0.162 HD
ENDBRANCH  24  25
ENDBRANCH  23  24
ENDBRANCH  21  23
ENDBRANCH   3  19
BRANCH   1  30
ATOM     30  N   UNL d   1      23.899 -18.253  -0.723  0.00  0.00    -0.384 N 
ATOM     31  H   UNL d   1      23.632 -18.178   0.253  0.00  0.00     0.160 HD
BRANCH  30  32
ATOM     32  C   UNL d   1      22.899 -18.853  -1.620  0.00  0.00     0.184 C 
BRANCH  32  33
ATOM     33  C   UNL d   1      21.622 -19.150  -0.897  0.00  0.00     0.070 A 
ATOM     34  C   UNL d   1      20.352 -19.341  -1.402  0.00  0.00     0.037 A 
ATOM     35  C   UNL d   1      19.508 -19.569  -0.317  0.00  0.00     0.035 A 
ATOM     36  C   UNL d   1      20.304 -19.573   0.804  0.00  0.00     0.053 A 
ATOM     37  O   UNL d   1      21.608 -19.302   0.471  0.00  0.00    -0.318 OA
BRANCH  36  38
ATOM     38  C   UNL d   1      19.919 -19.922   2.195  0.00  0.00     0.060 C 
ATOM     39  C   UNL d   1      18.481 -20.437   2.192  0.00  0.00     0.012 C 
ENDBRANCH  36  38
ENDBRANCH  32  33
ENDBRANCH  30  32
ENDBRANCH   1  30
TORSDOF 11
ENDMDL
MODEL 3
REMARK VINA RESULT:   -10.365      2.351      5.526
REMARK INTER + INTRA:         -16.946
REMARK INTER:                 -13.647
REMARK INTRA:                  -3.299
REMARK CONF_INDEPENDENT:        3.281
REMARK UNBOUND:                -3.299
REMARK  11 active torsions:
REMARK  status: ('A' for Active; 'I' for Inactive)
REMARK    1  A    between atoms: C_2  and  C_3 
REMARK    2  A    between atoms: C_6  and  C_7 
REMARK    3  A    between atoms: C_7  and  N_8 
REMARK    4  A    between atoms: N_8  and  C_9 
REMARK    5  A    between atoms: C_11  and  C_12 
REMARK       I    between atoms: C_12  and  N_14 
REMARK    6  A    between atoms: N_14  and  C_15 
REMARK    7  A    between atoms: C_15  and  C_16 
REMARK    8  A    between atoms: C_16  and  N_17 
REMARK       I    between atoms: N_17  and  C_18 
REMARK    9  A    between atoms: C_22  and  S_23 
REMARK   10  A    between atoms: S_23  and  N_26 
REMARK   11  A    between atoms: N_26  and  C_27 
ROOT
ATOM      1  C   UNL d   1      24.038 -16.760  -1.137  0.00  0.00     0.030 C 
ATOM      2  C   UNL d   1      24.031 -15.631  -1.986  0.00  0.00     0.046 C 
ATOM      3  C   UNL d   1      25.216 -14.998  -2.388  0.00  0.00     0.035 C 
ATOM      4  C   UNL d   1      26.405 -15.480  -1.873  0.00  0.00     0.042 C 
ATOM      5  C   UNL d   1      26.410 -16.662  -1.116  0.00  0.00     0.083 C 
ATOM      6  C   UNL d   1      25.246 -17.278  -0.714  0.00  0.00     0.054 C 
ENDROOT
BRANCH   5   7
ATOM      7  S   UNL d   1      27.978 -17.156  -0.532  0.00  0.00     0.263 S 
ATOM      8  O   UNL d   1      27.779 -18.427   0.146  0.00  0.00    -0.200 OA
ATOM      9  O   UNL d   1      28.692 -17.075  -1.781  0.00  0.00    -0.200 OA
BRANCH   7  10
ATOM     10  N   UNL d   1      28.527 -16.023   0.609  0.00  0.00    -0.280 N 
ATOM     11  H   UNL d   1      29.194 -16.282   1.327  0.00  0.00     0.179 HD
BRANCH  10  12
ATOM     12  C   UNL d   1      28.143 -14.631   0.553  0.00  0.00     0.048 A 
ATOM     13  C   UNL d   1      27.120 -14.138   1.380  0.00  0.00     0.030 A 
ATOM     14  C   UNL d   1      26.693 -12.798   1.268  0.00  0.00     0.002 A 
ATOM     15  C   UNL d   1      27.311 -11.931   0.371  0.00  0.00     0.001 A 
ATOM     16  C   UNL d   1      28.295 -12.418  -0.468  0.00  0.00     0.009 A 
ATOM     17  C   UNL d   1      28.687 -13.756  -0.399  0.00  0.00    -0.035 A 
ATOM     18  C   UNL d   1      29.764 -14.166  -1.334  0.00  0.00     0.050 C 
ENDBRANCH  10  12
ENDBRANCH   7  10
ENDBRANCH   5   7
BRANCH   3  19
ATOM     19  C   UNL d   1      25.187 -13.915  -3.421  0.00  0.00     0.251 C 
ATOM     20  O   UNL d   1      24.591 -14.098  -4.476  0.00  0.00    -0.268 OA
ATOM     21  N   UNL d   1      25.910 -12.758  -3.169  0.00  0.00    -0.355 N 
ATOM     22  H   UNL d   1      26.441 -12.644  -2.320  0.00  0.00     0.162 HD
BRANCH  21  23
ATOM     23  C   UNL d   1      26.026 -11.710  -4.171  0.00  0.00     0.142 C 
BRANCH  23  24
ATOM     24  C   UNL d   1      26.954 -12.105  -5.324  0.00  0.00     0.142 C 
BRANCH  24  25
ATOM     25  N   UNL d   1      26.957 -13.524  -5.619  0.00  0.00    -0.360 N 
ATOM     26  C   UNL d   1      28.001 -14.389  -5.446  0.00  0.00     0.213 C 
ATOM     27  C   UNL d   1      29.301 -13.863  -4.891  0.00  0.00     0.117 C 
ATOM     28  O   UNL d   1      27.865 -15.574  -5.743  0.00  0.00    -0.274 OA
ATOM     29  H   UNL d   1      26.123 -13.962  -5.997  0.00  0.00     0.162 HD
ENDBRANCH  24  25
ENDBRANCH  23  24
ENDBRANCH  21  23
ENDBRANCH   3  19
BRANCH   1  30
ATOM     30  N   UNL d   1      22.842 -17.350  -0.803  0.00  0.00    -0.384 N 
ATOM     31  H   UNL d   1      22.097 -17.088  -1.440  0.00  0.00     0.160 HD
BRANCH  30  32
ATOM     32  C   UNL d   1      22.689 -18.652  -0.135  0.00  0.00     0.184 C 
BRANCH  32  33
ATOM     33  C   UNL d   1      21.269 -19.123  -0.171  0.00  0.00     0.070 A 
ATOM     34  C   UNL d   1      20.405 -19.226  -1.243  0.00  0.00     0.037 A 
ATOM     35  C   UNL d   1      19.191 -19.700  -0.748  0.00  0.00     0.035 A 
ATOM     36  C   UNL d   1      19.378 -19.932   0.594  0.00  0.00     0.053 A 
ATOM     37  O   UNL d   1      20.647 -19.570   0.974  0.00  0.00    -0.318 OA
BRANCH  36  38
ATOM     38  C   UNL d   1      18.444 -20.582   1.546  0.00  0.00     0.060 C 
ATOM     39  C   UNL d   1      18.030 -21.939   0.980  0.00  0.00     0.012 C 
ENDBRANCH  36  38
ENDBRANCH  32  33
ENDBRANCH  30  32
ENDBRANCH   1  30
TORSDOF 11
ENDMDL
MODEL 4
REMARK VINA RESULT:   -10.242      2.358      5.884
REMARK INTER + INTRA:         -15.700
REMARK INTER:                 -13.523
REMARK INTRA:                  -2.176
REMARK CONF_INDEPENDENT:        3.281
REMARK UNBOUND:                -2.176
REMARK  11 active torsions:
REMARK  status: ('A' for Active; 'I' for Inactive)
REMARK    1  A    between atoms: C_2  and  C_3 
REMARK    2  A    between atoms: C_6  and  C_7 
REMARK    3  A    between atoms: C_7  and  N_8 
REMARK    4  A    between atoms: N_8  and  C_9 
REMARK    5  A    between atoms: C_11  and  C_12 
REMARK       I    between atoms: C_12  and  N_14 
REMARK    6  A    between atoms: N_14  and  C_15 
REMARK    7  A    between atoms: C_15  and  C_16 
REMARK    8  A    between atoms: C_16  and  N_17 
REMARK       I    between atoms: N_17  and  C_18 
REMARK    9  A    between atoms: C_22  and  S_23 
REMARK   10  A    between atoms: S_23  and  N_26 
REMARK   11  A    between atoms: N_26  and  C_27 
ROOT
ATOM      1  C   UNL d   1      24.119 -16.836  -1.126  0.00  0.00     0.030 C 
ATOM      2  C   UNL d   1      24.157 -15.727  -1.998  0.00  0.00     0.046 C 
ATOM      3  C   UNL d   1      25.366 -15.145  -2.408  0.00  0.00     0.035 C 
ATOM      4  C   UNL d   1      26.534 -15.659  -1.877  0.00  0.00     0.042 C 
ATOM      5  C   UNL d   1      26.494 -16.824  -1.096  0.00  0.00     0.083 C 
ATOM      6  C   UNL d   1      25.306 -17.388  -0.686  0.00  0.00     0.054 C 
ENDROOT
BRANCH   5   7
ATOM      7  S   UNL d   1      28.040 -17.362  -0.493  0.00  0.00     0.263 S 
ATOM      8  O   UNL d   1      27.789 -18.598   0.229  0.00  0.00    -0.200 OA
ATOM      9  O   UNL d   1      28.756 -17.355  -1.743  0.00  0.00    -0.200 OA
BRANCH   7  10
ATOM     10  N   UNL d   1      28.637 -16.213   0.607  0.00  0.00    -0.280 N 
ATOM     11  H   UNL d   1      29.336 -16.461   1.298  0.00  0.00     0.179 HD
BRANCH  10  12
ATOM     12  C   UNL d   1      28.247 -14.823   0.550  0.00  0.00     0.048 A 
ATOM     13  C   UNL d   1      27.205 -14.339   1.360  0.00  0.00     0.030 A 
ATOM     14  C   UNL d   1      26.774 -13.001   1.246  0.00  0.00     0.002 A 
ATOM     15  C   UNL d   1      27.406 -12.126   0.366  0.00  0.00     0.001 A 
ATOM     16  C   UNL d   1      28.408 -12.604  -0.456  0.00  0.00     0.009 A 
ATOM     17  C   UNL d   1      28.806 -13.940  -0.385  0.00  0.00    -0.035 A 
ATOM     18  C   UNL d   1      29.903 -14.340  -1.301  0.00  0.00     0.050 C 
ENDBRANCH  10  12
ENDBRANCH   7  10
ENDBRANCH   5   7
BRANCH   3  19
ATOM     19  C   UNL d   1      25.380 -14.084  -3.463  0.00  0.00     0.251 C 
ATOM     20  O   UNL d   1      24.548 -14.111  -4.363  0.00  0.00    -0.268 OA
ATOM     21  N   UNL d   1      26.397 -13.140  -3.421  0.00  0.00    -0.355 N 
ATOM     22  H   UNL d   1      27.107 -13.163  -2.706  0.00  0.00     0.162 HD
BRANCH  21  23
ATOM     23  C   UNL d   1      26.547 -12.148  -4.475  0.00  0.00     0.142 C 
BRANCH  23  24
ATOM     24  C   UNL d   1      26.217 -10.732  -3.994  0.00  0.00     0.142 C 
BRANCH  24  25
ATOM     25  N   UNL d   1      25.158 -10.086  -4.742  0.00  0.00    -0.360 N 
ATOM     26  C   UNL d   1      24.795  -8.770  -4.670  0.00  0.00     0.213 C 
ATOM     27  C   UNL d   1      25.547  -7.856  -3.735  0.00  0.00     0.117 C 
ATOM     28  O   UNL d   1      23.869  -8.355  -5.364  0.00  0.00    -0.274 OA
ATOM     29  H   UNL d   1      24.599 -10.627  -5.395  0.00  0.00     0.162 HD
ENDBRANCH  24  25
ENDBRANCH  23  24
ENDBRANCH  21  23
ENDBRANCH   3  19
BRANCH   1  30
ATOM     30  N   UNL d   1      22.901 -17.376  -0.785  0.00  0.00    -0.384 N 
ATOM     31  H   UNL d   1      22.233 -17.318  -1.547  0.00  0.00     0.160 HD
BRANCH  30  32
ATOM     32  C   UNL d   1      22.691 -18.471   0.174  0.00  0.00     0.184 C 
BRANCH  32  33
ATOM     33  C   UNL d   1      21.296 -19.007   0.096  0.00  0.00     0.070 A 
ATOM     34  C   UNL d   1      20.478 -19.171  -1.004  0.00  0.00     0.037 A 
ATOM     35  C   UNL d   1      19.269 -19.690  -0.544  0.00  0.00     0.035 A 
ATOM     36  C   UNL d   1      19.415 -19.885   0.809  0.00  0.00     0.053 A 
ATOM     37  O   UNL d   1      20.651 -19.457   1.227  0.00  0.00    -0.318 OA
BRANCH  36  38
ATOM     38  C   UNL d   1      18.475 -20.556   1.740  0.00  0.00     0.060 C 
ATOM     39  C   UNL d   1      17.669 -21.594   0.962  0.00  0.00     0.012 C 
ENDBRANCH  36  38
ENDBRANCH  32  33
ENDBRANCH  30  32
ENDBRANCH   1  30
TORSDOF 11
ENDMDL
MODEL 5
REMARK VINA RESULT:   -10.169      1.027      1.699
REMARK INTER + INTRA:         -16.249
REMARK INTER:                 -13.450
REMARK INTRA:                  -2.799
REMARK CONF_INDEPENDENT:        3.281
REMARK UNBOUND:                -2.799
REMARK  11 active torsions:
REMARK  status: ('A' for Active; 'I' for Inactive)
REMARK    1  A    between atoms: C_2  and  C_3 
REMARK    2  A    between atoms: C_6  and  C_7 
REMARK    3  A    between atoms: C_7  and  N_8 
REMARK    4  A    between atoms: N_8  and  C_9 
REMARK    5  A    between atoms: C_11  and  C_12 
REMARK       I    between atoms: C_12  and  N_14 
REMARK    6  A    between atoms: N_14  and  C_15 
REMARK    7  A    between atoms: C_15  and  C_16 
REMARK    8  A    between atoms: C_16  and  N_17 
REMARK       I    between atoms: N_17  and  C_18 
REMARK    9  A    between atoms: C_22  and  S_23 
REMARK   10  A    between atoms: S_23  and  N_26 
REMARK   11  A    between atoms: N_26  and  C_27 
ROOT
ATOM      1  C   UNL d   1      24.776 -16.963  -1.063  0.00  0.00     0.030 C 
ATOM      2  C   UNL d   1      25.804 -16.654  -0.147  0.00  0.00     0.046 C 
ATOM      3  C   UNL d   1      26.829 -15.749  -0.458  0.00  0.00     0.035 C 
ATOM      4  C   UNL d   1      26.840 -15.209  -1.730  0.00  0.00     0.042 C 
ATOM      5  C   UNL d   1      25.760 -15.441  -2.597  0.00  0.00     0.083 C 
ATOM      6  C   UNL d   1      24.759 -16.336  -2.294  0.00  0.00     0.054 C 
ENDROOT
BRANCH   5   7
ATOM      7  S   UNL d   1      25.903 -14.697  -4.168  0.00  0.00     0.263 S 
ATOM      8  O   UNL d   1      26.282 -15.757  -5.088  0.00  0.00    -0.200 OA
ATOM      9  O   UNL d   1      24.599 -14.087  -4.221  0.00  0.00    -0.200 OA
BRANCH   7  10
ATOM     10  N   UNL d   1      27.158 -13.552  -4.128  0.00  0.00    -0.280 N 
ATOM     11  H   UNL d   1      28.068 -13.755  -4.523  0.00  0.00     0.179 HD
BRANCH  10  12
ATOM     12  C   UNL d   1      26.959 -12.215  -3.613  0.00  0.00     0.048 A 
ATOM     13  C   UNL d   1      27.301 -11.902  -2.287  0.00  0.00     0.030 A 
ATOM     14  C   UNL d   1      27.033 -10.619  -1.764  0.00  0.00     0.002 A 
ATOM     15  C   UNL d   1      26.472  -9.630  -2.568  0.00  0.00     0.001 A 
ATOM     16  C   UNL d   1      26.104  -9.942  -3.862  0.00  0.00     0.009 A 
ATOM     17  C   UNL d   1      26.318 -11.224  -4.371  0.00  0.00    -0.035 A 
ATOM     18  C   UNL d   1      25.901 -11.442  -5.778  0.00  0.00     0.050 C 
ENDBRANCH  10  12
ENDBRANCH   7  10
ENDBRANCH   5   7
BRANCH   3  19
ATOM     19  C   UNL d   1      27.803 -15.313   0.591  0.00  0.00     0.251 C 
ATOM     20  O   UNL d   1      27.788 -15.848   1.694  0.00  0.00    -0.268 OA
ATOM     21  N   UNL d   1      28.646 -14.251   0.293  0.00  0.00    -0.355 N 
ATOM     22  H   UNL d   1      28.609 -13.784  -0.599  0.00  0.00     0.162 HD
BRANCH  21  23
ATOM     23  C   UNL d   1      29.538 -13.694   1.299  0.00  0.00     0.142 C 
BRANCH  23  24
ATOM     24  C   UNL d   1      28.801 -13.310   2.584  0.00  0.00     0.142 C 
BRANCH  24  25
ATOM     25  N   UNL d   1      28.735 -14.374   3.567  0.00  0.00    -0.360 N 
ATOM     26  C   UNL d   1      28.279 -14.270   4.851  0.00  0.00     0.213 C 
ATOM     27  C   UNL d   1      27.780 -12.934   5.343  0.00  0.00     0.117 C 
ATOM     28  O   UNL d   1      28.283 -15.260   5.580  0.00  0.00    -0.274 OA
ATOM     29  H   UNL d   1      29.051 -15.307   3.321  0.00  0.00     0.162 HD
ENDBRANCH  24  25
ENDBRANCH  23  24
ENDBRANCH  21  23
ENDBRANCH   3  19
BRANCH   1  30
ATOM     30  N   UNL d   1      23.785 -17.838  -0.684  0.00  0.00    -0.384 N 
ATOM     31  H   UNL d   1      23.384 -17.592   0.214  0.00  0.00     0.160 HD
BRANCH  30  32
ATOM     32  C   UNL d   1      22.905 -18.580  -1.600  0.00  0.00     0.184 C 
BRANCH  32  33
ATOM     33  C   UNL d   1      21.623 -18.970  -0.933  0.00  0.00     0.070 A 
ATOM     34  C   UNL d   1      20.413 -19.324  -1.496  0.00  0.00     0.037 A 
ATOM     35  C   UNL d   1      19.531 -19.579  -0.447  0.00  0.00     0.035 A 
ATOM     36  C   UNL d   1      20.251 -19.434   0.714  0.00  0.00     0.053 A 
ATOM     37  O   UNL d   1      21.539 -19.045   0.439  0.00  0.00    -0.318 OA
BRANCH  36  38
ATOM     38  C   UNL d   1      19.818 -19.743   2.100  0.00  0.00     0.060 C 
ATOM     39  C   UNL d   1      18.512 -20.533   2.043  0.00  0.00     0.012 C 
ENDBRANCH  36  38
ENDBRANCH  32  33
ENDBRANCH  30  32
ENDBRANCH   1  30
TORSDOF 11
ENDMDL
MODEL 6
REMARK VINA RESULT:   -10.155      2.065      7.154
REMARK INTER + INTRA:         -15.715
REMARK INTER:                 -13.436
REMARK INTRA:                  -2.279
REMARK CONF_INDEPENDENT:        3.281
REMARK UNBOUND:                -2.279
REMARK  11 active torsions:
REMARK  status: ('A' for Active; 'I' for Inactive)
REMARK    1  A    between atoms: C_2  and  C_3 
REMARK    2  A    between atoms: C_6  and  C_7 
REMARK    3  A    between atoms: C_7  and  N_8 
REMARK    4  A    between atoms: N_8  and  C_9 
REMARK    5  A    between atoms: C_11  and  C_12 
REMARK       I    between atoms: C_12  and  N_14 
REMARK    6  A    between atoms: N_14  and  C_15 
REMARK    7  A    between atoms: C_15  and  C_16 
REMARK    8  A    between atoms: C_16  and  N_17 
REMARK       I    between atoms: N_17  and  C_18 
REMARK    9  A    between atoms: C_22  and  S_23 
REMARK   10  A    between atoms: S_23  and  N_26 
REMARK   11  A    between atoms: N_26  and  C_27 
ROOT
ATOM      1  C   UNL d   1      26.209 -16.474  -0.830  0.00  0.00     0.030 C 
ATOM      2  C   UNL d   1      25.751 -15.720  -1.931  0.00  0.00     0.046 C 
ATOM      3  C   UNL d   1      25.866 -14.323  -1.974  0.00  0.00     0.035 C 
ATOM      4  C   UNL d   1      26.393 -13.691  -0.863  0.00  0.00     0.042 C 
ATOM      5  C   UNL d   1      26.940 -14.454   0.180  0.00  0.00     0.083 C 
ATOM      6  C   UNL d   1      26.818 -15.825   0.226  0.00  0.00     0.054 C 
ENDROOT
BRANCH   5   7
ATOM      7  S   UNL d   1      27.572 -13.528   1.517  0.00  0.00     0.263 S 
ATOM      8  O   UNL d   1      28.733 -12.817   1.008  0.00  0.00    -0.200 OA
ATOM      9  O   UNL d   1      26.361 -12.833   1.871  0.00  0.00    -0.200 OA
BRANCH   7  10
ATOM     10  N   UNL d   1      28.092 -14.594   2.734  0.00  0.00    -0.280 N 
ATOM     11  H   UNL d   1      28.266 -15.573   2.535  0.00  0.00     0.179 HD
BRANCH  10  12
ATOM     12  C   UNL d   1      28.393 -14.141   4.073  0.00  0.00     0.048 A 
ATOM     13  C   UNL d   1      27.405 -13.521   4.857  0.00  0.00     0.030 A 
ATOM     14  C   UNL d   1      27.723 -13.009   6.132  0.00  0.00     0.002 A 
ATOM     15  C   UNL d   1      29.005 -13.154   6.654  0.00  0.00     0.001 A 
ATOM     16  C   UNL d   1      29.988 -13.734   5.876  0.00  0.00     0.009 A 
ATOM     17  C   UNL d   1      29.695 -14.197   4.592  0.00  0.00    -0.035 A 
ATOM     18  C   UNL d   1      30.821 -14.817   3.853  0.00  0.00     0.050 C 
ENDBRANCH  10  12
ENDBRANCH   7  10
ENDBRANCH   5   7
BRANCH   3  19
ATOM     19  C   UNL d   1      25.529 -13.569  -3.222  0.00  0.00     0.251 C 
ATOM     20  O   UNL d   1      24.786 -14.076  -4.055  0.00  0.00    -0.268 OA
ATOM     21  N   UNL d   1      26.142 -12.340  -3.425  0.00  0.00    -0.355 N 
ATOM     22  H   UNL d   1      26.794 -11.962  -2.756  0.00  0.00     0.162 HD
BRANCH  21  23
ATOM     23  C   UNL d   1      25.956 -11.602  -4.665  0.00  0.00     0.142 C 
BRANCH  23  24
ATOM     24  C   UNL d   1      26.898 -12.079  -5.774  0.00  0.00     0.142 C 
BRANCH  24  25
ATOM     25  N   UNL d   1      27.166 -13.503  -5.749  0.00  0.00    -0.360 N 
ATOM     26  C   UNL d   1      28.159 -14.157  -6.423  0.00  0.00     0.213 C 
ATOM     27  C   UNL d   1      29.100 -13.360  -7.291  0.00  0.00     0.117 C 
ATOM     28  O   UNL d   1      28.268 -15.377  -6.313  0.00  0.00    -0.274 OA
ATOM     29  H   UNL d   1      26.580 -14.117  -5.191  0.00  0.00     0.162 HD
ENDBRANCH  24  25
ENDBRANCH  23  24
ENDBRANCH  21  23
ENDBRANCH   3  19
BRANCH   1  30
ATOM     30  N   UNL d   1      26.090 -17.844  -0.864  0.00  0.00    -0.384 N 
ATOM     31  H   UNL d   1      26.970 -18.296  -1.091  0.00  0.00     0.160 HD
BRANCH  30  32
ATOM     32  C   UNL d   1      25.145 -18.639  -0.065  0.00  0.00     0.184 C 
BRANCH  32  33
ATOM     33  C   UNL d   1      23.726 -18.278  -0.377  0.00  0.00     0.070 A 
ATOM     34  C   UNL d   1      23.188 -17.057  -0.731  0.00  0.00     0.037 A 
ATOM     35  C   UNL d   1      21.817 -17.244  -0.895  0.00  0.00     0.035 A 
ATOM     36  C   UNL d   1      21.578 -18.583  -0.699  0.00  0.00     0.053 A 
ATOM     37  O   UNL d   1      22.738 -19.237  -0.365  0.00  0.00    -0.318 OA
BRANCH  36  38
ATOM     38  C   UNL d   1      20.308 -19.323  -0.909  0.00  0.00     0.060 C 
ATOM     39  C   UNL d   1      19.994 -20.129   0.350  0.00  0.00     0.012 C 
ENDBRANCH  36  38
ENDBRANCH  32  33
ENDBRANCH  30  32
ENDBRANCH   1  30
TORSDOF 11
ENDMDL
MODEL 7
REMARK VINA RESULT:    -9.681      3.672      7.842
REMARK INTER + INTRA:         -15.857
REMARK INTER:                 -12.962
REMARK INTRA:                  -2.894
REMARK CONF_INDEPENDENT:        3.281
REMARK UNBOUND:                -2.894
REMARK  11 active torsions:
REMARK  status: ('A' for Active; 'I' for Inactive)
REMARK    1  A    between atoms: C_2  and  C_3 
REMARK    2  A    between atoms: C_6  and  C_7 
REMARK    3  A    between atoms: C_7  and  N_8 
REMARK    4  A    between atoms: N_8  and  C_9 
REMARK    5  A    between atoms: C_11  and  C_12 
REMARK       I    between atoms: C_12  and  N_14 
REMARK    6  A    between atoms: N_14  and  C_15 
REMARK    7  A    between atoms: C_15  and  C_16 
REMARK    8  A    between atoms: C_16  and  N_17 
REMARK       I    between atoms: N_17  and  C_18 
REMARK    9  A    between atoms: C_22  and  S_23 
REMARK   10  A    between atoms: S_23  and  N_26 
REMARK   11  A    between atoms: N_26  and  C_27 
ROOT
ATOM      1  C   UNL d   1      27.555 -16.823  -0.964  0.00  0.00     0.030 C 
ATOM      2  C   UNL d   1      26.425 -17.429  -0.373  0.00  0.00     0.046 C 
ATOM      3  C   UNL d   1      25.144 -17.314  -0.932  0.00  0.00     0.035 C 
ATOM      4  C   UNL d   1      25.007 -16.527  -2.060  0.00  0.00     0.042 C 
ATOM      5  C   UNL d   1      26.148 -16.016  -2.697  0.00  0.00     0.083 C 
ATOM      6  C   UNL d   1      27.404 -16.121  -2.143  0.00  0.00     0.054 C 
ENDROOT
BRANCH   5   7
ATOM      7  S   UNL d   1      25.830 -15.043  -4.110  0.00  0.00     0.263 S 
ATOM      8  O   UNL d   1      25.864 -15.949  -5.246  0.00  0.00    -0.200 OA
ATOM      9  O   UNL d   1      24.598 -14.442  -3.666  0.00  0.00    -0.200 OA
BRANCH   7  10
ATOM     10  N   UNL d   1      27.080 -13.907  -4.295  0.00  0.00    -0.280 N 
ATOM     11  H   UNL d   1      27.002 -12.973  -3.911  0.00  0.00     0.179 HD
BRANCH  10  12
ATOM     12  C   UNL d   1      28.336 -14.247  -4.924  0.00  0.00     0.048 A 
ATOM     13  C   UNL d   1      28.367 -14.735  -6.242  0.00  0.00     0.030 A 
ATOM     14  C   UNL d   1      29.586 -15.140  -6.825  0.00  0.00     0.002 A 
ATOM     15  C   UNL d   1      30.783 -15.015  -6.124  0.00  0.00     0.001 A 
ATOM     16  C   UNL d   1      30.755 -14.566  -4.818  0.00  0.00     0.009 A 
ATOM     17  C   UNL d   1      29.546 -14.212  -4.215  0.00  0.00    -0.035 A 
ATOM     18  C   UNL d   1      29.636 -13.727  -2.816  0.00  0.00     0.050 C 
ENDBRANCH  10  12
ENDBRANCH   7  10
ENDBRANCH   5   7
BRANCH   3  19
ATOM     19  C   UNL d   1      24.000 -18.107  -0.381  0.00  0.00     0.251 C 
ATOM     20  O   UNL d   1      24.046 -18.517   0.773  0.00  0.00    -0.268 OA
ATOM     21  N   UNL d   1      22.951 -18.414  -1.236  0.00  0.00    -0.355 N 
ATOM     22  H   UNL d   1      22.954 -18.117  -2.199  0.00  0.00     0.162 HD
BRANCH  21  23
ATOM     23  C   UNL d   1      21.861 -19.277  -0.810  0.00  0.00     0.142 C 
BRANCH  23  24
ATOM     24  C   UNL d   1      20.499 -18.581  -0.895  0.00  0.00     0.142 C 
BRANCH  24  25
ATOM     25  N   UNL d   1      19.369 -19.486  -0.833  0.00  0.00    -0.360 N 
ATOM     26  C   UNL d   1      18.984 -20.236   0.244  0.00  0.00     0.213 C 
ATOM     27  C   UNL d   1      19.782 -20.144   1.520  0.00  0.00     0.117 C 
ATOM     28  O   UNL d   1      18.000 -20.968   0.155  0.00  0.00    -0.274 OA
ATOM     29  H   UNL d   1      18.777 -19.611  -1.648  0.00  0.00     0.162 HD
ENDBRANCH  24  25
ENDBRANCH  23  24
ENDBRANCH  21  23
ENDBRANCH   3  19
BRANCH   1  30
ATOM     30  N   UNL d   1      28.788 -16.998  -0.379  0.00  0.00    -0.384 N 
ATOM     31  H   UNL d   1      28.810 -17.813   0.225  0.00  0.00     0.160 HD
BRANCH  30  32
ATOM     32  C   UNL d   1      30.076 -16.597  -0.966  0.00  0.00     0.184 C 
BRANCH  32  33
ATOM     33  C   UNL d   1      30.463 -17.492  -2.102  0.00  0.00     0.070 A 
ATOM     34  C   UNL d   1      31.200 -18.659  -2.088  0.00  0.00     0.037 A 
ATOM     35  C   UNL d   1      31.297 -19.100  -3.406  0.00  0.00     0.035 A 
ATOM     36  C   UNL d   1      30.562 -18.223  -4.168  0.00  0.00     0.053 A 
ATOM     37  O   UNL d   1      30.052 -17.216  -3.387  0.00  0.00    -0.318 OA
BRANCH  36  38
ATOM     38  C   UNL d   1      30.221 -18.331  -5.608  0.00  0.00     0.060 C 
ATOM     39  C   UNL d   1      31.510 -18.273  -6.425  0.00  0.00     0.012 C 
ENDBRANCH  36  38
ENDBRANCH  32  33
ENDBRANCH  30  32
ENDBRANCH   1  30
TORSDOF 11
ENDMDL
MODEL 8
REMARK VINA RESULT:    -9.641      2.670      6.276
REMARK INTER + INTRA:         -16.354
REMARK INTER:                 -12.923
REMARK INTRA:                  -3.431
REMARK CONF_INDEPENDENT:        3.281
REMARK UNBOUND:                -3.431
REMARK  11 active torsions:
REMARK  status: ('A' for Active; 'I' for Inactive)
REMARK    1  A    between atoms: C_2  and  C_3 
REMARK    2  A    between atoms: C_6  and  C_7 
REMARK    3  A    between atoms: C_7  and  N_8 
REMARK    4  A    between atoms: N_8  and  C_9 
REMARK    5  A    between atoms: C_11  and  C_12 
REMARK       I    between atoms: C_12  and  N_14 
REMARK    6  A    between atoms: N_14  and  C_15 
REMARK    7  A    between atoms: C_15  and  C_16 
REMARK    8  A    between atoms: C_16  and  N_17 
REMARK       I    between atoms: N_17  and  C_18 
REMARK    9  A    between atoms: C_22  and  S_23 
REMARK   10  A    between atoms: S_23  and  N_26 
REMARK   11  A    between atoms: N_26  and  C_27 
ROOT
ATOM      1  C   UNL d   1      24.887 -16.775  -0.711  0.00  0.00     0.030 C 
ATOM      2  C   UNL d   1      24.644 -15.881  -1.776  0.00  0.00     0.046 C 
ATOM      3  C   UNL d   1      25.517 -14.824  -2.073  0.00  0.00     0.035 C 
ATOM      4  C   UNL d   1      26.607 -14.643  -1.241  0.00  0.00     0.042 C 
ATOM      5  C   UNL d   1      26.896 -15.595  -0.252  0.00  0.00     0.083 C 
ATOM      6  C   UNL d   1      26.033 -16.627   0.045  0.00  0.00     0.054 C 
ENDROOT
BRANCH   5   7
ATOM      7  S   UNL d   1      28.300 -15.243   0.723  0.00  0.00     0.263 S 
ATOM      8  O   UNL d   1      28.692 -13.882   0.395  0.00  0.00    -0.200 OA
ATOM      9  O   UNL d   1      27.741 -15.575   2.008  0.00  0.00    -0.200 OA
BRANCH   7  10
ATOM     10  N   UNL d   1      29.563 -16.286   0.272  0.00  0.00    -0.280 N 
ATOM     11  H   UNL d   1      30.091 -16.802   0.966  0.00  0.00     0.179 HD
BRANCH  10  12
ATOM     12  C   UNL d   1      29.881 -16.551  -1.113  0.00  0.00     0.048 A 
ATOM     13  C   UNL d   1      29.429 -15.691  -2.128  0.00  0.00     0.030 A 
ATOM     14  C   UNL d   1      29.673 -15.994  -3.483  0.00  0.00     0.002 A 
ATOM     15  C   UNL d   1      30.408 -17.123  -3.835  0.00  0.00     0.001 A 
ATOM     16  C   UNL d   1      30.828 -17.989  -2.844  0.00  0.00     0.009 A 
ATOM     17  C   UNL d   1      30.545 -17.723  -1.503  0.00  0.00    -0.035 A 
ATOM     18  C   UNL d   1      31.059 -18.711  -0.523  0.00  0.00     0.050 C 
ENDBRANCH  10  12
ENDBRANCH   7  10
ENDBRANCH   5   7
BRANCH   3  19
ATOM     19  C   UNL d   1      25.324 -14.002  -3.308  0.00  0.00     0.251 C 
ATOM     20  O   UNL d   1      24.777 -14.497  -4.287  0.00  0.00    -0.268 OA
ATOM     21  N   UNL d   1      25.847 -12.717  -3.321  0.00  0.00    -0.355 N 
ATOM     22  H   UNL d   1      26.343 -12.343  -2.527  0.00  0.00     0.162 HD
BRANCH  21  23
ATOM     23  C   UNL d   1      25.802 -11.898  -4.523  0.00  0.00     0.142 C 
BRANCH  23  24
ATOM     24  C   UNL d   1      26.899 -12.272  -5.524  0.00  0.00     0.142 C 
BRANCH  24  25
ATOM     25  N   UNL d   1      27.040 -13.699  -5.739  0.00  0.00    -0.360 N 
ATOM     26  C   UNL d   1      28.173 -14.354  -6.134  0.00  0.00     0.213 C 
ATOM     27  C   UNL d   1      29.430 -13.558  -6.380  0.00  0.00     0.117 C 
ATOM     28  O   UNL d   1      28.149 -15.575  -6.282  0.00  0.00    -0.274 OA
ATOM     29  H   UNL d   1      26.243 -14.311  -5.598  0.00  0.00     0.162 HD
ENDBRANCH  24  25
ENDBRANCH  23  24
ENDBRANCH  21  23
ENDBRANCH   3  19
BRANCH   1  30
ATOM     30  N   UNL d   1      24.005 -17.806  -0.491  0.00  0.00    -0.384 N 
ATOM     31  H   UNL d   1      23.696 -17.843   0.475  0.00  0.00     0.160 HD
BRANCH  30  32
ATOM     32  C   UNL d   1      23.073 -18.360  -1.486  0.00  0.00     0.184 C 
BRANCH  32  33
ATOM     33  C   UNL d   1      21.812 -18.847  -0.844  0.00  0.00     0.070 A 
ATOM     34  C   UNL d   1      20.657 -19.326  -1.430  0.00  0.00     0.037 A 
ATOM     35  C   UNL d   1      19.769 -19.631  -0.400  0.00  0.00     0.035 A 
ATOM     36  C   UNL d   1      20.437 -19.390   0.777  0.00  0.00     0.053 A 
ATOM     37  O   UNL d   1      21.692 -18.892   0.527  0.00  0.00    -0.318 OA
BRANCH  36  38
ATOM     38  C   UNL d   1      19.991 -19.699   2.159  0.00  0.00     0.060 C 
ATOM     39  C   UNL d   1      18.683 -20.485   2.089  0.00  0.00     0.012 C 
ENDBRANCH  36  38
ENDBRANCH  32  33
ENDBRANCH  30  32
ENDBRANCH   1  30
TORSDOF 11
ENDMDL
MODEL 9
REMARK VINA RESULT:    -8.908      2.452      3.542
REMARK INTER + INTRA:         -15.846
REMARK INTER:                 -12.189
REMARK INTRA:                  -3.657
REMARK CONF_INDEPENDENT:        3.281
REMARK UNBOUND:                -3.657
REMARK  11 active torsions:
REMARK  status: ('A' for Active; 'I' for Inactive)
REMARK    1  A    between atoms: C_2  and  C_3 
REMARK    2  A    between atoms: C_6  and  C_7 
REMARK    3  A    between atoms: C_7  and  N_8 
REMARK    4  A    between atoms: N_8  and  C_9 
REMARK    5  A    between atoms: C_11  and  C_12 
REMARK       I    between atoms: C_12  and  N_14 
REMARK    6  A    between atoms: N_14  and  C_15 
REMARK    7  A    between atoms: C_15  and  C_16 
REMARK    8  A    between atoms: C_16  and  N_17 
REMARK       I    between atoms: N_17  and  C_18 
REMARK    9  A    between atoms: C_22  and  S_23 
REMARK   10  A    between atoms: S_23  and  N_26 
REMARK   11  A    between atoms: N_26  and  C_27 
ROOT
ATOM      1  C   UNL d   1      24.773 -17.024  -1.073  0.00  0.00     0.030 C 
ATOM      2  C   UNL d   1      25.590 -16.430  -0.088  0.00  0.00     0.046 C 
ATOM      3  C   UNL d   1      26.436 -15.349  -0.377  0.00  0.00     0.035 C 
ATOM      4  C   UNL d   1      26.493 -14.916  -1.688  0.00  0.00     0.042 C 
ATOM      5  C   UNL d   1      25.603 -15.443  -2.637  0.00  0.00     0.083 C 
ATOM      6  C   UNL d   1      24.780 -16.510  -2.355  0.00  0.00     0.054 C 
ENDROOT
BRANCH   5   7
ATOM      7  S   UNL d   1      25.783 -14.804  -4.251  0.00  0.00     0.263 S 
ATOM      8  O   UNL d   1      25.994 -15.950  -5.121  0.00  0.00    -0.200 OA
ATOM      9  O   UNL d   1      24.565 -14.037  -4.301  0.00  0.00    -0.200 OA
BRANCH   7  10
ATOM     10  N   UNL d   1      27.172 -13.828  -4.309  0.00  0.00    -0.280 N 
ATOM     11  H   UNL d   1      27.282 -13.032  -3.691  0.00  0.00     0.179 HD
BRANCH  10  12
ATOM     12  C   UNL d   1      28.290 -14.135  -5.173  0.00  0.00     0.048 A 
ATOM     13  C   UNL d   1      28.458 -13.460  -6.393  0.00  0.00     0.030 A 
ATOM     14  C   UNL d   1      29.504 -13.817  -7.270  0.00  0.00     0.002 A 
ATOM     15  C   UNL d   1      30.415 -14.809  -6.917  0.00  0.00     0.001 A 
ATOM     16  C   UNL d   1      30.237 -15.498  -5.734  0.00  0.00     0.009 A 
ATOM     17  C   UNL d   1      29.173 -15.186  -4.885  0.00  0.00    -0.035 A 
ATOM     18  C   UNL d   1      29.088 -15.978  -3.633  0.00  0.00     0.050 C 
ENDBRANCH  10  12
ENDBRANCH   7  10
ENDBRANCH   5   7
BRANCH   3  19
ATOM     19  C   UNL d   1      27.158 -14.634   0.721  0.00  0.00     0.251 C 
ATOM     20  O   UNL d   1      26.701 -13.587   1.167  0.00  0.00    -0.268 OA
ATOM     21  N   UNL d   1      28.375 -15.151   1.144  0.00  0.00    -0.355 N 
ATOM     22  H   UNL d   1      28.765 -15.983   0.728  0.00  0.00     0.162 HD
BRANCH  21  23
ATOM     23  C   UNL d   1      29.191 -14.450   2.123  0.00  0.00     0.142 C 
BRANCH  23  24
ATOM     24  C   UNL d   1      29.752 -13.134   1.579  0.00  0.00     0.142 C 
BRANCH  24  25
ATOM     25  N   UNL d   1      29.029 -12.612   0.436  0.00  0.00    -0.360 N 
ATOM     26  C   UNL d   1      29.350 -12.790  -0.880  0.00  0.00     0.213 C 
ATOM     27  C   UNL d   1      30.568 -13.608  -1.231  0.00  0.00     0.117 C 
ATOM     28  O   UNL d   1      28.646 -12.284  -1.752  0.00  0.00    -0.274 OA
ATOM     29  H   UNL d   1      28.197 -12.048   0.580  0.00  0.00     0.162 HD
ENDBRANCH  24  25
ENDBRANCH  23  24
ENDBRANCH  21  23
ENDBRANCH   3  19
BRANCH   1  30
ATOM     30  N   UNL d   1      23.946 -18.064  -0.717  0.00  0.00    -0.384 N 
ATOM     31  H   UNL d   1      23.669 -18.012   0.258  0.00  0.00     0.160 HD
BRANCH  30  32
ATOM     32  C   UNL d   1      23.011 -18.758  -1.615  0.00  0.00     0.184 C 
BRANCH  32  33
ATOM     33  C   UNL d   1      21.714 -19.059  -0.931  0.00  0.00     0.070 A 
ATOM     34  C   UNL d   1      20.474 -19.325  -1.476  0.00  0.00     0.037 A 
ATOM     35  C   UNL d   1      19.591 -19.521  -0.416  0.00  0.00     0.035 A 
ATOM     36  C   UNL d   1      20.337 -19.432   0.736  0.00  0.00     0.053 A 
ATOM     37  O   UNL d   1      21.645 -19.133   0.443  0.00  0.00    -0.318 OA
BRANCH  36  38
ATOM     38  C   UNL d   1      19.903 -19.715   2.127  0.00  0.00     0.060 C 
ATOM     39  C   UNL d   1      18.442 -20.160   2.106  0.00  0.00     0.012 C 
ENDBRANCH  36  38
ENDBRANCH  32  33
ENDBRANCH  30  32
ENDBRANCH   1  30
TORSDOF 11
ENDMDL
