MODEL 1
REMARK VINA RESULT:    -7.778      0.000      0.000
REMARK INTER + INTRA:         -10.443
REMARK INTER:                  -9.270
REMARK INTRA:                  -1.173
REMARK CONF_INDEPENDENT:        1.492
REMARK UNBOUND:                -1.173
REMARK  5 active torsions:
REMARK  status: ('A' for Active; 'I' for Inactive)
REMARK       I    between atoms: C_2  and  N_3 
REMARK    1  A    between atoms: C_15  and  C_2 
REMARK    2  A    between atoms: N_3  and  N_4 
REMARK    3  A    between atoms: C_5  and  C_6 
REMARK    4  A    between atoms: C_15  and  C_17 
REMARK    5  A    between atoms: C_15  and  O_16 
ROOT
ATOM      1  O   UNL d   1      23.225 -19.518  -0.527  0.00  0.00    -0.268 OA
ATOM      2  C   UNL d   1      22.479 -18.531  -0.567  0.00  0.00     0.271 C 
ATOM      3  N   UNL d   1      22.980 -17.268  -0.280  0.00  0.00    -0.245 N 
ATOM      4  H   UNL d   1      22.387 -16.442  -0.340  0.00  0.00     0.192 HD
ENDROOT
BRANCH   3   5
ATOM      5  N   UNL d   1      24.295 -17.203   0.123  0.00  0.00    -0.182 NA
ATOM      6  C   UNL d   1      25.183 -16.831  -0.733  0.00  0.00     0.168 C 
BRANCH   6   7
ATOM      7  C   UNL d   1      26.547 -16.611  -0.313  0.00  0.00     0.052 A 
ATOM      8  C   UNL d   1      27.632 -17.399  -0.639  0.00  0.00     0.044 A 
ATOM      9  C   UNL d   1      28.811 -16.770  -0.167  0.00  0.00    -0.007 A 
ATOM     10  C   UNL d   1      30.180 -17.073  -0.288  0.00  0.00     0.014 A 
ATOM     11  C   UNL d   1      28.421 -15.618   0.515  0.00  0.00     0.043 A 
ATOM     12  C   UNL d   1      31.129 -16.210   0.264  0.00  0.00     0.001 A 
ATOM     13  C   UNL d   1      30.723 -15.070   0.954  0.00  0.00     0.002 A 
ATOM     14  C   UNL d   1      29.362 -14.758   1.108  0.00  0.00     0.030 A 
ATOM     15  N   UNL d   1      27.040 -15.550   0.426  0.00  0.00    -0.354 N 
ATOM     16  H   UNL d   1      26.475 -14.811   0.825  0.00  0.00     0.166 HD
ENDBRANCH   6   7
ENDBRANCH   3   5
BRANCH   2  17
ATOM     17  C   UNL d   1      20.981 -18.597  -1.000  0.00  0.00     0.244 C 
BRANCH  17  18
ATOM     18  C   UNL d   1      20.044 -19.350  -0.039  0.00  0.00    -0.021 A 
ATOM     19  C   UNL d   1      20.323 -19.459   1.336  0.00  0.00     0.010 A 
ATOM     20  C   UNL d   1      19.552 -20.236   2.198  0.00  0.00     0.001 A 
ATOM     21  C   UNL d   1      18.438 -20.900   1.715  0.00  0.00     0.000 A 
ATOM     22  C   UNL d   1      18.132 -20.825   0.358  0.00  0.00     0.001 A 
ATOM     23  C   UNL d   1      18.935 -20.075  -0.516  0.00  0.00     0.010 A 
ENDBRANCH  17  18
BRANCH  17  24
ATOM     24  O   UNL d   1      20.484 -17.278  -1.270  0.00  0.00    -0.381 OA
ATOM     25  H   UNL d   1      19.905 -17.361  -2.048  0.00  0.00     0.211 HD
ENDBRANCH  17  24
ENDBRANCH   2  17
TORSDOF 5
ENDMDL
MODEL 2
REMARK VINA RESULT:    -7.657      2.737      8.892
REMARK INTER + INTRA:         -10.528
REMARK INTER:                  -9.149
REMARK INTRA:                  -1.379
REMARK CONF_INDEPENDENT:        1.492
REMARK UNBOUND:                -1.379
REMARK  5 active torsions:
REMARK  status: ('A' for Active; 'I' for Inactive)
REMARK       I    between atoms: C_2  and  N_3 
REMARK    1  A    between atoms: C_15  and  C_2 
REMARK    2  A    between atoms: N_3  and  N_4 
REMARK    3  A    between atoms: C_5  and  C_6 
REMARK    4  A    between atoms: C_15  and  C_17 
REMARK    5  A    between atoms: C_15  and  O_16 
ROOT
ATOM      1  O   UNL d   1      26.066 -17.259   0.606  0.00  0.00    -0.268 OA
ATOM      2  C   UNL d   1      26.002 -16.969  -0.596  0.00  0.00     0.271 C 
ATOM      3  N   UNL d   1      24.796 -17.081  -1.275  0.00  0.00    -0.245 N 
ATOM      4  H   UNL d   1      24.719 -16.817  -2.255  0.00  0.00     0.192 HD
ENDROOT
BRANCH   3   5
ATOM      5  N   UNL d   1      23.735 -17.600  -0.566  0.00  0.00    -0.182 NA
ATOM      6  C   UNL d   1      22.643 -17.861  -1.197  0.00  0.00     0.168 C 
BRANCH   6   7
ATOM      7  C   UNL d   1      21.561 -18.539  -0.522  0.00  0.00     0.052 A 
ATOM      8  C   UNL d   1      20.385 -18.967  -1.106  0.00  0.00     0.044 A 
ATOM      9  C   UNL d   1      19.653 -19.720  -0.154  0.00  0.00    -0.007 A 
ATOM     10  C   UNL d   1      18.452 -20.451  -0.222  0.00  0.00     0.014 A 
ATOM     11  C   UNL d   1      20.368 -19.685   1.042  0.00  0.00     0.043 A 
ATOM     12  C   UNL d   1      18.001 -21.141   0.905  0.00  0.00     0.001 A 
ATOM     13  C   UNL d   1      18.719 -21.084   2.098  0.00  0.00     0.002 A 
ATOM     14  C   UNL d   1      19.908 -20.344   2.196  0.00  0.00     0.030 A 
ATOM     15  N   UNL d   1      21.517 -18.948   0.799  0.00  0.00    -0.354 N 
ATOM     16  H   UNL d   1      22.234 -18.760   1.487  0.00  0.00     0.166 HD
ENDBRANCH   6   7
ENDBRANCH   3   5
BRANCH   2  17
ATOM     17  C   UNL d   1      27.204 -16.402  -1.414  0.00  0.00     0.244 C 
BRANCH  17  18
ATOM     18  C   UNL d   1      26.837 -15.415  -2.536  0.00  0.00    -0.021 A 
ATOM     19  C   UNL d   1      25.892 -14.391  -2.344  0.00  0.00     0.010 A 
ATOM     20  C   UNL d   1      25.460 -13.565  -3.380  0.00  0.00     0.001 A 
ATOM     21  C   UNL d   1      25.999 -13.709  -4.645  0.00  0.00     0.000 A 
ATOM     22  C   UNL d   1      26.933 -14.717  -4.880  0.00  0.00     0.001 A 
ATOM     23  C   UNL d   1      27.335 -15.574  -3.843  0.00  0.00     0.010 A 
ENDBRANCH  17  18
BRANCH  17  24
ATOM     24  O   UNL d   1      28.181 -15.833  -0.531  0.00  0.00    -0.381 OA
ATOM     25  H   UNL d   1      27.860 -16.001   0.372  0.00  0.00     0.211 HD
ENDBRANCH  17  24
ENDBRANCH   2  17
TORSDOF 5
ENDMDL
MODEL 3
REMARK VINA RESULT:    -7.615      4.106      4.800
REMARK INTER + INTRA:         -10.250
REMARK INTER:                  -9.106
REMARK INTRA:                  -1.144
REMARK CONF_INDEPENDENT:        1.492
REMARK UNBOUND:                -1.144
REMARK  5 active torsions:
REMARK  status: ('A' for Active; 'I' for Inactive)
REMARK       I    between atoms: C_2  and  N_3 
REMARK    1  A    between atoms: C_15  and  C_2 
REMARK    2  A    between atoms: N_3  and  N_4 
REMARK    3  A    between atoms: C_5  and  C_6 
REMARK    4  A    between atoms: C_15  and  C_17 
REMARK    5  A    between atoms: C_15  and  O_16 
ROOT
ATOM      1  O   UNL d   1      22.468 -16.156  -0.571  0.00  0.00    -0.268 OA
ATOM      2  C   UNL d   1      23.085 -17.224  -0.674  0.00  0.00     0.271 C 
ATOM      3  N   UNL d   1      24.156 -17.327  -1.553  0.00  0.00    -0.245 N 
ATOM      4  H   UNL d   1      24.693 -18.189  -1.625  0.00  0.00     0.192 HD
ENDROOT
BRANCH   3   5
ATOM      5  N   UNL d   1      24.419 -16.226  -2.336  0.00  0.00    -0.182 NA
ATOM      6  C   UNL d   1      25.634 -16.005  -2.700  0.00  0.00     0.168 C 
BRANCH   6   7
ATOM      7  C   UNL d   1      25.930 -14.948  -3.639  0.00  0.00     0.052 A 
ATOM      8  C   UNL d   1      25.367 -13.688  -3.642  0.00  0.00     0.044 A 
ATOM      9  C   UNL d   1      26.025 -12.898  -4.616  0.00  0.00    -0.007 A 
ATOM     10  C   UNL d   1      25.926 -11.543  -4.986  0.00  0.00     0.014 A 
ATOM     11  C   UNL d   1      26.953 -13.717  -5.257  0.00  0.00     0.043 A 
ATOM     12  C   UNL d   1      26.766 -11.037  -5.980  0.00  0.00     0.001 A 
ATOM     13  C   UNL d   1      27.678 -11.872  -6.621  0.00  0.00     0.002 A 
ATOM     14  C   UNL d   1      27.780 -13.232  -6.285  0.00  0.00     0.030 A 
ATOM     15  N   UNL d   1      26.866 -14.964  -4.657  0.00  0.00    -0.354 N 
ATOM     16  H   UNL d   1      27.430 -15.764  -4.913  0.00  0.00     0.166 HD
ENDBRANCH   6   7
ENDBRANCH   3   5
BRANCH   2  17
ATOM     17  C   UNL d   1      22.780 -18.486   0.193  0.00  0.00     0.244 C 
BRANCH  17  18
ATOM     18  C   UNL d   1      21.321 -18.974   0.166  0.00  0.00    -0.021 A 
ATOM     19  C   UNL d   1      20.650 -19.372   1.336  0.00  0.00     0.010 A 
ATOM     20  C   UNL d   1      19.372 -19.928   1.316  0.00  0.00     0.001 A 
ATOM     21  C   UNL d   1      18.699 -20.063   0.114  0.00  0.00     0.000 A 
ATOM     22  C   UNL d   1      19.332 -19.688  -1.069  0.00  0.00     0.001 A 
ATOM     23  C   UNL d   1      20.636 -19.166  -1.049  0.00  0.00     0.010 A 
ENDBRANCH  17  18
BRANCH  17  24
ATOM     24  O   UNL d   1      23.682 -19.550  -0.145  0.00  0.00    -0.381 OA
ATOM     25  H   UNL d   1      23.300 -20.359   0.239  0.00  0.00     0.211 HD
ENDBRANCH  17  24
ENDBRANCH   2  17
TORSDOF 5
ENDMDL
MODEL 4
REMARK VINA RESULT:    -7.353      3.539      9.338
REMARK INTER + INTRA:          -9.743
REMARK INTER:                  -8.844
REMARK INTRA:                  -0.899
REMARK CONF_INDEPENDENT:        1.492
REMARK UNBOUND:                -0.899
REMARK  5 active torsions:
REMARK  status: ('A' for Active; 'I' for Inactive)
REMARK       I    between atoms: C_2  and  N_3 
REMARK    1  A    between atoms: C_15  and  C_2 
REMARK    2  A    between atoms: N_3  and  N_4 
REMARK    3  A    between atoms: C_5  and  C_6 
REMARK    4  A    between atoms: C_15  and  C_17 
REMARK    5  A    between atoms: C_15  and  O_16 
ROOT
ATOM      1  O   UNL d   1      23.670 -14.850  -2.442  0.00  0.00    -0.268 OA
ATOM      2  C   UNL d   1      24.745 -15.412  -2.197  0.00  0.00     0.271 C 
ATOM      3  N   UNL d   1      24.769 -16.565  -1.424  0.00  0.00    -0.245 N 
ATOM      4  H   UNL d   1      25.642 -17.056  -1.241  0.00  0.00     0.192 HD
ENDROOT
BRANCH   3   5
ATOM      5  N   UNL d   1      23.566 -16.977  -0.895  0.00  0.00    -0.182 NA
ATOM      6  C   UNL d   1      23.086 -18.111  -1.269  0.00  0.00     0.168 C 
BRANCH   6   7
ATOM      7  C   UNL d   1      21.905 -18.645  -0.631  0.00  0.00     0.052 A 
ATOM      8  C   UNL d   1      20.744 -19.031  -1.270  0.00  0.00     0.044 A 
ATOM      9  C   UNL d   1      19.884 -19.640  -0.323  0.00  0.00    -0.007 A 
ATOM     10  C   UNL d   1      18.635 -20.281  -0.428  0.00  0.00     0.014 A 
ATOM     11  C   UNL d   1      20.510 -19.557   0.920  0.00  0.00     0.043 A 
ATOM     12  C   UNL d   1      18.047 -20.835   0.711  0.00  0.00     0.001 A 
ATOM     13  C   UNL d   1      18.678 -20.730   1.949  0.00  0.00     0.002 A 
ATOM     14  C   UNL d   1      19.914 -20.076   2.082  0.00  0.00     0.030 A 
ATOM     15  N   UNL d   1      21.730 -18.933   0.710  0.00  0.00    -0.354 N 
ATOM     16  H   UNL d   1      22.409 -18.743   1.437  0.00  0.00     0.166 HD
ENDBRANCH   6   7
ENDBRANCH   3   5
BRANCH   2  17
ATOM     17  C   UNL d   1      26.117 -14.940  -2.773  0.00  0.00     0.244 C 
BRANCH  17  18
ATOM     18  C   UNL d   1      26.165 -13.482  -3.265  0.00  0.00    -0.021 A 
ATOM     19  C   UNL d   1      25.831 -13.134  -4.587  0.00  0.00     0.010 A 
ATOM     20  C   UNL d   1      25.983 -11.840  -5.083  0.00  0.00     0.001 A 
ATOM     21  C   UNL d   1      26.436 -10.833  -4.249  0.00  0.00     0.000 A 
ATOM     22  C   UNL d   1      26.785 -11.137  -2.935  0.00  0.00     0.001 A 
ATOM     23  C   UNL d   1      26.670 -12.451  -2.451  0.00  0.00     0.010 A 
ENDBRANCH  17  18
BRANCH  17  24
ATOM     24  O   UNL d   1      27.167 -15.195  -1.829  0.00  0.00    -0.381 OA
ATOM     25  H   UNL d   1      27.276 -14.374  -1.318  0.00  0.00     0.211 HD
ENDBRANCH  17  24
ENDBRANCH   2  17
TORSDOF 5
ENDMDL
MODEL 5
REMARK VINA RESULT:    -6.900      2.164      9.255
REMARK INTER + INTRA:          -9.531
REMARK INTER:                  -8.391
REMARK INTRA:                  -1.140
REMARK CONF_INDEPENDENT:        1.492
REMARK UNBOUND:                -1.140
REMARK  5 active torsions:
REMARK  status: ('A' for Active; 'I' for Inactive)
REMARK       I    between atoms: C_2  and  N_3 
REMARK    1  A    between atoms: C_15  and  C_2 
REMARK    2  A    between atoms: N_3  and  N_4 
REMARK    3  A    between atoms: C_5  and  C_6 
REMARK    4  A    between atoms: C_15  and  C_17 
REMARK    5  A    between atoms: C_15  and  O_16 
ROOT
ATOM      1  O   UNL d   1      26.852 -16.025  -0.542  0.00  0.00    -0.268 OA
ATOM      2  C   UNL d   1      27.680 -16.922  -0.343  0.00  0.00     0.271 C 
ATOM      3  N   UNL d   1      27.260 -18.177   0.079  0.00  0.00    -0.245 N 
ATOM      4  H   UNL d   1      27.925 -18.935   0.216  0.00  0.00     0.192 HD
ENDROOT
BRANCH   3   5
ATOM      5  N   UNL d   1      25.914 -18.322   0.334  0.00  0.00    -0.182 NA
ATOM      6  C   UNL d   1      25.079 -18.085  -0.616  0.00  0.00     0.168 C 
BRANCH   6   7
ATOM      7  C   UNL d   1      23.674 -18.365  -0.433  0.00  0.00     0.052 A 
ATOM      8  C   UNL d   1      22.744 -18.532  -1.439  0.00  0.00     0.044 A 
ATOM      9  C   UNL d   1      21.517 -18.943  -0.862  0.00  0.00    -0.007 A 
ATOM     10  C   UNL d   1      20.278 -19.331  -1.405  0.00  0.00     0.014 A 
ATOM     11  C   UNL d   1      21.693 -18.955   0.522  0.00  0.00     0.043 A 
ATOM     12  C   UNL d   1      19.248 -19.736  -0.553  0.00  0.00     0.001 A 
ATOM     13  C   UNL d   1      19.435 -19.728   0.827  0.00  0.00     0.002 A 
ATOM     14  C   UNL d   1      20.654 -19.324   1.394  0.00  0.00     0.030 A 
ATOM     15  N   UNL d   1      23.007 -18.585   0.759  0.00  0.00    -0.354 N 
ATOM     16  H   UNL d   1      23.426 -18.513   1.678  0.00  0.00     0.166 HD
ENDBRANCH   6   7
ENDBRANCH   3   5
BRANCH   2  17
ATOM     17  C   UNL d   1      29.210 -16.761  -0.607  0.00  0.00     0.244 C 
BRANCH  17  18
ATOM     18  C   UNL d   1      29.944 -15.773   0.316  0.00  0.00    -0.021 A 
ATOM     19  C   UNL d   1      31.301 -15.936   0.650  0.00  0.00     0.010 A 
ATOM     20  C   UNL d   1      31.948 -15.122   1.577  0.00  0.00     0.001 A 
ATOM     21  C   UNL d   1      31.263 -14.077   2.173  0.00  0.00     0.000 A 
ATOM     22  C   UNL d   1      29.916 -13.886   1.876  0.00  0.00     0.001 A 
ATOM     23  C   UNL d   1      29.255 -14.735   0.972  0.00  0.00     0.010 A 
ENDBRANCH  17  18
BRANCH  17  24
ATOM     24  O   UNL d   1      29.854 -18.044  -0.598  0.00  0.00    -0.381 OA
ATOM     25  H   UNL d   1      29.517 -18.509   0.188  0.00  0.00     0.211 HD
ENDBRANCH  17  24
ENDBRANCH   2  17
TORSDOF 5
ENDMDL
MODEL 6
REMARK VINA RESULT:    -6.869      4.060      9.444
REMARK INTER + INTRA:          -9.577
REMARK INTER:                  -8.361
REMARK INTRA:                  -1.216
REMARK CONF_INDEPENDENT:        1.492
REMARK UNBOUND:                -1.216
REMARK  5 active torsions:
REMARK  status: ('A' for Active; 'I' for Inactive)
REMARK       I    between atoms: C_2  and  N_3 
REMARK    1  A    between atoms: C_15  and  C_2 
REMARK    2  A    between atoms: N_3  and  N_4 
REMARK    3  A    between atoms: C_5  and  C_6 
REMARK    4  A    between atoms: C_15  and  C_17 
REMARK    5  A    between atoms: C_15  and  O_16 
ROOT
ATOM      1  O   UNL d   1      27.561 -13.441   2.694  0.00  0.00    -0.268 OA
ATOM      2  C   UNL d   1      28.593 -14.093   2.486  0.00  0.00     0.271 C 
ATOM      3  N   UNL d   1      28.572 -15.169   1.608  0.00  0.00    -0.245 N 
ATOM      4  H   UNL d   1      29.419 -15.695   1.403  0.00  0.00     0.192 HD
ENDROOT
BRANCH   3   5
ATOM      5  N   UNL d   1      27.348 -15.503   1.071  0.00  0.00    -0.182 NA
ATOM      6  C   UNL d   1      27.214 -16.657   0.517  0.00  0.00     0.168 C 
BRANCH   6   7
ATOM      7  C   UNL d   1      25.914 -17.102   0.074  0.00  0.00     0.052 A 
ATOM      8  C   UNL d   1      25.515 -18.415  -0.078  0.00  0.00     0.044 A 
ATOM      9  C   UNL d   1      24.131 -18.438  -0.379  0.00  0.00    -0.007 A 
ATOM     10  C   UNL d   1      23.200 -19.480  -0.549  0.00  0.00     0.014 A 
ATOM     11  C   UNL d   1      23.705 -17.114  -0.478  0.00  0.00     0.043 A 
ATOM     12  C   UNL d   1      21.860 -19.173  -0.800  0.00  0.00     0.001 A 
ATOM     13  C   UNL d   1      21.453 -17.845  -0.910  0.00  0.00     0.002 A 
ATOM     14  C   UNL d   1      22.368 -16.789  -0.767  0.00  0.00     0.030 A 
ATOM     15  N   UNL d   1      24.810 -16.319  -0.214  0.00  0.00    -0.354 N 
ATOM     16  H   UNL d   1      24.799 -15.308  -0.207  0.00  0.00     0.166 HD
ENDBRANCH   6   7
ENDBRANCH   3   5
BRANCH   2  17
ATOM     17  C   UNL d   1      29.980 -13.737   3.108  0.00  0.00     0.244 C 
BRANCH  17  18
ATOM     18  C   UNL d   1      29.982 -13.485   4.626  0.00  0.00    -0.021 A 
ATOM     19  C   UNL d   1      29.399 -14.393   5.530  0.00  0.00     0.010 A 
ATOM     20  C   UNL d   1      29.286 -14.125   6.893  0.00  0.00     0.001 A 
ATOM     21  C   UNL d   1      29.799 -12.948   7.408  0.00  0.00     0.000 A 
ATOM     22  C   UNL d   1      30.377 -12.019   6.546  0.00  0.00     0.001 A 
ATOM     23  C   UNL d   1      30.452 -12.273   5.167  0.00  0.00     0.010 A 
ENDBRANCH  17  18
BRANCH  17  24
ATOM     24  O   UNL d   1      30.953 -14.730   2.752  0.00  0.00    -0.381 OA
ATOM     25  H   UNL d   1      30.464 -15.567   2.663  0.00  0.00     0.211 HD
ENDBRANCH  17  24
ENDBRANCH   2  17
TORSDOF 5
ENDMDL
MODEL 7
REMARK VINA RESULT:    -6.717      5.079      7.346
REMARK INTER + INTRA:          -9.454
REMARK INTER:                  -8.209
REMARK INTRA:                  -1.245
REMARK CONF_INDEPENDENT:        1.492
REMARK UNBOUND:                -1.245
REMARK  5 active torsions:
REMARK  status: ('A' for Active; 'I' for Inactive)
REMARK       I    between atoms: C_2  and  N_3 
REMARK    1  A    between atoms: C_15  and  C_2 
REMARK    2  A    between atoms: N_3  and  N_4 
REMARK    3  A    between atoms: C_5  and  C_6 
REMARK    4  A    between atoms: C_15  and  C_17 
REMARK    5  A    between atoms: C_15  and  O_16 
ROOT
ATOM      1  O   UNL d   1      26.425 -13.183   1.119  0.00  0.00    -0.268 OA
ATOM      2  C   UNL d   1      27.046 -14.212   0.825  0.00  0.00     0.271 C 
ATOM      3  N   UNL d   1      27.895 -14.802   1.752  0.00  0.00    -0.245 N 
ATOM      4  H   UNL d   1      28.388 -15.667   1.536  0.00  0.00     0.192 HD
ENDROOT
BRANCH   3   5
ATOM      5  N   UNL d   1      28.060 -14.138   2.947  0.00  0.00    -0.182 NA
ATOM      6  C   UNL d   1      28.084 -14.826   4.035  0.00  0.00     0.168 C 
BRANCH   6   7
ATOM      7  C   UNL d   1      28.399 -14.186   5.291  0.00  0.00     0.052 A 
ATOM      8  C   UNL d   1      28.333 -12.831   5.548  0.00  0.00     0.044 A 
ATOM      9  C   UNL d   1      28.568 -12.618   6.929  0.00  0.00    -0.007 A 
ATOM     10  C   UNL d   1      28.539 -11.473   7.746  0.00  0.00     0.014 A 
ATOM     11  C   UNL d   1      28.849 -13.860   7.499  0.00  0.00     0.043 A 
ATOM     12  C   UNL d   1      28.777 -11.597   9.117  0.00  0.00     0.001 A 
ATOM     13  C   UNL d   1      29.071 -12.842   9.668  0.00  0.00     0.002 A 
ATOM     14  C   UNL d   1      29.128 -13.996   8.870  0.00  0.00     0.030 A 
ATOM     15  N   UNL d   1      28.756 -14.795   6.480  0.00  0.00    -0.354 N 
ATOM     16  H   UNL d   1      28.903 -15.790   6.600  0.00  0.00     0.166 HD
ENDBRANCH   6   7
ENDBRANCH   3   5
BRANCH   2  17
ATOM     17  C   UNL d   1      26.884 -14.961  -0.535  0.00  0.00     0.244 C 
BRANCH  17  18
ATOM     18  C   UNL d   1      26.050 -16.253  -0.487  0.00  0.00    -0.021 A 
ATOM     19  C   UNL d   1      24.714 -16.292  -0.930  0.00  0.00     0.010 A 
ATOM     20  C   UNL d   1      23.908 -17.419  -0.784  0.00  0.00     0.001 A 
ATOM     21  C   UNL d   1      24.431 -18.571  -0.225  0.00  0.00     0.000 A 
ATOM     22  C   UNL d   1      25.747 -18.573   0.233  0.00  0.00     0.001 A 
ATOM     23  C   UNL d   1      26.544 -17.422   0.122  0.00  0.00     0.010 A 
ENDBRANCH  17  18
BRANCH  17  24
ATOM     24  O   UNL d   1      26.382 -14.065  -1.538  0.00  0.00    -0.381 OA
ATOM     25  H   UNL d   1      26.155 -13.240  -1.074  0.00  0.00     0.211 HD
ENDBRANCH  17  24
ENDBRANCH   2  17
TORSDOF 5
ENDMDL
MODEL 8
REMARK VINA RESULT:    -6.696      3.914      9.248
REMARK INTER + INTRA:          -9.554
REMARK INTER:                  -8.188
REMARK INTRA:                  -1.366
REMARK CONF_INDEPENDENT:        1.492
REMARK UNBOUND:                -1.366
REMARK  5 active torsions:
REMARK  status: ('A' for Active; 'I' for Inactive)
REMARK       I    between atoms: C_2  and  N_3 
REMARK    1  A    between atoms: C_15  and  C_2 
REMARK    2  A    between atoms: N_3  and  N_4 
REMARK    3  A    between atoms: C_5  and  C_6 
REMARK    4  A    between atoms: C_15  and  C_17 
REMARK    5  A    between atoms: C_15  and  O_16 
ROOT
ATOM      1  O   UNL d   1      24.531 -14.459  -2.760  0.00  0.00    -0.268 OA
ATOM      2  C   UNL d   1      25.696 -14.864  -2.651  0.00  0.00     0.271 C 
ATOM      3  N   UNL d   1      25.946 -16.202  -2.376  0.00  0.00    -0.245 N 
ATOM      4  H   UNL d   1      26.898 -16.557  -2.314  0.00  0.00     0.192 HD
ENDROOT
BRANCH   3   5
ATOM      5  N   UNL d   1      24.846 -17.001  -2.154  0.00  0.00    -0.182 NA
ATOM      6  C   UNL d   1      24.608 -17.402  -0.954  0.00  0.00     0.168 C 
BRANCH   6   7
ATOM      7  C   UNL d   1      23.389 -18.117  -0.656  0.00  0.00     0.052 A 
ATOM      8  C   UNL d   1      22.880 -18.360   0.604  0.00  0.00     0.044 A 
ATOM      9  C   UNL d   1      21.599 -18.951   0.471  0.00  0.00    -0.007 A 
ATOM     10  C   UNL d   1      20.609 -19.324   1.399  0.00  0.00     0.014 A 
ATOM     11  C   UNL d   1      21.364 -19.130  -0.892  0.00  0.00     0.043 A 
ATOM     12  C   UNL d   1      19.401 -19.855   0.942  0.00  0.00     0.001 A 
ATOM     13  C   UNL d   1      19.187 -20.041  -0.422  0.00  0.00     0.002 A 
ATOM     14  C   UNL d   1      20.168 -19.697  -1.366  0.00  0.00     0.030 A 
ATOM     15  N   UNL d   1      22.473 -18.630  -1.557  0.00  0.00    -0.354 N 
ATOM     16  H   UNL d   1      22.581 -18.619  -2.563  0.00  0.00     0.166 HD
ENDBRANCH   6   7
ENDBRANCH   3   5
BRANCH   2  17
ATOM     17  C   UNL d   1      26.949 -13.961  -2.877  0.00  0.00     0.244 C 
BRANCH  17  18
ATOM     18  C   UNL d   1      27.740 -14.233  -4.169  0.00  0.00    -0.021 A 
ATOM     19  C   UNL d   1      27.722 -13.336  -5.253  0.00  0.00     0.010 A 
ATOM     20  C   UNL d   1      28.332 -13.622  -6.472  0.00  0.00     0.001 A 
ATOM     21  C   UNL d   1      29.027 -14.807  -6.634  0.00  0.00     0.000 A 
ATOM     22  C   UNL d   1      29.063 -15.726  -5.587  0.00  0.00     0.001 A 
ATOM     23  C   UNL d   1      28.411 -15.454  -4.373  0.00  0.00     0.010 A 
ENDBRANCH  17  18
BRANCH  17  24
ATOM     24  O   UNL d   1      26.588 -12.576  -2.780  0.00  0.00    -0.381 OA
ATOM     25  H   UNL d   1      25.615 -12.551  -2.769  0.00  0.00     0.211 HD
ENDBRANCH  17  24
ENDBRANCH   2  17
TORSDOF 5
ENDMDL
MODEL 9
REMARK VINA RESULT:    -6.516      3.392      9.234
REMARK INTER + INTRA:          -9.316
REMARK INTER:                  -8.008
REMARK INTRA:                  -1.309
REMARK CONF_INDEPENDENT:        1.492
REMARK UNBOUND:                -1.309
REMARK  5 active torsions:
REMARK  status: ('A' for Active; 'I' for Inactive)
REMARK       I    between atoms: C_2  and  N_3 
REMARK    1  A    between atoms: C_15  and  C_2 
REMARK    2  A    between atoms: N_3  and  N_4 
REMARK    3  A    between atoms: C_5  and  C_6 
REMARK    4  A    between atoms: C_15  and  C_17 
REMARK    5  A    between atoms: C_15  and  O_16 
ROOT
ATOM      1  O   UNL d   1      25.158 -15.616  -4.370  0.00  0.00    -0.268 OA
ATOM      2  C   UNL d   1      26.062 -15.509  -3.532  0.00  0.00     0.271 C 
ATOM      3  N   UNL d   1      26.008 -16.236  -2.351  0.00  0.00    -0.245 N 
ATOM      4  H   UNL d   1      26.759 -16.183  -1.666  0.00  0.00     0.192 HD
ENDROOT
BRANCH   3   5
ATOM      5  N   UNL d   1      24.875 -16.993  -2.145  0.00  0.00    -0.182 NA
ATOM      6  C   UNL d   1      24.671 -17.489  -0.974  0.00  0.00     0.168 C 
BRANCH   6   7
ATOM      7  C   UNL d   1      23.428 -18.162  -0.679  0.00  0.00     0.052 A 
ATOM      8  C   UNL d   1      22.925 -18.418   0.581  0.00  0.00     0.044 A 
ATOM      9  C   UNL d   1      21.620 -18.954   0.450  0.00  0.00    -0.007 A 
ATOM     10  C   UNL d   1      20.628 -19.311   1.382  0.00  0.00     0.014 A 
ATOM     11  C   UNL d   1      21.361 -19.087  -0.913  0.00  0.00     0.043 A 
ATOM     12  C   UNL d   1      19.393 -19.781   0.928  0.00  0.00     0.001 A 
ATOM     13  C   UNL d   1      19.155 -19.922  -0.437  0.00  0.00     0.002 A 
ATOM     14  C   UNL d   1      20.138 -19.593  -1.385  0.00  0.00     0.030 A 
ATOM     15  N   UNL d   1      22.481 -18.614  -1.580  0.00  0.00    -0.354 N 
ATOM     16  H   UNL d   1      22.577 -18.581  -2.586  0.00  0.00     0.166 HD
ENDBRANCH   6   7
ENDBRANCH   3   5
BRANCH   2  17
ATOM     17  C   UNL d   1      27.339 -14.636  -3.746  0.00  0.00     0.244 C 
BRANCH  17  18
ATOM     18  C   UNL d   1      28.662 -15.413  -3.870  0.00  0.00    -0.021 A 
ATOM     19  C   UNL d   1      29.471 -15.322  -5.017  0.00  0.00     0.010 A 
ATOM     20  C   UNL d   1      30.608 -16.108  -5.197  0.00  0.00     0.001 A 
ATOM     21  C   UNL d   1      31.001 -16.987  -4.203  0.00  0.00     0.000 A 
ATOM     22  C   UNL d   1      30.223 -17.113  -3.055  0.00  0.00     0.001 A 
ATOM     23  C   UNL d   1      29.055 -16.350  -2.895  0.00  0.00     0.010 A 
ENDBRANCH  17  18
BRANCH  17  24
ATOM     24  O   UNL d   1      27.157 -13.755  -4.863  0.00  0.00    -0.381 OA
ATOM     25  H   UNL d   1      26.214 -13.809  -5.099  0.00  0.00     0.211 HD
ENDBRANCH  17  24
ENDBRANCH   2  17
TORSDOF 5
ENDMDL
