MODEL 1
REMARK VINA RESULT:    -7.636      0.000      0.000
REMARK INTER + INTRA:         -11.162
REMARK INTER:                  -9.425
REMARK INTRA:                  -1.737
REMARK CONF_INDEPENDENT:        1.790
REMARK UNBOUND:                -1.737
REMARK  6 active torsions:
REMARK  status: ('A' for Active; 'I' for Inactive)
REMARK    1  A    between atoms: C_5  and  C_6 
REMARK    2  A    between atoms: C_9  and  N_10 
REMARK    3  A    between atoms: N_13  and  C_14 
REMARK    4  A    between atoms: C_14  and  C_15 
REMARK    5  A    between atoms: C_15  and  O_16 
REMARK    6  A    between atoms: C_19  and  N_20 
ROOT
ATOM      1  C   UNL d   1      27.245 -13.605   0.683  0.00  0.00    -0.002 C 
ATOM      2  C   UNL d   1      27.948 -14.531   1.430  0.00  0.00     0.016 C 
ATOM      3  C   UNL d   1      28.262 -14.234   2.754  0.00  0.00     0.033 C 
ATOM      4  C   UNL d   1      28.094 -12.951   3.347  0.00  0.00     0.063 C 
ATOM      5  C   UNL d   1      27.383 -12.015   2.549  0.00  0.00     0.130 C 
ATOM      6  C   UNL d   1      26.972 -12.348   1.224  0.00  0.00     0.052 C 
ENDROOT
BRANCH   1   7
ATOM      7  C   UNL d   1      26.660 -13.991  -0.627  0.00  0.00     0.098 A 
ATOM      8  N   UNL d   1      26.696 -13.119  -1.589  0.00  0.00    -0.170 NA
ATOM      9  N   UNL d   1      26.103 -13.449  -2.775  0.00  0.00    -0.242 N 
ATOM     10  C   UNL d   1      25.372 -14.585  -3.027  0.00  0.00     0.272 A 
ATOM     11  H   UNL d   1      26.159 -12.765  -3.525  0.00  0.00     0.192 HD
ATOM     12  O   UNL d   1      24.785 -14.772  -4.091  0.00  0.00    -0.266 OA
ATOM     13  C   UNL d   1      25.350 -15.594  -1.959  0.00  0.00     0.046 A 
ATOM     14  C   UNL d   1      24.700 -16.821  -2.151  0.00  0.00     0.018 A 
ATOM     15  C   UNL d   1      26.020 -15.329  -0.770  0.00  0.00     0.011 A 
ATOM     16  C   UNL d   1      24.757 -17.802  -1.160  0.00  0.00     0.001 A 
ATOM     17  C   UNL d   1      25.442 -17.553   0.024  0.00  0.00     0.001 A 
ATOM     18  C   UNL d   1      26.045 -16.315   0.230  0.00  0.00     0.015 A 
ENDBRANCH   1   7
BRANCH   5  19
ATOM     19  N   UNL d   1      27.060 -10.640   2.975  0.00  0.00    -0.113 N 
ATOM     20  O   UNL d   1      27.956  -9.920   3.428  0.00  0.00    -0.532 OA
ATOM     21  O   UNL d   1      25.889 -10.257   2.850  0.00  0.00    -0.532 OA
ENDBRANCH   5  19
BRANCH   4  22
ATOM     22  N   UNL d   1      28.768 -12.766   4.549  0.00  0.00    -0.376 N 
ATOM     23  C   UNL d   1      30.078 -13.275   5.006  0.00  0.00     0.150 C 
ATOM     24  C   UNL d   1      29.931 -14.029   6.371  0.00  0.00     0.254 C 
ATOM     25  N   UNL d   1      29.171 -13.162   7.428  0.00  0.00    -0.066 N 
ATOM     26  C   UNL d   1      27.882 -12.599   6.832  0.00  0.00     0.254 C 
ATOM     27  H   UNL d   1      29.791 -12.376   7.664  0.00  0.00     0.280 HD
ATOM     28  C   UNL d   1      28.146 -11.855   5.523  0.00  0.00     0.150 C 
BRANCH  25  29
ATOM     29  C   UNL d   1      28.908 -13.936   8.712  0.00  0.00     0.260 C 
BRANCH  29  30
ATOM     30  C   UNL d   1      28.710 -13.020   9.934  0.00  0.00     0.192 C 
BRANCH  30  31
ATOM     31  O   UNL d   1      29.175 -11.709   9.654  0.00  0.00    -0.399 OA
ATOM     32  H   UNL d   1      28.758 -11.072  10.264  0.00  0.00     0.209 HD
ENDBRANCH  30  31
ENDBRANCH  29  30
ENDBRANCH  25  29
ENDBRANCH   4  22
TORSDOF 6
ENDMDL
MODEL 2
REMARK VINA RESULT:    -7.533      6.088      9.921
REMARK INTER + INTRA:         -11.707
REMARK INTER:                  -9.323
REMARK INTRA:                  -2.384
REMARK CONF_INDEPENDENT:        1.790
REMARK UNBOUND:                -2.384
REMARK  6 active torsions:
REMARK  status: ('A' for Active; 'I' for Inactive)
REMARK    1  A    between atoms: C_5  and  C_6 
REMARK    2  A    between atoms: C_9  and  N_10 
REMARK    3  A    between atoms: N_13  and  C_14 
REMARK    4  A    between atoms: C_14  and  C_15 
REMARK    5  A    between atoms: C_15  and  O_16 
REMARK    6  A    between atoms: C_19  and  N_20 
ROOT
ATOM      1  C   UNL d   1      27.115 -14.875  -2.419  0.00  0.00    -0.002 C 
ATOM      2  C   UNL d   1      26.571 -13.622  -2.215  0.00  0.00     0.016 C 
ATOM      3  C   UNL d   1      26.430 -12.760  -3.299  0.00  0.00     0.033 C 
ATOM      4  C   UNL d   1      26.998 -12.992  -4.584  0.00  0.00     0.063 C 
ATOM      5  C   UNL d   1      27.566 -14.282  -4.759  0.00  0.00     0.130 C 
ATOM      6  C   UNL d   1      27.625 -15.207  -3.675  0.00  0.00     0.052 C 
ENDROOT
BRANCH   1   7
ATOM      7  C   UNL d   1      27.029 -15.910  -1.357  0.00  0.00     0.098 A 
ATOM      8  N   UNL d   1      28.134 -16.287  -0.786  0.00  0.00    -0.170 NA
ATOM      9  N   UNL d   1      28.064 -17.283   0.148  0.00  0.00    -0.242 N 
ATOM     10  C   UNL d   1      26.945 -18.008   0.477  0.00  0.00     0.272 A 
ATOM     11  H   UNL d   1      28.933 -17.550   0.602  0.00  0.00     0.192 HD
ATOM     12  O   UNL d   1      26.977 -18.956   1.260  0.00  0.00    -0.266 OA
ATOM     13  C   UNL d   1      25.683 -17.571  -0.137  0.00  0.00     0.046 A 
ATOM     14  C   UNL d   1      24.473 -18.195   0.198  0.00  0.00     0.018 A 
ATOM     15  C   UNL d   1      25.703 -16.501  -1.025  0.00  0.00     0.011 A 
ATOM     16  C   UNL d   1      23.274 -17.717  -0.329  0.00  0.00     0.001 A 
ATOM     17  C   UNL d   1      23.282 -16.635  -1.202  0.00  0.00     0.001 A 
ATOM     18  C   UNL d   1      24.491 -16.048  -1.570  0.00  0.00     0.015 A 
ENDBRANCH   1   7
BRANCH   5  19
ATOM     19  N   UNL d   1      28.175 -14.754  -6.017  0.00  0.00    -0.113 N 
ATOM     20  O   UNL d   1      28.671 -15.885  -6.061  0.00  0.00    -0.532 OA
ATOM     21  O   UNL d   1      28.153 -13.992  -6.992  0.00  0.00    -0.532 OA
ENDBRANCH   5  19
BRANCH   4  22
ATOM     22  N   UNL d   1      27.037 -11.880  -5.419  0.00  0.00    -0.376 N 
ATOM     23  C   UNL d   1      25.952 -11.178  -6.138  0.00  0.00     0.150 C 
ATOM     24  C   UNL d   1      26.281 -11.075  -7.666  0.00  0.00     0.254 C 
ATOM     25  N   UNL d   1      27.707 -10.480  -7.908  0.00  0.00    -0.066 N 
ATOM     26  C   UNL d   1      28.742 -11.202  -7.048  0.00  0.00     0.254 C 
ATOM     27  H   UNL d   1      27.668  -9.496  -7.613  0.00  0.00     0.280 HD
ATOM     28  C   UNL d   1      28.339 -11.213  -5.574  0.00  0.00     0.150 C 
BRANCH  25  29
ATOM     29  C   UNL d   1      28.085 -10.499  -9.383  0.00  0.00     0.260 C 
BRANCH  29  30
ATOM     30  C   UNL d   1      28.918 -11.736  -9.770  0.00  0.00     0.192 C 
BRANCH  30  31
ATOM     31  O   UNL d   1      28.154 -12.920  -9.611  0.00  0.00    -0.399 OA
ATOM     32  H   UNL d   1      28.639 -13.555  -9.052  0.00  0.00     0.209 HD
ENDBRANCH  30  31
ENDBRANCH  29  30
ENDBRANCH  25  29
ENDBRANCH   4  22
TORSDOF 6
ENDMDL
MODEL 3
REMARK VINA RESULT:    -7.503      6.054      9.177
REMARK INTER + INTRA:         -11.318
REMARK INTER:                  -9.293
REMARK INTRA:                  -2.025
REMARK CONF_INDEPENDENT:        1.790
REMARK UNBOUND:                -2.025
REMARK  6 active torsions:
REMARK  status: ('A' for Active; 'I' for Inactive)
REMARK    1  A    between atoms: C_5  and  C_6 
REMARK    2  A    between atoms: C_9  and  N_10 
REMARK    3  A    between atoms: N_13  and  C_14 
REMARK    4  A    between atoms: C_14  and  C_15 
REMARK    5  A    between atoms: C_15  and  O_16 
REMARK    6  A    between atoms: C_19  and  N_20 
ROOT
ATOM      1  C   UNL d   1      26.909 -14.773  -1.972  0.00  0.00    -0.002 C 
ATOM      2  C   UNL d   1      26.443 -13.548  -1.535  0.00  0.00     0.016 C 
ATOM      3  C   UNL d   1      26.224 -12.535  -2.465  0.00  0.00     0.033 C 
ATOM      4  C   UNL d   1      26.642 -12.595  -3.825  0.00  0.00     0.063 C 
ATOM      5  C   UNL d   1      27.131 -13.862  -4.241  0.00  0.00     0.130 C 
ATOM      6  C   UNL d   1      27.267 -14.935  -3.311  0.00  0.00     0.052 C 
ENDROOT
BRANCH   1   7
ATOM      7  C   UNL d   1      26.893 -15.947  -1.062  0.00  0.00     0.098 A 
ATOM      8  N   UNL d   1      28.028 -16.356  -0.578  0.00  0.00    -0.170 NA
ATOM      9  N   UNL d   1      28.022 -17.473   0.209  0.00  0.00    -0.242 N 
ATOM     10  C   UNL d   1      26.940 -18.280   0.463  0.00  0.00     0.272 A 
ATOM     11  H   UNL d   1      28.914 -17.766   0.598  0.00  0.00     0.192 HD
ATOM     12  O   UNL d   1      27.030 -19.325   1.106  0.00  0.00    -0.266 OA
ATOM     13  C   UNL d   1      25.645 -17.812  -0.050  0.00  0.00     0.046 A 
ATOM     14  C   UNL d   1      24.469 -18.524   0.225  0.00  0.00     0.018 A 
ATOM     15  C   UNL d   1      25.599 -16.630  -0.781  0.00  0.00     0.011 A 
ATOM     16  C   UNL d   1      23.238 -18.025  -0.198  0.00  0.00     0.001 A 
ATOM     17  C   UNL d   1      23.180 -16.833  -0.912  0.00  0.00     0.001 A 
ATOM     18  C   UNL d   1      24.355 -16.155  -1.226  0.00  0.00     0.015 A 
ENDBRANCH   1   7
BRANCH   5  19
ATOM     19  N   UNL d   1      27.582 -14.165  -5.613  0.00  0.00    -0.113 N 
ATOM     20  O   UNL d   1      28.365 -13.393  -6.177  0.00  0.00    -0.532 OA
ATOM     21  O   UNL d   1      27.160 -15.200  -6.145  0.00  0.00    -0.532 OA
ENDBRANCH   5  19
BRANCH   4  22
ATOM     22  N   UNL d   1      26.638 -11.377  -4.495  0.00  0.00    -0.376 N 
ATOM     23  C   UNL d   1      26.931 -10.011  -4.011  0.00  0.00     0.150 C 
ATOM     24  C   UNL d   1      25.744  -9.043  -4.339  0.00  0.00     0.254 C 
ATOM     25  N   UNL d   1      25.339  -9.120  -5.847  0.00  0.00    -0.066 N 
ATOM     26  C   UNL d   1      25.157 -10.574  -6.280  0.00  0.00     0.254 C 
ATOM     27  H   UNL d   1      26.120  -8.718  -6.382  0.00  0.00     0.280 HD
ATOM     28  C   UNL d   1      26.385 -11.419  -5.944  0.00  0.00     0.150 C 
BRANCH  25  29
ATOM     29  C   UNL d   1      24.103  -8.284  -6.145  0.00  0.00     0.260 C 
BRANCH  29  30
ATOM     30  C   UNL d   1      24.437  -6.940  -6.819  0.00  0.00     0.192 C 
BRANCH  30  31
ATOM     31  O   UNL d   1      25.834  -6.826  -7.037  0.00  0.00    -0.399 OA
ATOM     32  H   UNL d   1      26.203  -6.126  -6.467  0.00  0.00     0.209 HD
ENDBRANCH  30  31
ENDBRANCH  29  30
ENDBRANCH  25  29
ENDBRANCH   4  22
TORSDOF 6
ENDMDL
MODEL 4
REMARK VINA RESULT:    -7.442      6.379      8.811
REMARK INTER + INTRA:         -10.520
REMARK INTER:                  -9.232
REMARK INTRA:                  -1.288
REMARK CONF_INDEPENDENT:        1.790
REMARK UNBOUND:                -1.288
REMARK  6 active torsions:
REMARK  status: ('A' for Active; 'I' for Inactive)
REMARK    1  A    between atoms: C_5  and  C_6 
REMARK    2  A    between atoms: C_9  and  N_10 
REMARK    3  A    between atoms: N_13  and  C_14 
REMARK    4  A    between atoms: C_14  and  C_15 
REMARK    5  A    between atoms: C_15  and  O_16 
REMARK    6  A    between atoms: C_19  and  N_20 
ROOT
ATOM      1  C   UNL d   1      29.346 -15.335  -4.638  0.00  0.00    -0.002 C 
ATOM      2  C   UNL d   1      29.674 -15.725  -3.355  0.00  0.00     0.016 C 
ATOM      3  C   UNL d   1      28.658 -16.098  -2.479  0.00  0.00     0.033 C 
ATOM      4  C   UNL d   1      27.271 -15.911  -2.739  0.00  0.00     0.063 C 
ATOM      5  C   UNL d   1      26.964 -15.494  -4.062  0.00  0.00     0.130 C 
ATOM      6  C   UNL d   1      28.004 -15.204  -4.995  0.00  0.00     0.052 C 
ENDROOT
BRANCH   1   7
ATOM      7  C   UNL d   1      30.405 -15.197  -5.672  0.00  0.00     0.098 A 
ATOM      8  N   UNL d   1      30.885 -14.010  -5.893  0.00  0.00    -0.170 NA
ATOM      9  N   UNL d   1      31.815 -13.871  -6.886  0.00  0.00    -0.242 N 
ATOM     10  C   UNL d   1      32.224 -14.853  -7.756  0.00  0.00     0.272 A 
ATOM     11  H   UNL d   1      32.198 -12.941  -7.031  0.00  0.00     0.192 HD
ATOM     12  O   UNL d   1      32.995 -14.631  -8.687  0.00  0.00    -0.266 OA
ATOM     13  C   UNL d   1      31.713 -16.206  -7.496  0.00  0.00     0.046 A 
ATOM     14  C   UNL d   1      32.136 -17.290  -8.278  0.00  0.00     0.018 A 
ATOM     15  C   UNL d   1      30.834 -16.401  -6.437  0.00  0.00     0.011 A 
ATOM     16  C   UNL d   1      31.707 -18.581  -7.969  0.00  0.00     0.001 A 
ATOM     17  C   UNL d   1      30.844 -18.788  -6.899  0.00  0.00     0.001 A 
ATOM     18  C   UNL d   1      30.388 -17.702  -6.155  0.00  0.00     0.015 A 
ENDBRANCH   1   7
BRANCH   5  19
ATOM     19  N   UNL d   1      25.595 -15.277  -4.565  0.00  0.00    -0.113 N 
ATOM     20  O   UNL d   1      24.937 -14.323  -4.137  0.00  0.00    -0.532 OA
ATOM     21  O   UNL d   1      25.160 -16.065  -5.415  0.00  0.00    -0.532 OA
ENDBRANCH   5  19
BRANCH   4  22
ATOM     22  N   UNL d   1      26.443 -16.029  -1.628  0.00  0.00    -0.376 N 
ATOM     23  C   UNL d   1      26.661 -16.708  -0.333  0.00  0.00     0.150 C 
ATOM     24  C   UNL d   1      25.503 -17.722  -0.040  0.00  0.00     0.254 C 
ATOM     25  N   UNL d   1      24.099 -17.048  -0.187  0.00  0.00    -0.066 N 
ATOM     26  C   UNL d   1      24.005 -16.288  -1.509  0.00  0.00     0.254 C 
ATOM     27  H   UNL d   1      24.015 -16.373   0.583  0.00  0.00     0.280 HD
ATOM     28  C   UNL d   1      25.163 -15.304  -1.675  0.00  0.00     0.150 C 
BRANCH  25  29
ATOM     29  C   UNL d   1      22.969 -18.057  -0.035  0.00  0.00     0.260 C 
BRANCH  29  30
ATOM     30  C   UNL d   1      22.051 -18.118  -1.270  0.00  0.00     0.192 C 
BRANCH  30  31
ATOM     31  O   UNL d   1      20.701 -17.891  -0.899  0.00  0.00    -0.399 OA
ATOM     32  H   UNL d   1      20.279 -17.284  -1.536  0.00  0.00     0.209 HD
ENDBRANCH  30  31
ENDBRANCH  29  30
ENDBRANCH  25  29
ENDBRANCH   4  22
TORSDOF 6
ENDMDL
MODEL 5
REMARK VINA RESULT:    -7.394      6.579      9.977
REMARK INTER + INTRA:         -11.528
REMARK INTER:                  -9.183
REMARK INTRA:                  -2.345
REMARK CONF_INDEPENDENT:        1.790
REMARK UNBOUND:                -2.345
REMARK  6 active torsions:
REMARK  status: ('A' for Active; 'I' for Inactive)
REMARK    1  A    between atoms: C_5  and  C_6 
REMARK    2  A    between atoms: C_9  and  N_10 
REMARK    3  A    between atoms: N_13  and  C_14 
REMARK    4  A    between atoms: C_14  and  C_15 
REMARK    5  A    between atoms: C_15  and  O_16 
REMARK    6  A    between atoms: C_19  and  N_20 
ROOT
ATOM      1  C   UNL d   1      25.571 -14.766  -2.993  0.00  0.00    -0.002 C 
ATOM      2  C   UNL d   1      25.151 -13.450  -2.969  0.00  0.00     0.016 C 
ATOM      3  C   UNL d   1      25.539 -12.597  -3.999  0.00  0.00     0.033 C 
ATOM      4  C   UNL d   1      26.517 -12.923  -4.982  0.00  0.00     0.063 C 
ATOM      5  C   UNL d   1      26.942 -14.278  -4.971  0.00  0.00     0.130 C 
ATOM      6  C   UNL d   1      26.471 -15.183  -3.974  0.00  0.00     0.052 C 
ENDROOT
BRANCH   1   7
ATOM      7  C   UNL d   1      24.961 -15.761  -2.074  0.00  0.00     0.098 A 
ATOM      8  N   UNL d   1      23.664 -15.821  -2.019  0.00  0.00    -0.170 NA
ATOM      9  N   UNL d   1      23.101 -16.692  -1.129  0.00  0.00    -0.242 N 
ATOM     10  C   UNL d   1      23.773 -17.450  -0.201  0.00  0.00     0.272 A 
ATOM     11  H   UNL d   1      22.086 -16.744  -1.114  0.00  0.00     0.192 HD
ATOM     12  O   UNL d   1      23.193 -18.142   0.634  0.00  0.00    -0.266 OA
ATOM     13  C   UNL d   1      25.240 -17.417  -0.274  0.00  0.00     0.046 A 
ATOM     14  C   UNL d   1      26.015 -18.217   0.577  0.00  0.00     0.018 A 
ATOM     15  C   UNL d   1      25.848 -16.608  -1.228  0.00  0.00     0.011 A 
ATOM     16  C   UNL d   1      27.403 -18.237   0.441  0.00  0.00     0.001 A 
ATOM     17  C   UNL d   1      28.018 -17.448  -0.524  0.00  0.00     0.001 A 
ATOM     18  C   UNL d   1      27.248 -16.617  -1.334  0.00  0.00     0.015 A 
ENDBRANCH   1   7
BRANCH   5  19
ATOM     19  N   UNL d   1      27.917 -14.847  -5.921  0.00  0.00    -0.113 N 
ATOM     20  O   UNL d   1      28.148 -14.254  -6.979  0.00  0.00    -0.532 OA
ATOM     21  O   UNL d   1      28.478 -15.905  -5.608  0.00  0.00    -0.532 OA
ENDBRANCH   5  19
BRANCH   4  22
ATOM     22  N   UNL d   1      27.007 -11.841  -5.705  0.00  0.00    -0.376 N 
ATOM     23  C   UNL d   1      26.305 -10.846  -6.543  0.00  0.00     0.150 C 
ATOM     24  C   UNL d   1      26.932 -10.792  -7.977  0.00  0.00     0.254 C 
ATOM     25  N   UNL d   1      28.484 -10.607  -7.919  0.00  0.00    -0.066 N 
ATOM     26  C   UNL d   1      29.108 -11.612  -6.953  0.00  0.00     0.254 C 
ATOM     27  H   UNL d   1      28.653  -9.659  -7.557  0.00  0.00     0.280 HD
ATOM     28  C   UNL d   1      28.445 -11.555  -5.577  0.00  0.00     0.150 C 
BRANCH  25  29
ATOM     29  C   UNL d   1      29.116 -10.686  -9.302  0.00  0.00     0.260 C 
BRANCH  29  30
ATOM     30  C   UNL d   1      29.374 -12.134  -9.759  0.00  0.00     0.192 C 
BRANCH  30  31
ATOM     31  O   UNL d   1      28.247 -12.951  -9.487  0.00  0.00    -0.399 OA
ATOM     32  H   UNL d   1      28.531 -13.771  -9.043  0.00  0.00     0.209 HD
ENDBRANCH  30  31
ENDBRANCH  29  30
ENDBRANCH  25  29
ENDBRANCH   4  22
TORSDOF 6
ENDMDL
MODEL 6
REMARK VINA RESULT:    -7.141      1.841      2.199
REMARK INTER + INTRA:         -11.024
REMARK INTER:                  -8.930
REMARK INTRA:                  -2.094
REMARK CONF_INDEPENDENT:        1.790
REMARK UNBOUND:                -2.094
REMARK  6 active torsions:
REMARK  status: ('A' for Active; 'I' for Inactive)
REMARK    1  A    between atoms: C_5  and  C_6 
REMARK    2  A    between atoms: C_9  and  N_10 
REMARK    3  A    between atoms: N_13  and  C_14 
REMARK    4  A    between atoms: C_14  and  C_15 
REMARK    5  A    between atoms: C_15  and  O_16 
REMARK    6  A    between atoms: C_19  and  N_20 
ROOT
ATOM      1  C   UNL d   1      27.701 -13.928   0.468  0.00  0.00    -0.002 C 
ATOM      2  C   UNL d   1      28.798 -14.731   0.712  0.00  0.00     0.016 C 
ATOM      3  C   UNL d   1      29.403 -14.688   1.966  0.00  0.00     0.033 C 
ATOM      4  C   UNL d   1      29.104 -13.719   2.965  0.00  0.00     0.063 C 
ATOM      5  C   UNL d   1      27.982 -12.897   2.679  0.00  0.00     0.130 C 
ATOM      6  C   UNL d   1      27.296 -13.005   1.432  0.00  0.00     0.052 C 
ENDROOT
BRANCH   1   7
ATOM      7  C   UNL d   1      26.871 -14.145  -0.745  0.00  0.00     0.098 A 
ATOM      8  N   UNL d   1      26.839 -13.198  -1.635  0.00  0.00    -0.170 NA
ATOM      9  N   UNL d   1      26.028 -13.369  -2.722  0.00  0.00    -0.242 N 
ATOM     10  C   UNL d   1      25.153 -14.409  -2.924  0.00  0.00     0.272 A 
ATOM     11  H   UNL d   1      26.032 -12.631  -3.420  0.00  0.00     0.192 HD
ATOM     12  O   UNL d   1      24.383 -14.449  -3.883  0.00  0.00    -0.266 OA
ATOM     13  C   UNL d   1      25.202 -15.501  -1.943  0.00  0.00     0.046 A 
ATOM     14  C   UNL d   1      24.406 -16.643  -2.106  0.00  0.00     0.018 A 
ATOM     15  C   UNL d   1      26.082 -15.402  -0.870  0.00  0.00     0.011 A 
ATOM     16  C   UNL d   1      24.523 -17.707  -1.212  0.00  0.00     0.001 A 
ATOM     17  C   UNL d   1      25.415 -17.625  -0.148  0.00  0.00     0.001 A 
ATOM     18  C   UNL d   1      26.168 -16.469   0.038  0.00  0.00     0.015 A 
ENDBRANCH   1   7
BRANCH   5  19
ATOM     19  N   UNL d   1      27.467 -11.853   3.586  0.00  0.00    -0.113 N 
ATOM     20  O   UNL d   1      27.859 -11.824   4.757  0.00  0.00    -0.532 OA
ATOM     21  O   UNL d   1      26.662 -11.033   3.126  0.00  0.00    -0.532 OA
ENDBRANCH   5  19
BRANCH   4  22
ATOM     22  N   UNL d   1      30.033 -13.631   3.995  0.00  0.00    -0.376 N 
ATOM     23  C   UNL d   1      29.991 -14.156   5.377  0.00  0.00     0.150 C 
ATOM     24  C   UNL d   1      30.246 -13.007   6.411  0.00  0.00     0.254 C 
ATOM     25  N   UNL d   1      31.541 -12.200   6.066  0.00  0.00    -0.066 N 
ATOM     26  C   UNL d   1      31.540 -11.789   4.595  0.00  0.00     0.254 C 
ATOM     27  H   UNL d   1      32.334 -12.835   6.226  0.00  0.00     0.280 HD
ATOM     28  C   UNL d   1      31.319 -12.990   3.675  0.00  0.00     0.150 C 
BRANCH  25  29
ATOM     29  C   UNL d   1      31.724 -11.002   6.987  0.00  0.00     0.260 C 
BRANCH  29  30
ATOM     30  C   UNL d   1      33.052 -11.042   7.765  0.00  0.00     0.192 C 
BRANCH  30  31
ATOM     31  O   UNL d   1      33.976 -11.910   7.129  0.00  0.00    -0.399 OA
ATOM     32  H   UNL d   1      33.586 -12.799   7.036  0.00  0.00     0.209 HD
ENDBRANCH  30  31
ENDBRANCH  29  30
ENDBRANCH  25  29
ENDBRANCH   4  22
TORSDOF 6
ENDMDL
MODEL 7
REMARK VINA RESULT:    -7.021      5.943      8.312
REMARK INTER + INTRA:         -10.572
REMARK INTER:                  -8.811
REMARK INTRA:                  -1.761
REMARK CONF_INDEPENDENT:        1.790
REMARK UNBOUND:                -1.761
REMARK  6 active torsions:
REMARK  status: ('A' for Active; 'I' for Inactive)
REMARK    1  A    between atoms: C_5  and  C_6 
REMARK    2  A    between atoms: C_9  and  N_10 
REMARK    3  A    between atoms: N_13  and  C_14 
REMARK    4  A    between atoms: C_14  and  C_15 
REMARK    5  A    between atoms: C_15  and  O_16 
REMARK    6  A    between atoms: C_19  and  N_20 
ROOT
ATOM      1  C   UNL d   1      26.292 -11.674  -3.687  0.00  0.00    -0.002 C 
ATOM      2  C   UNL d   1      26.888 -11.725  -2.442  0.00  0.00     0.016 C 
ATOM      3  C   UNL d   1      27.498 -12.907  -2.032  0.00  0.00     0.033 C 
ATOM      4  C   UNL d   1      27.376 -14.149  -2.717  0.00  0.00     0.063 C 
ATOM      5  C   UNL d   1      26.743 -14.068  -3.986  0.00  0.00     0.130 C 
ATOM      6  C   UNL d   1      26.202 -12.834  -4.455  0.00  0.00     0.052 C 
ENDROOT
BRANCH   1   7
ATOM      7  C   UNL d   1      25.879 -10.368  -4.265  0.00  0.00     0.098 A 
ATOM      8  N   UNL d   1      25.182  -9.567  -3.517  0.00  0.00    -0.170 NA
ATOM      9  N   UNL d   1      24.749  -8.393  -4.067  0.00  0.00    -0.242 N 
ATOM     10  C   UNL d   1      24.889  -8.013  -5.380  0.00  0.00     0.272 A 
ATOM     11  H   UNL d   1      24.224  -7.767  -3.462  0.00  0.00     0.192 HD
ATOM     12  O   UNL d   1      24.390  -6.982  -5.827  0.00  0.00    -0.266 OA
ATOM     13  C   UNL d   1      25.703  -8.894  -6.229  0.00  0.00     0.046 A 
ATOM     14  C   UNL d   1      25.972  -8.552  -7.561  0.00  0.00     0.018 A 
ATOM     15  C   UNL d   1      26.236 -10.054  -5.677  0.00  0.00     0.011 A 
ATOM     16  C   UNL d   1      26.813  -9.356  -8.330  0.00  0.00     0.001 A 
ATOM     17  C   UNL d   1      27.367 -10.507  -7.781  0.00  0.00     0.001 A 
ATOM     18  C   UNL d   1      27.057 -10.869  -6.472  0.00  0.00     0.015 A 
ENDBRANCH   1   7
BRANCH   5  19
ATOM     19  N   UNL d   1      26.544 -15.220  -4.887  0.00  0.00    -0.113 N 
ATOM     20  O   UNL d   1      25.532 -15.918  -4.761  0.00  0.00    -0.532 OA
ATOM     21  O   UNL d   1      27.405 -15.435  -5.749  0.00  0.00    -0.532 OA
ENDBRANCH   5  19
BRANCH   4  22
ATOM     22  N   UNL d   1      27.765 -15.265  -1.985  0.00  0.00    -0.376 N 
ATOM     23  C   UNL d   1      27.470 -15.652  -0.589  0.00  0.00     0.150 C 
ATOM     24  C   UNL d   1      28.795 -15.930   0.198  0.00  0.00     0.254 C 
ATOM     25  N   UNL d   1      29.719 -16.934  -0.567  0.00  0.00    -0.066 N 
ATOM     26  C   UNL d   1      29.883 -16.505  -2.024  0.00  0.00     0.254 C 
ATOM     27  H   UNL d   1      29.243 -17.845  -0.548  0.00  0.00     0.280 HD
ATOM     28  C   UNL d   1      28.531 -16.296  -2.705  0.00  0.00     0.150 C 
BRANCH  25  29
ATOM     29  C   UNL d   1      31.064 -17.106   0.125  0.00  0.00     0.260 C 
BRANCH  29  30
ATOM     30  C   UNL d   1      31.765 -18.425  -0.250  0.00  0.00     0.192 C 
BRANCH  30  31
ATOM     31  O   UNL d   1      30.809 -19.427  -0.561  0.00  0.00    -0.399 OA
ATOM     32  H   UNL d   1      30.071 -19.390   0.075  0.00  0.00     0.209 HD
ENDBRANCH  30  31
ENDBRANCH  29  30
ENDBRANCH  25  29
ENDBRANCH   4  22
TORSDOF 6
ENDMDL
MODEL 8
REMARK VINA RESULT:    -6.785      1.902      2.505
REMARK INTER + INTRA:         -10.436
REMARK INTER:                  -8.575
REMARK INTRA:                  -1.861
REMARK CONF_INDEPENDENT:        1.790
REMARK UNBOUND:                -1.861
REMARK  6 active torsions:
REMARK  status: ('A' for Active; 'I' for Inactive)
REMARK    1  A    between atoms: C_5  and  C_6 
REMARK    2  A    between atoms: C_9  and  N_10 
REMARK    3  A    between atoms: N_13  and  C_14 
REMARK    4  A    between atoms: C_14  and  C_15 
REMARK    5  A    between atoms: C_15  and  O_16 
REMARK    6  A    between atoms: C_19  and  N_20 
ROOT
ATOM      1  C   UNL d   1      27.544 -12.416   0.465  0.00  0.00    -0.002 C 
ATOM      2  C   UNL d   1      27.753 -13.717   0.880  0.00  0.00     0.016 C 
ATOM      3  C   UNL d   1      27.643 -14.020   2.235  0.00  0.00     0.033 C 
ATOM      4  C   UNL d   1      27.532 -13.045   3.266  0.00  0.00     0.063 C 
ATOM      5  C   UNL d   1      27.335 -11.715   2.809  0.00  0.00     0.130 C 
ATOM      6  C   UNL d   1      27.349 -11.413   1.414  0.00  0.00     0.052 C 
ENDROOT
BRANCH   1   7
ATOM      7  C   UNL d   1      27.382 -12.111  -0.981  0.00  0.00     0.098 A 
ATOM      8  N   UNL d   1      27.858 -10.984  -1.419  0.00  0.00    -0.170 NA
ATOM      9  N   UNL d   1      27.656 -10.673  -2.735  0.00  0.00    -0.242 N 
ATOM     10  C   UNL d   1      26.901 -11.392  -3.631  0.00  0.00     0.272 A 
ATOM     11  H   UNL d   1      28.053  -9.799  -3.068  0.00  0.00     0.192 HD
ATOM     12  O   UNL d   1      26.685 -11.001  -4.776  0.00  0.00    -0.266 OA
ATOM     13  C   UNL d   1      26.385 -12.683  -3.157  0.00  0.00     0.046 A 
ATOM     14  C   UNL d   1      25.673 -13.527  -4.021  0.00  0.00     0.018 A 
ATOM     15  C   UNL d   1      26.649 -13.074  -1.849  0.00  0.00     0.011 A 
ATOM     16  C   UNL d   1      25.261 -14.785  -3.582  0.00  0.00     0.001 A 
ATOM     17  C   UNL d   1      25.537 -15.192  -2.282  0.00  0.00     0.001 A 
ATOM     18  C   UNL d   1      26.202 -14.331  -1.412  0.00  0.00     0.015 A 
ENDBRANCH   1   7
BRANCH   5  19
ATOM     19  N   UNL d   1      27.155 -10.552   3.698  0.00  0.00    -0.113 N 
ATOM     20  O   UNL d   1      27.996 -10.325   4.574  0.00  0.00    -0.532 OA
ATOM     21  O   UNL d   1      26.163  -9.835   3.518  0.00  0.00    -0.532 OA
ENDBRANCH   5  19
BRANCH   4  22
ATOM     22  N   UNL d   1      27.773 -13.519   4.551  0.00  0.00    -0.376 N 
ATOM     23  C   UNL d   1      27.403 -12.959   5.869  0.00  0.00     0.150 C 
ATOM     24  C   UNL d   1      28.669 -12.810   6.779  0.00  0.00     0.254 C 
ATOM     25  N   UNL d   1      29.487 -14.141   6.850  0.00  0.00    -0.066 N 
ATOM     26  C   UNL d   1      29.732 -14.695   5.447  0.00  0.00     0.254 C 
ATOM     27  H   UNL d   1      28.908 -14.814   7.368  0.00  0.00     0.280 HD
ATOM     28  C   UNL d   1      28.429 -14.832   4.661  0.00  0.00     0.150 C 
BRANCH  25  29
ATOM     29  C   UNL d   1      30.787 -13.967   7.623  0.00  0.00     0.260 C 
BRANCH  29  30
ATOM     30  C   UNL d   1      30.686 -14.453   9.081  0.00  0.00     0.192 C 
BRANCH  30  31
ATOM     31  O   UNL d   1      29.488 -15.187   9.279  0.00  0.00    -0.399 OA
ATOM     32  H   UNL d   1      29.696 -16.075   9.625  0.00  0.00     0.209 HD
ENDBRANCH  30  31
ENDBRANCH  29  30
ENDBRANCH  25  29
ENDBRANCH   4  22
TORSDOF 6
ENDMDL
MODEL 9
REMARK VINA RESULT:    -6.753      2.182      3.204
REMARK INTER + INTRA:         -10.744
REMARK INTER:                  -8.543
REMARK INTRA:                  -2.201
REMARK CONF_INDEPENDENT:        1.790
REMARK UNBOUND:                -2.201
REMARK  6 active torsions:
REMARK  status: ('A' for Active; 'I' for Inactive)
REMARK    1  A    between atoms: C_5  and  C_6 
REMARK    2  A    between atoms: C_9  and  N_10 
REMARK    3  A    between atoms: N_13  and  C_14 
REMARK    4  A    between atoms: C_14  and  C_15 
REMARK    5  A    between atoms: C_15  and  O_16 
REMARK    6  A    between atoms: C_19  and  N_20 
ROOT
ATOM      1  C   UNL d   1      27.298 -13.812   0.105  0.00  0.00    -0.002 C 
ATOM      2  C   UNL d   1      28.302 -14.733   0.338  0.00  0.00     0.016 C 
ATOM      3  C   UNL d   1      28.889 -14.789   1.600  0.00  0.00     0.033 C 
ATOM      4  C   UNL d   1      28.678 -13.822   2.623  0.00  0.00     0.063 C 
ATOM      5  C   UNL d   1      27.653 -12.879   2.348  0.00  0.00     0.130 C 
ATOM      6  C   UNL d   1      26.978 -12.879   1.091  0.00  0.00     0.052 C 
ENDROOT
BRANCH   1   7
ATOM      7  C   UNL d   1      26.469 -13.907  -1.124  0.00  0.00     0.098 A 
ATOM      8  N   UNL d   1      25.747 -14.974  -1.288  0.00  0.00    -0.170 NA
ATOM      9  N   UNL d   1      25.031 -15.091  -2.447  0.00  0.00    -0.242 N 
ATOM     10  C   UNL d   1      25.077 -14.231  -3.518  0.00  0.00     0.272 A 
ATOM     11  H   UNL d   1      24.454 -15.921  -2.551  0.00  0.00     0.192 HD
ATOM     12  O   UNL d   1      24.477 -14.450  -4.569  0.00  0.00    -0.266 OA
ATOM     13  C   UNL d   1      25.864 -13.004  -3.333  0.00  0.00     0.046 A 
ATOM     14  C   UNL d   1      25.907 -12.026  -4.337  0.00  0.00     0.018 A 
ATOM     15  C   UNL d   1      26.534 -12.810  -2.130  0.00  0.00     0.011 A 
ATOM     16  C   UNL d   1      26.591 -10.831  -4.115  0.00  0.00     0.001 A 
ATOM     17  C   UNL d   1      27.246 -10.619  -2.907  0.00  0.00     0.001 A 
ATOM     18  C   UNL d   1      27.242 -11.613  -1.932  0.00  0.00     0.015 A 
ENDBRANCH   1   7
BRANCH   5  19
ATOM     19  N   UNL d   1      27.237 -11.813   3.280  0.00  0.00    -0.113 N 
ATOM     20  O   UNL d   1      27.661 -11.824   4.440  0.00  0.00    -0.532 OA
ATOM     21  O   UNL d   1      26.479 -10.933   2.850  0.00  0.00    -0.532 OA
ENDBRANCH   5  19
BRANCH   4  22
ATOM     22  N   UNL d   1      29.596 -13.861   3.667  0.00  0.00    -0.376 N 
ATOM     23  C   UNL d   1      29.741 -14.816   4.786  0.00  0.00     0.150 C 
ATOM     24  C   UNL d   1      29.741 -14.062   6.159  0.00  0.00     0.254 C 
ATOM     25  N   UNL d   1      30.779 -12.891   6.171  0.00  0.00    -0.066 N 
ATOM     26  C   UNL d   1      30.617 -12.019   4.927  0.00  0.00     0.254 C 
ATOM     27  H   UNL d   1      31.711 -13.325   6.145  0.00  0.00     0.280 HD
ATOM     28  C   UNL d   1      30.667 -12.852   3.646  0.00  0.00     0.150 C 
BRANCH  25  29
ATOM     29  C   UNL d   1      30.692 -12.071   7.451  0.00  0.00     0.260 C 
BRANCH  29  30
ATOM     30  C   UNL d   1      32.074 -11.674   8.002  0.00  0.00     0.192 C 
BRANCH  30  31
ATOM     31  O   UNL d   1      33.092 -11.986   7.065  0.00  0.00    -0.399 OA
ATOM     32  H   UNL d   1      33.109 -12.947   6.900  0.00  0.00     0.209 HD
ENDBRANCH  30  31
ENDBRANCH  29  30
ENDBRANCH  25  29
ENDBRANCH   4  22
TORSDOF 6
ENDMDL
