MODEL 1
REMARK VINA RESULT:   -31.536      0.000      0.000
REMARK INTER + INTRA:         -33.097
REMARK INTER:                 -32.730
REMARK INTRA:                  -0.367
REMARK CONF_INDEPENDENT:        1.193
REMARK UNBOUND:                -0.367
REMARK  4 active torsions:
REMARK  status: ('A' for Active; 'I' for Inactive)
REMARK    1  A    between atoms: C_5  and  C_6 
REMARK       I    between atoms: C_6  and  N_7 
REMARK    2  A    between atoms: C_10  and  N_11 
REMARK       I    between atoms: N_11  and  C_12 
REMARK    3  A    between atoms: C_12  and  C_14 
REMARK    4  A    between atoms: C_15  and  C_16 
ROOT
ATOM      1  C   UNL d   1      27.414 -17.467  -0.691  0.00  0.00     0.050 C 
ATOM      2  C   UNL d   1      26.816 -16.365  -1.496  0.00  0.00    -0.035 A 
ATOM      3  C   UNL d   1      27.750 -15.365  -1.800  0.00  0.00     0.010 A 
ATOM      4  C   UNL d   1      27.402 -14.249  -2.523  0.00  0.00     0.017 A 
ATOM      5  C   UNL d   1      26.092 -14.101  -2.967  0.00  0.00     0.034 A 
ATOM      6  C   UNL d   1      25.130 -15.118  -2.674  0.00  0.00     0.047 A 
ATOM      7  C   UNL d   1      25.469 -16.282  -1.923  0.00  0.00     0.042 A 
ENDROOT
BRANCH   7   8
ATOM      8  N   UNL d   1      24.441 -17.281  -1.641  0.00  0.00    -0.323 N 
ATOM      9  C   UNL d   1      24.249 -17.990  -0.460  0.00  0.00     0.245 C 
ATOM     10  O   UNL d   1      24.918 -17.934   0.567  0.00  0.00    -0.268 OA
ATOM     11  H   UNL d   1      23.795 -17.465  -2.399  0.00  0.00     0.169 HD
BRANCH   9  12
ATOM     12  C   UNL d   1      23.147 -18.965  -0.346  0.00  0.00     0.076 C 
ATOM     13  C   UNL d   1      21.924 -18.405  -0.167  0.00  0.00     0.037 C 
BRANCH  13  14
ATOM     14  C   UNL d   1      20.701 -19.152   0.033  0.00  0.00     0.056 A 
ATOM     15  C   UNL d   1      20.408 -19.633   1.295  0.00  0.00     0.031 A 
ATOM     16  C   UNL d   1      19.285 -20.423   1.449  0.00  0.00     0.004 A 
ATOM     17  C   UNL d   1      18.469 -20.662   0.350  0.00  0.00     0.019 A 
ATOM     18  C   UNL d   1      18.800 -20.075  -0.863  0.00  0.00     0.117 A 
ATOM     19  N   UNL d   1      19.901 -19.316  -1.044  0.00  0.00    -0.261 NA
ENDBRANCH  13  14
ENDBRANCH   9  12
ENDBRANCH   7   8
BRANCH   5  20
ATOM     20  C   UNL d   1      25.722 -12.867  -3.737  0.00  0.00     0.249 C 
ATOM     21  N   UNL d   1      24.780 -12.970  -4.737  0.00  0.00    -0.366 N 
ATOM     22  H   UNL d   1      24.301 -13.811  -5.020  0.00  0.00     0.159 HD
ATOM     23  H   UNL d   1      24.545 -12.132  -5.254  0.00  0.00     0.159 HD
ATOM     24  O   UNL d   1      26.239 -11.784  -3.495  0.00  0.00    -0.268 OA
ENDBRANCH   5  20
TORSDOF 4
ENDMDL
MODEL 2
REMARK VINA RESULT:   -31.415      1.543      1.547
REMARK INTER + INTRA:         -33.057
REMARK INTER:                 -32.608
REMARK INTRA:                  -0.449
REMARK CONF_INDEPENDENT:        1.193
REMARK UNBOUND:                -0.449
REMARK  4 active torsions:
REMARK  status: ('A' for Active; 'I' for Inactive)
REMARK    1  A    between atoms: C_5  and  C_6 
REMARK       I    between atoms: C_6  and  N_7 
REMARK    2  A    between atoms: C_10  and  N_11 
REMARK       I    between atoms: N_11  and  C_12 
REMARK    3  A    between atoms: C_12  and  C_14 
REMARK    4  A    between atoms: C_15  and  C_16 
ROOT
ATOM      1  C   UNL d   1      27.871 -17.129   0.243  0.00  0.00     0.050 C 
ATOM      2  C   UNL d   1      27.358 -16.585  -1.046  0.00  0.00    -0.035 A 
ATOM      3  C   UNL d   1      28.363 -15.954  -1.791  0.00  0.00     0.010 A 
ATOM      4  C   UNL d   1      28.099 -15.370  -3.007  0.00  0.00     0.017 A 
ATOM      5  C   UNL d   1      26.806 -15.403  -3.518  0.00  0.00     0.034 A 
ATOM      6  C   UNL d   1      25.772 -16.055  -2.774  0.00  0.00     0.047 A 
ATOM      7  C   UNL d   1      26.023 -16.663  -1.510  0.00  0.00     0.042 A 
ENDROOT
BRANCH   7   8
ATOM      8  N   UNL d   1      24.924 -17.301  -0.789  0.00  0.00    -0.323 N 
ATOM      9  C   UNL d   1      23.597 -16.889  -0.728  0.00  0.00     0.245 C 
ATOM     10  O   UNL d   1      23.093 -15.899  -1.249  0.00  0.00    -0.268 OA
ATOM     11  H   UNL d   1      25.168 -18.144  -0.282  0.00  0.00     0.169 HD
BRANCH   9  12
ATOM     12  C   UNL d   1      22.610 -17.664   0.048  0.00  0.00     0.076 C 
ATOM     13  C   UNL d   1      21.692 -18.315  -0.708  0.00  0.00     0.037 C 
BRANCH  13  14
ATOM     14  C   UNL d   1      20.589 -19.088  -0.177  0.00  0.00     0.056 A 
ATOM     15  C   UNL d   1      20.644 -19.520   1.135  0.00  0.00     0.031 A 
ATOM     16  C   UNL d   1      19.628 -20.335   1.597  0.00  0.00     0.004 A 
ATOM     17  C   UNL d   1      18.572 -20.647   0.750  0.00  0.00     0.019 A 
ATOM     18  C   UNL d   1      18.562 -20.106  -0.527  0.00  0.00     0.117 A 
ATOM     19  N   UNL d   1      19.551 -19.324  -1.010  0.00  0.00    -0.261 NA
ENDBRANCH  13  14
ENDBRANCH   9  12
ENDBRANCH   7   8
BRANCH   5  20
ATOM     20  C   UNL d   1      26.530 -14.743  -4.837  0.00  0.00     0.249 C 
ATOM     21  N   UNL d   1      25.769 -13.595  -4.855  0.00  0.00    -0.366 N 
ATOM     22  H   UNL d   1      25.360 -13.139  -4.054  0.00  0.00     0.159 HD
ATOM     23  H   UNL d   1      25.582 -13.164  -5.752  0.00  0.00     0.159 HD
ATOM     24  O   UNL d   1      26.962 -15.205  -5.886  0.00  0.00    -0.268 OA
ENDBRANCH   5  20
TORSDOF 4
ENDMDL
MODEL 3
REMARK VINA RESULT:   -30.927      1.916      2.732
REMARK INTER + INTRA:         -32.570
REMARK INTER:                 -32.120
REMARK INTRA:                  -0.450
REMARK CONF_INDEPENDENT:        1.193
REMARK UNBOUND:                -0.450
REMARK  4 active torsions:
REMARK  status: ('A' for Active; 'I' for Inactive)
REMARK    1  A    between atoms: C_5  and  C_6 
REMARK       I    between atoms: C_6  and  N_7 
REMARK    2  A    between atoms: C_10  and  N_11 
REMARK       I    between atoms: N_11  and  C_12 
REMARK    3  A    between atoms: C_12  and  C_14 
REMARK    4  A    between atoms: C_15  and  C_16 
ROOT
ATOM      1  C   UNL d   1      25.550 -15.577  -4.368  0.00  0.00     0.050 C 
ATOM      2  C   UNL d   1      26.051 -15.383  -2.979  0.00  0.00    -0.035 A 
ATOM      3  C   UNL d   1      27.158 -14.525  -2.931  0.00  0.00     0.010 A 
ATOM      4  C   UNL d   1      27.786 -14.223  -1.746  0.00  0.00     0.017 A 
ATOM      5  C   UNL d   1      27.315 -14.778  -0.560  0.00  0.00     0.034 A 
ATOM      6  C   UNL d   1      26.178 -15.645  -0.591  0.00  0.00     0.047 A 
ATOM      7  C   UNL d   1      25.515 -15.975  -1.809  0.00  0.00     0.042 A 
ENDROOT
BRANCH   7   8
ATOM      8  N   UNL d   1      24.368 -16.878  -1.782  0.00  0.00    -0.323 N 
ATOM      9  C   UNL d   1      24.120 -17.907  -0.879  0.00  0.00     0.245 C 
ATOM     10  O   UNL d   1      24.826 -18.273   0.056  0.00  0.00    -0.268 OA
ATOM     11  H   UNL d   1      23.676 -16.724  -2.505  0.00  0.00     0.169 HD
BRANCH   9  12
ATOM     12  C   UNL d   1      22.896 -18.724  -0.995  0.00  0.00     0.076 C 
ATOM     13  C   UNL d   1      21.959 -18.461  -0.052  0.00  0.00     0.037 C 
BRANCH  13  14
ATOM     14  C   UNL d   1      20.704 -19.170   0.080  0.00  0.00     0.056 A 
ATOM     15  C   UNL d   1      20.385 -19.746   1.296  0.00  0.00     0.031 A 
ATOM     16  C   UNL d   1      19.229 -20.499   1.379  0.00  0.00     0.004 A 
ATOM     17  C   UNL d   1      18.411 -20.609   0.261  0.00  0.00     0.019 A 
ATOM     18  C   UNL d   1      18.773 -19.934  -0.896  0.00  0.00     0.117 A 
ATOM     19  N   UNL d   1      19.905 -19.209  -1.009  0.00  0.00    -0.261 NA
ENDBRANCH  13  14
ENDBRANCH   9  12
ENDBRANCH   7   8
BRANCH   5  20
ATOM     20  C   UNL d   1      28.023 -14.455   0.723  0.00  0.00     0.249 C 
ATOM     21  N   UNL d   1      28.822 -15.418   1.298  0.00  0.00    -0.366 N 
ATOM     22  H   UNL d   1      28.984 -16.348   0.941  0.00  0.00     0.159 HD
ATOM     23  H   UNL d   1      29.288 -15.191   2.167  0.00  0.00     0.159 HD
ATOM     24  O   UNL d   1      27.901 -13.362   1.263  0.00  0.00    -0.268 OA
ENDBRANCH   5  20
TORSDOF 4
ENDMDL
