MODEL 1
REMARK VINA RESULT:    -6.514      0.000      0.000
REMARK INTER + INTRA:         -12.149
REMARK INTER:                  -8.602
REMARK INTRA:                  -3.547
REMARK CONF_INDEPENDENT:        2.088
REMARK UNBOUND:                -3.547
REMARK  7 active torsions:
REMARK  status: ('A' for Active; 'I' for Inactive)
REMARK    1  A    between atoms: C_4  and  O_5 
REMARK    2  A    between atoms: O_5  and  C_6 
REMARK    3  A    between atoms: C_6  and  C_7 
REMARK       I    between atoms: C_7  and  N_9 
REMARK    4  A    between atoms: N_9  and  N_10 
REMARK    5  A    between atoms: N_10  and  S_11 
REMARK    6  A    between atoms: S_11  and  C_14 
REMARK    7  A    between atoms: C_19  and  N_20 
ROOT
ATOM      1  C   UNL d   1      25.957 -12.577  -3.938  0.00  0.00     0.260 C 
ATOM      2  O   UNL d   1      25.906 -11.350  -3.865  0.00  0.00    -0.269 OA
ATOM      3  N   UNL d   1      27.113 -13.236  -4.312  0.00  0.00    -0.259 N 
ATOM      4  H   UNL d   1      27.180 -14.245  -4.446  0.00  0.00     0.190 HD
ENDROOT
BRANCH   3   5
ATOM      5  N   UNL d   1      28.346 -12.448  -4.587  0.00  0.00    -0.220 N 
ATOM      6  H   UNL d   1      29.107 -12.647  -3.930  0.00  0.00     0.200 HD
BRANCH   5   7
ATOM      7  S   UNL d   1      28.718 -12.316  -6.235  0.00  0.00     0.278 S 
ATOM      8  O   UNL d   1      27.460 -12.571  -6.891  0.00  0.00    -0.199 OA
ATOM      9  O   UNL d   1      29.440 -11.059  -6.346  0.00  0.00    -0.199 OA
BRANCH   7  10
ATOM     10  C   UNL d   1      29.848 -13.597  -6.696  0.00  0.00     0.114 A 
ATOM     11  C   UNL d   1      31.019 -13.294  -7.415  0.00  0.00     0.028 A 
ATOM     12  C   UNL d   1      31.837 -14.322  -7.906  0.00  0.00     0.002 A 
ATOM     13  C   UNL d   1      31.538 -15.653  -7.631  0.00  0.00     0.003 A 
ATOM     14  C   UNL d   1      30.396 -15.964  -6.896  0.00  0.00     0.038 A 
ATOM     15  C   UNL d   1      29.538 -14.947  -6.426  0.00  0.00     0.126 A 
BRANCH  15  16
ATOM     16  N   UNL d   1      28.362 -15.397  -5.643  0.00  0.00    -0.114 N 
ATOM     17  O   UNL d   1      27.245 -15.211  -6.145  0.00  0.00    -0.532 OA
ATOM     18  O   UNL d   1      28.520 -15.950  -4.555  0.00  0.00    -0.532 OA
ENDBRANCH  15  16
ENDBRANCH   7  10
ENDBRANCH   5   7
ENDBRANCH   3   5
BRANCH   1  19
ATOM     19  C   UNL d   1      24.781 -13.509  -3.620  0.00  0.00     0.280 C 
BRANCH  19  20
ATOM     20  O   UNL d   1      25.154 -14.870  -3.840  0.00  0.00    -0.342 OA
BRANCH  20  21
ATOM     21  C   UNL d   1      25.395 -15.650  -2.743  0.00  0.00     0.070 A 
ATOM     22  C   UNL d   1      24.423 -16.334  -2.020  0.00  0.00     0.045 A 
ATOM     23  C   UNL d   1      24.767 -17.127  -0.913  0.00  0.00    -0.037 A 
ATOM     24  C   UNL d   1      23.675 -17.859  -0.185  0.00  0.00     0.050 C 
ATOM     25  C   UNL d   1      26.115 -17.221  -0.523  0.00  0.00     0.046 A 
ATOM     26  C   UNL d   1      27.111 -16.529  -1.234  0.00  0.00    -0.037 A 
ATOM     27 CL   UNL d   1      26.546 -18.200   0.844  0.00  0.00    -0.083 Cl
ATOM     28  C   UNL d   1      26.734 -15.750  -2.344  0.00  0.00     0.045 A 
ATOM     29  C   UNL d   1      28.558 -16.604  -0.827  0.00  0.00     0.050 C 
ENDBRANCH  20  21
ENDBRANCH  19  20
ENDBRANCH   1  19
TORSDOF 7
ENDMDL
MODEL 2
REMARK VINA RESULT:    -6.480      3.333      6.964
REMARK INTER + INTRA:         -11.812
REMARK INTER:                  -8.568
REMARK INTRA:                  -3.244
REMARK CONF_INDEPENDENT:        2.088
REMARK UNBOUND:                -3.244
REMARK  7 active torsions:
REMARK  status: ('A' for Active; 'I' for Inactive)
REMARK    1  A    between atoms: C_4  and  O_5 
REMARK    2  A    between atoms: O_5  and  C_6 
REMARK    3  A    between atoms: C_6  and  C_7 
REMARK       I    between atoms: C_7  and  N_9 
REMARK    4  A    between atoms: N_9  and  N_10 
REMARK    5  A    between atoms: N_10  and  S_11 
REMARK    6  A    between atoms: S_11  and  C_14 
REMARK    7  A    between atoms: C_19  and  N_20 
ROOT
ATOM      1  C   UNL d   1      28.209 -15.195  -5.427  0.00  0.00     0.260 C 
ATOM      2  O   UNL d   1      27.636 -15.200  -6.515  0.00  0.00    -0.269 OA
ATOM      3  N   UNL d   1      27.508 -15.174  -4.235  0.00  0.00    -0.259 N 
ATOM      4  H   UNL d   1      27.943 -15.105  -3.314  0.00  0.00     0.190 HD
ENDROOT
BRANCH   3   5
ATOM      5  N   UNL d   1      26.020 -15.210  -4.263  0.00  0.00    -0.220 N 
ATOM      6  H   UNL d   1      25.645 -16.026  -4.757  0.00  0.00     0.200 HD
BRANCH   5   7
ATOM      7  S   UNL d   1      25.298 -14.753  -2.799  0.00  0.00     0.278 S 
ATOM      8  O   UNL d   1      26.213 -13.780  -2.257  0.00  0.00    -0.199 OA
ATOM      9  O   UNL d   1      23.921 -14.451  -3.151  0.00  0.00    -0.199 OA
BRANCH   7  10
ATOM     10  C   UNL d   1      25.253 -16.138  -1.699  0.00  0.00     0.114 A 
ATOM     11  C   UNL d   1      24.023 -16.669  -1.268  0.00  0.00     0.028 A 
ATOM     12  C   UNL d   1      23.987 -17.668  -0.284  0.00  0.00     0.002 A 
ATOM     13  C   UNL d   1      25.168 -18.195   0.229  0.00  0.00     0.003 A 
ATOM     14  C   UNL d   1      26.392 -17.697  -0.210  0.00  0.00     0.038 A 
ATOM     15  C   UNL d   1      26.451 -16.664  -1.171  0.00  0.00     0.126 A 
BRANCH  15  16
ATOM     16  N   UNL d   1      27.809 -16.225  -1.573  0.00  0.00    -0.114 N 
ATOM     17  O   UNL d   1      28.447 -16.979  -2.321  0.00  0.00    -0.532 OA
ATOM     18  O   UNL d   1      28.248 -15.144  -1.184  0.00  0.00    -0.532 OA
ENDBRANCH  15  16
ENDBRANCH   7  10
ENDBRANCH   5   7
ENDBRANCH   3   5
BRANCH   1  19
ATOM     19  C   UNL d   1      29.733 -15.221  -5.254  0.00  0.00     0.280 C 
BRANCH  19  20
ATOM     20  O   UNL d   1      30.116 -16.300  -4.401  0.00  0.00    -0.342 OA
BRANCH  20  21
ATOM     21  C   UNL d   1      30.440 -17.492  -4.986  0.00  0.00     0.070 A 
ATOM     22  C   UNL d   1      30.442 -18.725  -4.342  0.00  0.00     0.045 A 
ATOM     23  C   UNL d   1      30.773 -19.903  -5.032  0.00  0.00    -0.037 A 
ATOM     24  C   UNL d   1      30.738 -21.207  -4.286  0.00  0.00     0.050 C 
ATOM     25  C   UNL d   1      31.121 -19.832  -6.392  0.00  0.00     0.046 A 
ATOM     26  C   UNL d   1      31.135 -18.595  -7.059  0.00  0.00    -0.037 A 
ATOM     27 CL   UNL d   1      31.531 -21.285  -7.249  0.00  0.00    -0.083 Cl
ATOM     28  C   UNL d   1      30.788 -17.434  -6.342  0.00  0.00     0.045 A 
ATOM     29  C   UNL d   1      31.515 -18.493  -8.512  0.00  0.00     0.050 C 
ENDBRANCH  20  21
ENDBRANCH  19  20
ENDBRANCH   1  19
TORSDOF 7
ENDMDL
MODEL 3
REMARK VINA RESULT:    -6.386      3.489      7.117
REMARK INTER + INTRA:         -12.322
REMARK INTER:                  -8.474
REMARK INTRA:                  -3.848
REMARK CONF_INDEPENDENT:        2.088
REMARK UNBOUND:                -3.848
REMARK  7 active torsions:
REMARK  status: ('A' for Active; 'I' for Inactive)
REMARK    1  A    between atoms: C_4  and  O_5 
REMARK    2  A    between atoms: O_5  and  C_6 
REMARK    3  A    between atoms: C_6  and  C_7 
REMARK       I    between atoms: C_7  and  N_9 
REMARK    4  A    between atoms: N_9  and  N_10 
REMARK    5  A    between atoms: N_10  and  S_11 
REMARK    6  A    between atoms: S_11  and  C_14 
REMARK    7  A    between atoms: C_19  and  N_20 
ROOT
ATOM      1  C   UNL d   1      28.509 -15.251  -5.628  0.00  0.00     0.260 C 
ATOM      2  O   UNL d   1      27.477 -14.826  -6.146  0.00  0.00    -0.269 OA
ATOM      3  N   UNL d   1      28.739 -15.140  -4.269  0.00  0.00    -0.259 N 
ATOM      4  H   UNL d   1      29.606 -15.421  -3.809  0.00  0.00     0.190 HD
ENDROOT
BRANCH   3   5
ATOM      5  N   UNL d   1      27.694 -14.537  -3.398  0.00  0.00    -0.220 N 
ATOM      6  H   UNL d   1      26.765 -14.524  -3.832  0.00  0.00     0.200 HD
BRANCH   5   7
ATOM      7  S   UNL d   1      27.817 -14.990  -1.770  0.00  0.00     0.278 S 
ATOM      8  O   UNL d   1      29.050 -15.735  -1.714  0.00  0.00    -0.199 OA
ATOM      9  O   UNL d   1      27.588 -13.760  -1.031  0.00  0.00    -0.199 OA
BRANCH   7  10
ATOM     10  C   UNL d   1      26.493 -16.089  -1.356  0.00  0.00     0.114 A 
ATOM     11  C   UNL d   1      26.560 -16.886  -0.197  0.00  0.00     0.028 A 
ATOM     12  C   UNL d   1      25.582 -17.860   0.052  0.00  0.00     0.002 A 
ATOM     13  C   UNL d   1      24.497 -18.006  -0.806  0.00  0.00     0.003 A 
ATOM     14  C   UNL d   1      24.405 -17.204  -1.942  0.00  0.00     0.038 A 
ATOM     15  C   UNL d   1      25.399 -16.244  -2.233  0.00  0.00     0.126 A 
BRANCH  15  16
ATOM     16  N   UNL d   1      25.186 -15.439  -3.460  0.00  0.00    -0.114 N 
ATOM     17  O   UNL d   1      25.530 -15.949  -4.535  0.00  0.00    -0.532 OA
ATOM     18  O   UNL d   1      24.668 -14.326  -3.385  0.00  0.00    -0.532 OA
ENDBRANCH  15  16
ENDBRANCH   7  10
ENDBRANCH   5   7
ENDBRANCH   3   5
BRANCH   1  19
ATOM     19  C   UNL d   1      29.637 -15.950  -6.398  0.00  0.00     0.280 C 
BRANCH  19  20
ATOM     20  O   UNL d   1      30.462 -16.694  -5.501  0.00  0.00    -0.342 OA
BRANCH  20  21
ATOM     21  C   UNL d   1      30.790 -17.974  -5.850  0.00  0.00     0.070 A 
ATOM     22  C   UNL d   1      30.771 -19.067  -4.989  0.00  0.00     0.045 A 
ATOM     23  C   UNL d   1      31.109 -20.352  -5.443  0.00  0.00    -0.037 A 
ATOM     24  C   UNL d   1      31.049 -21.497  -4.471  0.00  0.00     0.050 C 
ATOM     25  C   UNL d   1      31.486 -20.535  -6.785  0.00  0.00     0.046 A 
ATOM     26  C   UNL d   1      31.522 -19.441  -7.668  0.00  0.00    -0.037 A 
ATOM     27 CL   UNL d   1      31.905 -22.122  -7.351  0.00  0.00    -0.083 Cl
ATOM     28  C   UNL d   1      31.168 -18.167  -7.185  0.00  0.00     0.045 A 
ATOM     29  C   UNL d   1      31.934 -19.610  -9.106  0.00  0.00     0.050 C 
ENDBRANCH  20  21
ENDBRANCH  19  20
ENDBRANCH   1  19
TORSDOF 7
ENDMDL
MODEL 4
REMARK VINA RESULT:    -6.231      3.059      6.595
REMARK INTER + INTRA:         -12.415
REMARK INTER:                  -8.319
REMARK INTRA:                  -4.097
REMARK CONF_INDEPENDENT:        2.088
REMARK UNBOUND:                -4.097
REMARK  7 active torsions:
REMARK  status: ('A' for Active; 'I' for Inactive)
REMARK    1  A    between atoms: C_4  and  O_5 
REMARK    2  A    between atoms: O_5  and  C_6 
REMARK    3  A    between atoms: C_6  and  C_7 
REMARK       I    between atoms: C_7  and  N_9 
REMARK    4  A    between atoms: N_9  and  N_10 
REMARK    5  A    between atoms: N_10  and  S_11 
REMARK    6  A    between atoms: S_11  and  C_14 
REMARK    7  A    between atoms: C_19  and  N_20 
ROOT
ATOM      1  C   UNL d   1      28.472 -15.100  -5.720  0.00  0.00     0.260 C 
ATOM      2  O   UNL d   1      27.344 -14.858  -6.145  0.00  0.00    -0.269 OA
ATOM      3  N   UNL d   1      28.774 -15.021  -4.373  0.00  0.00    -0.259 N 
ATOM      4  H   UNL d   1      29.709 -15.152  -3.986  0.00  0.00     0.190 HD
ENDROOT
BRANCH   3   5
ATOM      5  N   UNL d   1      27.697 -14.685  -3.402  0.00  0.00    -0.220 N 
ATOM      6  H   UNL d   1      26.755 -14.777  -3.795  0.00  0.00     0.200 HD
BRANCH   5   7
ATOM      7  S   UNL d   1      27.978 -15.275  -1.838  0.00  0.00     0.278 S 
ATOM      8  O   UNL d   1      29.123 -16.136  -1.999  0.00  0.00    -0.199 OA
ATOM      9  O   UNL d   1      27.978 -14.090  -0.996  0.00  0.00    -0.199 OA
BRANCH   7  10
ATOM     10  C   UNL d   1      26.610 -16.270  -1.321  0.00  0.00     0.114 A 
ATOM     11  C   UNL d   1      26.701 -17.068  -0.166  0.00  0.00     0.028 A 
ATOM     12  C   UNL d   1      25.674 -17.966   0.160  0.00  0.00     0.002 A 
ATOM     13  C   UNL d   1      24.521 -18.029  -0.616  0.00  0.00     0.003 A 
ATOM     14  C   UNL d   1      24.406 -17.223  -1.746  0.00  0.00     0.038 A 
ATOM     15  C   UNL d   1      25.446 -16.341  -2.115  0.00  0.00     0.126 A 
BRANCH  15  16
ATOM     16  N   UNL d   1      25.205 -15.523  -3.328  0.00  0.00    -0.114 N 
ATOM     17  O   UNL d   1      24.693 -14.407  -3.163  0.00  0.00    -0.532 OA
ATOM     18  O   UNL d   1      25.530 -15.950  -4.435  0.00  0.00    -0.532 OA
ENDBRANCH  15  16
ENDBRANCH   7  10
ENDBRANCH   5   7
ENDBRANCH   3   5
BRANCH   1  19
ATOM     19  C   UNL d   1      29.655 -15.520  -6.602  0.00  0.00     0.280 C 
BRANCH  19  20
ATOM     20  O   UNL d   1      30.771 -15.888  -5.791  0.00  0.00    -0.342 OA
BRANCH  20  21
ATOM     21  C   UNL d   1      30.847 -17.184  -5.362  0.00  0.00     0.070 A 
ATOM     22  C   UNL d   1      30.979 -17.580  -4.035  0.00  0.00     0.045 A 
ATOM     23  C   UNL d   1      31.033 -18.939  -3.686  0.00  0.00    -0.037 A 
ATOM     24  C   UNL d   1      31.155 -19.305  -2.233  0.00  0.00     0.050 C 
ATOM     25  C   UNL d   1      30.965 -19.915  -4.696  0.00  0.00     0.046 A 
ATOM     26  C   UNL d   1      30.842 -19.535  -6.045  0.00  0.00    -0.037 A 
ATOM     27 CL   UNL d   1      31.031 -21.597  -4.270  0.00  0.00    -0.083 Cl
ATOM     28  C   UNL d   1      30.781 -18.165  -6.360  0.00  0.00     0.045 A 
ATOM     29  C   UNL d   1      30.780 -20.561  -7.144  0.00  0.00     0.050 C 
ENDBRANCH  20  21
ENDBRANCH  19  20
ENDBRANCH   1  19
TORSDOF 7
ENDMDL
MODEL 5
REMARK VINA RESULT:    -6.230      2.954      6.864
REMARK INTER + INTRA:         -11.924
REMARK INTER:                  -8.318
REMARK INTRA:                  -3.606
REMARK CONF_INDEPENDENT:        2.088
REMARK UNBOUND:                -3.606
REMARK  7 active torsions:
REMARK  status: ('A' for Active; 'I' for Inactive)
REMARK    1  A    between atoms: C_4  and  O_5 
REMARK    2  A    between atoms: O_5  and  C_6 
REMARK    3  A    between atoms: C_6  and  C_7 
REMARK       I    between atoms: C_7  and  N_9 
REMARK    4  A    between atoms: N_9  and  N_10 
REMARK    5  A    between atoms: N_10  and  S_11 
REMARK    6  A    between atoms: S_11  and  C_14 
REMARK    7  A    between atoms: C_19  and  N_20 
ROOT
ATOM      1  C   UNL d   1      28.590 -13.977  -6.283  0.00  0.00     0.260 C 
ATOM      2  O   UNL d   1      27.930 -13.097  -6.834  0.00  0.00    -0.269 OA
ATOM      3  N   UNL d   1      28.278 -14.435  -5.017  0.00  0.00    -0.259 N 
ATOM      4  H   UNL d   1      28.834 -15.116  -4.499  0.00  0.00     0.190 HD
ENDROOT
BRANCH   3   5
ATOM      5  N   UNL d   1      27.083 -13.888  -4.317  0.00  0.00    -0.220 N 
ATOM      6  H   UNL d   1      26.887 -12.911  -4.556  0.00  0.00     0.200 HD
BRANCH   5   7
ATOM      7  S   UNL d   1      25.785 -14.974  -4.232  0.00  0.00     0.278 S 
ATOM      8  O   UNL d   1      24.624 -14.118  -4.233  0.00  0.00    -0.199 OA
ATOM      9  O   UNL d   1      26.060 -15.953  -5.270  0.00  0.00    -0.199 OA
BRANCH   7  10
ATOM     10  C   UNL d   1      25.830 -15.837  -2.689  0.00  0.00     0.114 A 
ATOM     11  C   UNL d   1      24.637 -16.176  -2.023  0.00  0.00     0.028 A 
ATOM     12  C   UNL d   1      24.676 -16.727  -0.733  0.00  0.00     0.002 A 
ATOM     13  C   UNL d   1      25.894 -17.010  -0.124  0.00  0.00     0.003 A 
ATOM     14  C   UNL d   1      27.081 -16.706  -0.785  0.00  0.00     0.038 A 
ATOM     15  C   UNL d   1      27.066 -16.114  -2.067  0.00  0.00     0.126 A 
BRANCH  15  16
ATOM     16  N   UNL d   1      28.391 -15.849  -2.677  0.00  0.00    -0.114 N 
ATOM     17  O   UNL d   1      28.934 -14.771  -2.400  0.00  0.00    -0.532 OA
ATOM     18  O   UNL d   1      28.913 -16.691  -3.406  0.00  0.00    -0.532 OA
ENDBRANCH  15  16
ENDBRANCH   7  10
ENDBRANCH   5   7
ENDBRANCH   3   5
BRANCH   1  19
ATOM     19  C   UNL d   1      29.804 -14.669  -6.917  0.00  0.00     0.280 C 
BRANCH  19  20
ATOM     20  O   UNL d   1      30.398 -15.576  -5.987  0.00  0.00    -0.342 OA
BRANCH  20  21
ATOM     21  C   UNL d   1      30.734 -16.822  -6.438  0.00  0.00     0.070 A 
ATOM     22  C   UNL d   1      31.373 -17.091  -7.644  0.00  0.00     0.045 A 
ATOM     23  C   UNL d   1      31.694 -18.406  -8.016  0.00  0.00    -0.037 A 
ATOM     24  C   UNL d   1      32.403 -18.631  -9.322  0.00  0.00     0.050 C 
ATOM     25  C   UNL d   1      31.354 -19.469  -7.162  0.00  0.00     0.046 A 
ATOM     26  C   UNL d   1      30.698 -19.220  -5.943  0.00  0.00    -0.037 A 
ATOM     27 CL   UNL d   1      31.749 -21.097  -7.617  0.00  0.00    -0.083 Cl
ATOM     28  C   UNL d   1      30.398 -17.889  -5.594  0.00  0.00     0.045 A 
ATOM     29  C   UNL d   1      30.312 -20.342  -5.018  0.00  0.00     0.050 C 
ENDBRANCH  20  21
ENDBRANCH  19  20
ENDBRANCH   1  19
TORSDOF 7
ENDMDL
MODEL 6
REMARK VINA RESULT:    -6.166      3.139      6.690
REMARK INTER + INTRA:         -12.356
REMARK INTER:                  -8.254
REMARK INTRA:                  -4.102
REMARK CONF_INDEPENDENT:        2.088
REMARK UNBOUND:                -4.102
REMARK  7 active torsions:
REMARK  status: ('A' for Active; 'I' for Inactive)
REMARK    1  A    between atoms: C_4  and  O_5 
REMARK    2  A    between atoms: O_5  and  C_6 
REMARK    3  A    between atoms: C_6  and  C_7 
REMARK       I    between atoms: C_7  and  N_9 
REMARK    4  A    between atoms: N_9  and  N_10 
REMARK    5  A    between atoms: N_10  and  S_11 
REMARK    6  A    between atoms: S_11  and  C_14 
REMARK    7  A    between atoms: C_19  and  N_20 
ROOT
ATOM      1  C   UNL d   1      28.508 -15.176  -5.724  0.00  0.00     0.260 C 
ATOM      2  O   UNL d   1      27.405 -14.832  -6.145  0.00  0.00    -0.269 OA
ATOM      3  N   UNL d   1      28.808 -15.161  -4.374  0.00  0.00    -0.259 N 
ATOM      4  H   UNL d   1      29.728 -15.378  -3.988  0.00  0.00     0.190 HD
ENDROOT
BRANCH   3   5
ATOM      5  N   UNL d   1      27.757 -14.766  -3.397  0.00  0.00    -0.220 N 
ATOM      6  H   UNL d   1      26.809 -14.815  -3.782  0.00  0.00     0.200 HD
BRANCH   5   7
ATOM      7  S   UNL d   1      28.022 -15.360  -1.832  0.00  0.00     0.278 S 
ATOM      8  O   UNL d   1      29.144 -16.252  -1.990  0.00  0.00    -0.199 OA
ATOM      9  O   UNL d   1      28.052 -14.174  -0.992  0.00  0.00    -0.199 OA
BRANCH   7  10
ATOM     10  C   UNL d   1      26.628 -16.318  -1.313  0.00  0.00     0.114 A 
ATOM     11  C   UNL d   1      26.702 -17.126  -0.164  0.00  0.00     0.028 A 
ATOM     12  C   UNL d   1      25.651 -17.996   0.162  0.00  0.00     0.002 A 
ATOM     13  C   UNL d   1      24.492 -18.020  -0.607  0.00  0.00     0.003 A 
ATOM     14  C   UNL d   1      24.395 -17.204  -1.731  0.00  0.00     0.038 A 
ATOM     15  C   UNL d   1      25.458 -16.350  -2.101  0.00  0.00     0.126 A 
BRANCH  15  16
ATOM     16  N   UNL d   1      25.234 -15.517  -3.307  0.00  0.00    -0.114 N 
ATOM     17  O   UNL d   1      24.767 -14.383  -3.130  0.00  0.00    -0.532 OA
ATOM     18  O   UNL d   1      25.530 -15.950  -4.419  0.00  0.00    -0.532 OA
ENDBRANCH  15  16
ENDBRANCH   7  10
ENDBRANCH   5   7
ENDBRANCH   3   5
BRANCH   1  19
ATOM     19  C   UNL d   1      29.658 -15.665  -6.614  0.00  0.00     0.280 C 
BRANCH  19  20
ATOM     20  O   UNL d   1      30.762 -16.084  -5.812  0.00  0.00    -0.342 OA
BRANCH  20  21
ATOM     21  C   UNL d   1      30.881 -17.417  -5.535  0.00  0.00     0.070 A 
ATOM     22  C   UNL d   1      30.931 -18.430  -6.487  0.00  0.00     0.045 A 
ATOM     23  C   UNL d   1      31.070 -19.775  -6.107  0.00  0.00    -0.037 A 
ATOM     24  C   UNL d   1      31.140 -20.823  -7.183  0.00  0.00     0.050 C 
ATOM     25  C   UNL d   1      31.147 -20.103  -4.742  0.00  0.00     0.046 A 
ATOM     26  C   UNL d   1      31.087 -19.095  -3.764  0.00  0.00    -0.037 A 
ATOM     27 CL   UNL d   1      31.320 -21.765  -4.268  0.00  0.00    -0.083 Cl
ATOM     28  C   UNL d   1      30.957 -17.756  -4.177  0.00  0.00     0.045 A 
ATOM     29  C   UNL d   1      31.155 -19.424  -2.297  0.00  0.00     0.050 C 
ENDBRANCH  20  21
ENDBRANCH  19  20
ENDBRANCH   1  19
TORSDOF 7
ENDMDL
MODEL 7
REMARK VINA RESULT:    -5.635      1.036      2.146
REMARK INTER + INTRA:         -11.978
REMARK INTER:                  -7.723
REMARK INTRA:                  -4.255
REMARK CONF_INDEPENDENT:        2.088
REMARK UNBOUND:                -4.255
REMARK  7 active torsions:
REMARK  status: ('A' for Active; 'I' for Inactive)
REMARK    1  A    between atoms: C_4  and  O_5 
REMARK    2  A    between atoms: O_5  and  C_6 
REMARK    3  A    between atoms: C_6  and  C_7 
REMARK       I    between atoms: C_7  and  N_9 
REMARK    4  A    between atoms: N_9  and  N_10 
REMARK    5  A    between atoms: N_10  and  S_11 
REMARK    6  A    between atoms: S_11  and  C_14 
REMARK    7  A    between atoms: C_19  and  N_20 
ROOT
ATOM      1  C   UNL d   1      25.838 -12.702  -4.044  0.00  0.00     0.260 C 
ATOM      2  O   UNL d   1      25.641 -11.489  -4.100  0.00  0.00    -0.269 OA
ATOM      3  N   UNL d   1      27.074 -13.252  -4.330  0.00  0.00    -0.259 N 
ATOM      4  H   UNL d   1      27.263 -14.255  -4.357  0.00  0.00     0.190 HD
ENDROOT
BRANCH   3   5
ATOM      5  N   UNL d   1      28.212 -12.355  -4.667  0.00  0.00    -0.220 N 
ATOM      6  H   UNL d   1      27.996 -11.362  -4.537  0.00  0.00     0.200 HD
BRANCH   5   7
ATOM      7  S   UNL d   1      29.715 -12.929  -4.136  0.00  0.00     0.278 S 
ATOM      8  O   UNL d   1      30.491 -11.729  -3.942  0.00  0.00    -0.199 OA
ATOM      9  O   UNL d   1      29.393 -13.857  -3.064  0.00  0.00    -0.199 OA
BRANCH   7  10
ATOM     10  C   UNL d   1      30.480 -13.876  -5.419  0.00  0.00     0.114 A 
ATOM     11  C   UNL d   1      31.748 -13.519  -5.914  0.00  0.00     0.028 A 
ATOM     12  C   UNL d   1      32.287 -14.179  -7.029  0.00  0.00     0.002 A 
ATOM     13  C   UNL d   1      31.607 -15.240  -7.617  0.00  0.00     0.003 A 
ATOM     14  C   UNL d   1      30.363 -15.621  -7.119  0.00  0.00     0.038 A 
ATOM     15  C   UNL d   1      29.784 -14.945  -6.023  0.00  0.00     0.126 A 
BRANCH  15  16
ATOM     16  N   UNL d   1      28.465 -15.449  -5.570  0.00  0.00    -0.114 N 
ATOM     17  O   UNL d   1      27.488 -15.198  -6.291  0.00  0.00    -0.532 OA
ATOM     18  O   UNL d   1      28.377 -16.105  -4.533  0.00  0.00    -0.532 OA
ENDBRANCH  15  16
ENDBRANCH   7  10
ENDBRANCH   5   7
ENDBRANCH   3   5
BRANCH   1  19
ATOM     19  C   UNL d   1      24.772 -13.732  -3.649  0.00  0.00     0.280 C 
BRANCH  19  20
ATOM     20  O   UNL d   1      25.268 -15.057  -3.839  0.00  0.00    -0.342 OA
BRANCH  20  21
ATOM     21  C   UNL d   1      25.666 -15.754  -2.733  0.00  0.00     0.070 A 
ATOM     22  C   UNL d   1      26.910 -15.641  -2.121  0.00  0.00     0.045 A 
ATOM     23  C   UNL d   1      27.225 -16.388  -0.975  0.00  0.00    -0.037 A 
ATOM     24  C   UNL d   1      28.578 -16.206  -0.346  0.00  0.00     0.050 C 
ATOM     25  C   UNL d   1      26.271 -17.275  -0.445  0.00  0.00     0.046 A 
ATOM     26  C   UNL d   1      25.012 -17.413  -1.055  0.00  0.00    -0.037 A 
ATOM     27 CL   UNL d   1      26.655 -18.202   0.972  0.00  0.00    -0.083 Cl
ATOM     28  C   UNL d   1      24.724 -16.642  -2.197  0.00  0.00     0.045 A 
ATOM     29  C   UNL d   1      23.980 -18.365  -0.514  0.00  0.00     0.050 C 
ENDBRANCH  20  21
ENDBRANCH  19  20
ENDBRANCH   1  19
TORSDOF 7
ENDMDL
MODEL 8
REMARK VINA RESULT:    -5.562      1.855      2.934
REMARK INTER + INTRA:         -12.203
REMARK INTER:                  -7.650
REMARK INTRA:                  -4.553
REMARK CONF_INDEPENDENT:        2.088
REMARK UNBOUND:                -4.553
REMARK  7 active torsions:
REMARK  status: ('A' for Active; 'I' for Inactive)
REMARK    1  A    between atoms: C_4  and  O_5 
REMARK    2  A    between atoms: O_5  and  C_6 
REMARK    3  A    between atoms: C_6  and  C_7 
REMARK       I    between atoms: C_7  and  N_9 
REMARK    4  A    between atoms: N_9  and  N_10 
REMARK    5  A    between atoms: N_10  and  S_11 
REMARK    6  A    between atoms: S_11  and  C_14 
REMARK    7  A    between atoms: C_19  and  N_20 
ROOT
ATOM      1  C   UNL d   1      26.388 -12.657  -3.978  0.00  0.00     0.260 C 
ATOM      2  O   UNL d   1      26.962 -11.623  -3.641  0.00  0.00    -0.269 OA
ATOM      3  N   UNL d   1      26.983 -13.577  -4.821  0.00  0.00    -0.259 N 
ATOM      4  H   UNL d   1      26.519 -14.415  -5.174  0.00  0.00     0.190 HD
ENDROOT
BRANCH   3   5
ATOM      5  N   UNL d   1      28.372 -13.340  -5.298  0.00  0.00    -0.220 N 
ATOM      6  H   UNL d   1      28.988 -12.957  -4.574  0.00  0.00     0.200 HD
BRANCH   5   7
ATOM      7  S   UNL d   1      28.972 -14.571  -6.296  0.00  0.00     0.278 S 
ATOM      8  O   UNL d   1      27.783 -15.200  -6.815  0.00  0.00    -0.199 OA
ATOM      9  O   UNL d   1      29.961 -13.913  -7.132  0.00  0.00    -0.199 OA
BRANCH   7  10
ATOM     10  C   UNL d   1      29.840 -15.762  -5.317  0.00  0.00     0.114 A 
ATOM     11  C   UNL d   1      30.047 -17.069  -5.796  0.00  0.00     0.028 A 
ATOM     12  C   UNL d   1      30.603 -18.051  -4.963  0.00  0.00     0.002 A 
ATOM     13  C   UNL d   1      31.022 -17.729  -3.676  0.00  0.00     0.003 A 
ATOM     14  C   UNL d   1      30.849 -16.432  -3.200  0.00  0.00     0.038 A 
ATOM     15  C   UNL d   1      30.254 -15.437  -4.008  0.00  0.00     0.126 A 
BRANCH  15  16
ATOM     16  N   UNL d   1      30.136 -14.090  -3.400  0.00  0.00    -0.114 N 
ATOM     17  O   UNL d   1      29.195 -13.906  -2.615  0.00  0.00    -0.532 OA
ATOM     18  O   UNL d   1      30.964 -13.219  -3.664  0.00  0.00    -0.532 OA
ENDBRANCH  15  16
ENDBRANCH   7  10
ENDBRANCH   5   7
ENDBRANCH   3   5
BRANCH   1  19
ATOM     19  C   UNL d   1      24.983 -13.055  -3.509  0.00  0.00     0.280 C 
BRANCH  19  20
ATOM     20  O   UNL d   1      24.770 -14.452  -3.712  0.00  0.00    -0.342 OA
BRANCH  20  21
ATOM     21  C   UNL d   1      25.199 -15.311  -2.739  0.00  0.00     0.070 A 
ATOM     22  C   UNL d   1      26.531 -15.586  -2.445  0.00  0.00     0.045 A 
ATOM     23  C   UNL d   1      26.877 -16.473  -1.413  0.00  0.00    -0.037 A 
ATOM     24  C   UNL d   1      28.333 -16.713  -1.129  0.00  0.00     0.050 C 
ATOM     25  C   UNL d   1      25.860 -17.103  -0.673  0.00  0.00     0.046 A 
ATOM     26  C   UNL d   1      24.508 -16.847  -0.962  0.00  0.00    -0.037 A 
ATOM     27 CL   UNL d   1      26.283 -18.200   0.604  0.00  0.00    -0.083 Cl
ATOM     28  C   UNL d   1      24.194 -15.946  -1.996  0.00  0.00     0.045 A 
ATOM     29  C   UNL d   1      23.403 -17.519  -0.193  0.00  0.00     0.050 C 
ENDBRANCH  20  21
ENDBRANCH  19  20
ENDBRANCH   1  19
TORSDOF 7
ENDMDL
MODEL 9
REMARK VINA RESULT:    -5.444      1.903      2.539
REMARK INTER + INTRA:         -12.156
REMARK INTER:                  -7.532
REMARK INTRA:                  -4.623
REMARK CONF_INDEPENDENT:        2.088
REMARK UNBOUND:                -4.623
REMARK  7 active torsions:
REMARK  status: ('A' for Active; 'I' for Inactive)
REMARK    1  A    between atoms: C_4  and  O_5 
REMARK    2  A    between atoms: O_5  and  C_6 
REMARK    3  A    between atoms: C_6  and  C_7 
REMARK       I    between atoms: C_7  and  N_9 
REMARK    4  A    between atoms: N_9  and  N_10 
REMARK    5  A    between atoms: N_10  and  S_11 
REMARK    6  A    between atoms: S_11  and  C_14 
REMARK    7  A    between atoms: C_19  and  N_20 
ROOT
ATOM      1  C   UNL d   1      26.369 -12.873  -3.767  0.00  0.00     0.260 C 
ATOM      2  O   UNL d   1      26.927 -11.819  -3.469  0.00  0.00    -0.269 OA
ATOM      3  N   UNL d   1      26.935 -13.770  -4.655  0.00  0.00    -0.259 N 
ATOM      4  H   UNL d   1      26.478 -14.624  -4.978  0.00  0.00     0.190 HD
ENDROOT
BRANCH   3   5
ATOM      5  N   UNL d   1      28.276 -13.480  -5.231  0.00  0.00    -0.220 N 
ATOM      6  H   UNL d   1      28.888 -12.964  -4.590  0.00  0.00     0.200 HD
BRANCH   5   7
ATOM      7  S   UNL d   1      28.936 -14.769  -6.111  0.00  0.00     0.278 S 
ATOM      8  O   UNL d   1      27.781 -15.529  -6.520  0.00  0.00    -0.199 OA
ATOM      9  O   UNL d   1      29.854 -14.140  -7.046  0.00  0.00    -0.199 OA
BRANCH   7  10
ATOM     10  C   UNL d   1      29.912 -15.784  -5.041  0.00  0.00     0.114 A 
ATOM     11  C   UNL d   1      30.205 -17.116  -5.388  0.00  0.00     0.028 A 
ATOM     12  C   UNL d   1      30.851 -17.963  -4.475  0.00  0.00     0.002 A 
ATOM     13  C   UNL d   1      31.272 -17.478  -3.241  0.00  0.00     0.003 A 
ATOM     14  C   UNL d   1      31.013 -16.153  -2.897  0.00  0.00     0.038 A 
ATOM     15  C   UNL d   1      30.329 -15.295  -3.785  0.00  0.00     0.126 A 
BRANCH  15  16
ATOM     16  N   UNL d   1      30.124 -13.903  -3.316  0.00  0.00    -0.114 N 
ATOM     17  O   UNL d   1      30.897 -13.040  -3.757  0.00  0.00    -0.532 OA
ATOM     18  O   UNL d   1      29.205 -13.642  -2.541  0.00  0.00    -0.532 OA
ENDBRANCH  15  16
ENDBRANCH   7  10
ENDBRANCH   5   7
ENDBRANCH   3   5
BRANCH   1  19
ATOM     19  C   UNL d   1      25.017 -13.325  -3.200  0.00  0.00     0.280 C 
BRANCH  19  20
ATOM     20  O   UNL d   1      24.810 -14.714  -3.459  0.00  0.00    -0.342 OA
BRANCH  20  21
ATOM     21  C   UNL d   1      25.157 -15.604  -2.481  0.00  0.00     0.070 A 
ATOM     22  C   UNL d   1      24.261 -16.380  -1.752  0.00  0.00     0.045 A 
ATOM     23  C   UNL d   1      24.713 -17.282  -0.775  0.00  0.00    -0.037 A 
ATOM     24  C   UNL d   1      23.698 -18.109  -0.035  0.00  0.00     0.050 C 
ATOM     25  C   UNL d   1      26.091 -17.393  -0.520  0.00  0.00     0.046 A 
ATOM     26  C   UNL d   1      27.012 -16.609  -1.238  0.00  0.00    -0.037 A 
ATOM     27 CL   UNL d   1      26.654 -18.506   0.686  0.00  0.00    -0.083 Cl
ATOM     28  C   UNL d   1      26.528 -15.721  -2.218  0.00  0.00     0.045 A 
ATOM     29  C   UNL d   1      28.490 -16.701  -0.975  0.00  0.00     0.050 C 
ENDBRANCH  20  21
ENDBRANCH  19  20
ENDBRANCH   1  19
TORSDOF 7
ENDMDL
