MODEL 1
REMARK VINA RESULT:    -6.876      0.000      0.000
REMARK INTER + INTRA:         -11.766
REMARK INTER:                  -9.859
REMARK INTRA:                  -1.906
REMARK CONF_INDEPENDENT:        2.983
REMARK UNBOUND:                -1.906
REMARK  10 active torsions:
REMARK  status: ('A' for Active; 'I' for Inactive)
REMARK    1  A    between atoms: C_2  and  C_3 
REMARK    2  A    between atoms: C_3  and  C_4 
REMARK    3  A    between atoms: C_4  and  C_5 
REMARK    4  A    between atoms: C_5  and  N_6 
REMARK       I    between atoms: N_6  and  C_7 
REMARK       I    between atoms: C_7  and  N_9 
REMARK    5  A    between atoms: N_9  and  N_10 
REMARK       I    between atoms: N_10  and  C_11 
REMARK    6  A    between atoms: C_11  and  C_13 
REMARK    7  A    between atoms: C_15  and  O_16 
REMARK    8  A    between atoms: C_18  and  O_19 
REMARK    9  A    between atoms: O_19  and  C_20 
REMARK   10  A    between atoms: C_23  and  N_24 
ROOT
ATOM      1  N   UNL d   1      24.915 -17.131  -1.514  0.00  0.00    -0.262 N 
ATOM      2  C   UNL d   1      26.067 -16.382  -1.252  0.00  0.00     0.272 C 
ATOM      3  O   UNL d   1      26.404 -16.030  -0.124  0.00  0.00    -0.266 OA
ATOM      4  H   UNL d   1      24.527 -17.162  -2.456  0.00  0.00     0.190 HD
ENDROOT
BRANCH   2   5
ATOM      5  C   UNL d   1      26.933 -15.987  -2.436  0.00  0.00     0.069 C 
ATOM      6  C   UNL d   1      28.326 -16.299  -2.428  0.00  0.00     0.059 C 
ATOM      7  C   UNL d   1      29.205 -15.898  -3.481  0.00  0.00     0.102 C 
ATOM      8  C   UNL d   1      28.670 -15.261  -4.610  0.00  0.00     0.104 C 
ATOM      9  C   UNL d   1      27.328 -14.896  -4.595  0.00  0.00     0.076 C 
ATOM     10  C   UNL d   1      26.466 -15.236  -3.524  0.00  0.00     0.121 C 
BRANCH   7  11
ATOM     11  O   UNL d   1      30.549 -16.163  -3.288  0.00  0.00    -0.353 OA
ATOM     12  C   UNL d   1      30.947 -16.690  -2.009  0.00  0.00     0.210 C 
ENDBRANCH   7  11
BRANCH   8  13
ATOM     13  O   UNL d   1      29.481 -15.043  -5.687  0.00  0.00    -0.349 OA
BRANCH  13  14
ATOM     14  C   UNL d   1      28.957 -14.488  -6.888  0.00  0.00     0.171 C 
ATOM     15  C   UNL d   1      29.653 -13.162  -7.149  0.00  0.00     0.034 C 
ENDBRANCH  13  14
ENDBRANCH   8  13
BRANCH  10  16
ATOM     16  N   UNL d   1      25.095 -14.722  -3.640  0.00  0.00    -0.115 N 
ATOM     17  O   UNL d   1      24.315 -14.963  -2.714  0.00  0.00    -0.532 OA
ATOM     18  O   UNL d   1      24.779 -14.077  -4.646  0.00  0.00    -0.532 OA
ENDBRANCH  10  16
ENDBRANCH   2   5
BRANCH   1  19
ATOM     19  N   UNL d   1      23.886 -17.287  -0.513  0.00  0.00    -0.249 N 
ATOM     20  C   UNL d   1      22.888 -18.233  -0.746  0.00  0.00     0.334 C 
ATOM     21  N   UNL d   1      21.990 -18.394   0.293  0.00  0.00    -0.342 N 
ATOM     22  O   UNL d   1      22.858 -18.916  -1.768  0.00  0.00    -0.246 OA
ATOM     23  H   UNL d   1      22.073 -17.814   1.113  0.00  0.00     0.164 HD
ATOM     24  H   UNL d   1      23.828 -16.568   0.201  0.00  0.00     0.192 HD
BRANCH  21  25
ATOM     25  C   UNL d   1      20.976 -19.453   0.272  0.00  0.00     0.124 C 
BRANCH  25  26
ATOM     26  C   UNL d   1      19.904 -19.262  -0.812  0.00  0.00     0.020 C 
BRANCH  26  27
ATOM     27  C   UNL d   1      18.634 -20.075  -0.519  0.00  0.00     0.001 C 
BRANCH  27  28
ATOM     28  C   UNL d   1      18.843 -21.054   0.641  0.00  0.00    -0.004 C 
ATOM     29  C   UNL d   1      18.415 -20.441   1.966  0.00  0.00     0.005 C 
ENDBRANCH  27  28
ENDBRANCH  26  27
ENDBRANCH  25  26
ENDBRANCH  21  25
ENDBRANCH   1  19
TORSDOF 10
ENDMDL
MODEL 2
REMARK VINA RESULT:    -6.686      1.181      1.408
REMARK INTER + INTRA:         -11.933
REMARK INTER:                  -9.669
REMARK INTRA:                  -2.264
REMARK CONF_INDEPENDENT:        2.983
REMARK UNBOUND:                -2.264
REMARK  10 active torsions:
REMARK  status: ('A' for Active; 'I' for Inactive)
REMARK    1  A    between atoms: C_2  and  C_3 
REMARK    2  A    between atoms: C_3  and  C_4 
REMARK    3  A    between atoms: C_4  and  C_5 
REMARK    4  A    between atoms: C_5  and  N_6 
REMARK       I    between atoms: N_6  and  C_7 
REMARK       I    between atoms: C_7  and  N_9 
REMARK    5  A    between atoms: N_9  and  N_10 
REMARK       I    between atoms: N_10  and  C_11 
REMARK    6  A    between atoms: C_11  and  C_13 
REMARK    7  A    between atoms: C_15  and  O_16 
REMARK    8  A    between atoms: C_18  and  O_19 
REMARK    9  A    between atoms: O_19  and  C_20 
REMARK   10  A    between atoms: C_23  and  N_24 
ROOT
ATOM      1  N   UNL d   1      24.930 -18.125  -1.026  0.00  0.00    -0.262 N 
ATOM      2  C   UNL d   1      25.979 -17.347  -0.525  0.00  0.00     0.272 C 
ATOM      3  O   UNL d   1      26.174 -17.164   0.674  0.00  0.00    -0.266 OA
ATOM      4  H   UNL d   1      24.637 -18.027  -1.997  0.00  0.00     0.190 HD
ENDROOT
BRANCH   2   5
ATOM      5  C   UNL d   1      26.912 -16.694  -1.531  0.00  0.00     0.069 C 
ATOM      6  C   UNL d   1      28.323 -16.850  -1.389  0.00  0.00     0.059 C 
ATOM      7  C   UNL d   1      29.255 -16.209  -2.263  0.00  0.00     0.102 C 
ATOM      8  C   UNL d   1      28.771 -15.481  -3.359  0.00  0.00     0.104 C 
ATOM      9  C   UNL d   1      27.400 -15.270  -3.465  0.00  0.00     0.076 C 
ATOM     10  C   UNL d   1      26.476 -15.851  -2.563  0.00  0.00     0.121 C 
BRANCH   7  11
ATOM     11  O   UNL d   1      30.592 -16.351  -1.938  0.00  0.00    -0.353 OA
ATOM     12  C   UNL d   1      30.914 -16.733  -0.589  0.00  0.00     0.210 C 
ENDBRANCH   7  11
BRANCH   8  13
ATOM     13  O   UNL d   1      29.661 -15.023  -4.289  0.00  0.00    -0.349 OA
BRANCH  13  14
ATOM     14  C   UNL d   1      29.409 -15.196  -5.678  0.00  0.00     0.171 C 
ATOM     15  C   UNL d   1      30.418 -16.192  -6.229  0.00  0.00     0.034 C 
ENDBRANCH  13  14
ENDBRANCH   8  13
BRANCH  10  16
ATOM     16  N   UNL d   1      25.071 -15.479  -2.782  0.00  0.00    -0.115 N 
ATOM     17  O   UNL d   1      24.241 -15.874  -1.960  0.00  0.00    -0.532 OA
ATOM     18  O   UNL d   1      24.780 -14.794  -3.769  0.00  0.00    -0.532 OA
ENDBRANCH  10  16
ENDBRANCH   2   5
BRANCH   1  19
ATOM     19  N   UNL d   1      23.829 -18.523  -0.179  0.00  0.00    -0.249 N 
ATOM     20  C   UNL d   1      22.651 -18.942  -0.797  0.00  0.00     0.334 C 
ATOM     21  N   UNL d   1      21.674 -19.396   0.070  0.00  0.00    -0.342 N 
ATOM     22  O   UNL d   1      22.525 -18.969  -2.020  0.00  0.00    -0.246 OA
ATOM     23  H   UNL d   1      21.839 -19.362   1.064  0.00  0.00     0.164 HD
ATOM     24  H   UNL d   1      23.899 -18.287   0.804  0.00  0.00     0.192 HD
BRANCH  21  25
ATOM     25  C   UNL d   1      20.438 -20.013  -0.423  0.00  0.00     0.124 C 
BRANCH  25  26
ATOM     26  C   UNL d   1      19.161 -19.317   0.070  0.00  0.00     0.020 C 
BRANCH  26  27
ATOM     27  C   UNL d   1      19.015 -19.389   1.598  0.00  0.00     0.001 C 
BRANCH  27  28
ATOM     28  C   UNL d   1      18.781 -20.825   2.077  0.00  0.00    -0.004 C 
ATOM     29  C   UNL d   1      17.952 -21.614   1.073  0.00  0.00     0.005 C 
ENDBRANCH  27  28
ENDBRANCH  26  27
ENDBRANCH  25  26
ENDBRANCH  21  25
ENDBRANCH   1  19
TORSDOF 10
ENDMDL
MODEL 3
REMARK VINA RESULT:    -6.446      3.088      3.565
REMARK INTER + INTRA:         -11.992
REMARK INTER:                  -9.429
REMARK INTRA:                  -2.563
REMARK CONF_INDEPENDENT:        2.983
REMARK UNBOUND:                -2.563
REMARK  10 active torsions:
REMARK  status: ('A' for Active; 'I' for Inactive)
REMARK    1  A    between atoms: C_2  and  C_3 
REMARK    2  A    between atoms: C_3  and  C_4 
REMARK    3  A    between atoms: C_4  and  C_5 
REMARK    4  A    between atoms: C_5  and  N_6 
REMARK       I    between atoms: N_6  and  C_7 
REMARK       I    between atoms: C_7  and  N_9 
REMARK    5  A    between atoms: N_9  and  N_10 
REMARK       I    between atoms: N_10  and  C_11 
REMARK    6  A    between atoms: C_11  and  C_13 
REMARK    7  A    between atoms: C_15  and  O_16 
REMARK    8  A    between atoms: C_18  and  O_19 
REMARK    9  A    between atoms: O_19  and  C_20 
REMARK   10  A    between atoms: C_23  and  N_24 
ROOT
ATOM      1  N   UNL d   1      25.267 -16.200  -2.027  0.00  0.00    -0.262 N 
ATOM      2  C   UNL d   1      26.155 -15.342  -1.369  0.00  0.00     0.272 C 
ATOM      3  O   UNL d   1      26.798 -15.667  -0.374  0.00  0.00    -0.266 OA
ATOM      4  H   UNL d   1      24.561 -15.821  -2.656  0.00  0.00     0.190 HD
ENDROOT
BRANCH   2   5
ATOM      5  C   UNL d   1      26.316 -13.937  -1.924  0.00  0.00     0.069 C 
ATOM      6  C   UNL d   1      27.057 -12.967  -1.184  0.00  0.00     0.059 C 
ATOM      7  C   UNL d   1      27.190 -11.611  -1.620  0.00  0.00     0.102 C 
ATOM      8  C   UNL d   1      26.660 -11.241  -2.864  0.00  0.00     0.104 C 
ATOM      9  C   UNL d   1      25.883 -12.163  -3.558  0.00  0.00     0.076 C 
ATOM     10  C   UNL d   1      25.695 -13.489  -3.098  0.00  0.00     0.121 C 
BRANCH   7  11
ATOM     11  O   UNL d   1      27.832 -10.752  -0.748  0.00  0.00    -0.353 OA
ATOM     12  C   UNL d   1      27.418 -10.766   0.630  0.00  0.00     0.210 C 
ENDBRANCH   7  11
BRANCH   8  13
ATOM     13  O   UNL d   1      26.945  -9.999  -3.355  0.00  0.00    -0.349 OA
BRANCH  13  14
ATOM     14  C   UNL d   1      26.264  -9.500  -4.501  0.00  0.00     0.171 C 
ATOM     15  C   UNL d   1      25.171  -8.551  -4.035  0.00  0.00     0.034 C 
ENDBRANCH  13  14
ENDBRANCH   8  13
BRANCH  10  16
ATOM     16  N   UNL d   1      24.797 -14.313  -3.919  0.00  0.00    -0.115 N 
ATOM     17  O   UNL d   1      23.587 -14.078  -3.853  0.00  0.00    -0.532 OA
ATOM     18  O   UNL d   1      25.281 -15.197  -4.633  0.00  0.00    -0.532 OA
ENDBRANCH  10  16
ENDBRANCH   2   5
BRANCH   1  19
ATOM     19  N   UNL d   1      24.820 -17.426  -1.407  0.00  0.00    -0.249 N 
ATOM     20  C   UNL d   1      23.524 -17.461  -0.894  0.00  0.00     0.334 C 
ATOM     21  N   UNL d   1      23.131 -18.692  -0.400  0.00  0.00    -0.342 N 
ATOM     22  O   UNL d   1      22.771 -16.490  -0.945  0.00  0.00    -0.246 OA
ATOM     23  H   UNL d   1      23.789 -19.456  -0.396  0.00  0.00     0.164 HD
ATOM     24  H   UNL d   1      25.531 -18.118  -1.198  0.00  0.00     0.192 HD
BRANCH  21  25
ATOM     25  C   UNL d   1      21.753 -18.940   0.034  0.00  0.00     0.124 C 
BRANCH  25  26
ATOM     26  C   UNL d   1      20.737 -18.967  -1.118  0.00  0.00     0.020 C 
BRANCH  26  27
ATOM     27  C   UNL d   1      19.370 -19.511  -0.671  0.00  0.00     0.001 C 
BRANCH  27  28
ATOM     28  C   UNL d   1      19.421 -20.062   0.757  0.00  0.00    -0.004 C 
ATOM     29  C   UNL d   1      18.433 -21.206   0.943  0.00  0.00     0.005 C 
ENDBRANCH  27  28
ENDBRANCH  26  27
ENDBRANCH  25  26
ENDBRANCH  21  25
ENDBRANCH   1  19
TORSDOF 10
ENDMDL
MODEL 4
REMARK VINA RESULT:    -6.319      2.557      3.292
REMARK INTER + INTRA:         -11.915
REMARK INTER:                  -9.302
REMARK INTRA:                  -2.613
REMARK CONF_INDEPENDENT:        2.983
REMARK UNBOUND:                -2.613
REMARK  10 active torsions:
REMARK  status: ('A' for Active; 'I' for Inactive)
REMARK    1  A    between atoms: C_2  and  C_3 
REMARK    2  A    between atoms: C_3  and  C_4 
REMARK    3  A    between atoms: C_4  and  C_5 
REMARK    4  A    between atoms: C_5  and  N_6 
REMARK       I    between atoms: N_6  and  C_7 
REMARK       I    between atoms: C_7  and  N_9 
REMARK    5  A    between atoms: N_9  and  N_10 
REMARK       I    between atoms: N_10  and  C_11 
REMARK    6  A    between atoms: C_11  and  C_13 
REMARK    7  A    between atoms: C_15  and  O_16 
REMARK    8  A    between atoms: C_18  and  O_19 
REMARK    9  A    between atoms: O_19  and  C_20 
REMARK   10  A    between atoms: C_23  and  N_24 
ROOT
ATOM      1  N   UNL d   1      24.181 -17.657  -0.654  0.00  0.00    -0.262 N 
ATOM      2  C   UNL d   1      25.484 -17.570  -0.150  0.00  0.00     0.272 C 
ATOM      3  O   UNL d   1      26.043 -18.488   0.444  0.00  0.00    -0.266 OA
ATOM      4  H   UNL d   1      23.662 -16.810  -0.883  0.00  0.00     0.190 HD
ENDROOT
BRANCH   2   5
ATOM      5  C   UNL d   1      26.228 -16.261  -0.351  0.00  0.00     0.069 C 
ATOM      6  C   UNL d   1      27.205 -15.851   0.606  0.00  0.00     0.059 C 
ATOM      7  C   UNL d   1      27.893 -14.601   0.508  0.00  0.00     0.102 C 
ATOM      8  C   UNL d   1      27.677 -13.791  -0.616  0.00  0.00     0.104 C 
ATOM      9  C   UNL d   1      26.681 -14.152  -1.516  0.00  0.00     0.076 C 
ATOM     10  C   UNL d   1      25.951 -15.360  -1.388  0.00  0.00     0.121 C 
BRANCH   7  11
ATOM     11  O   UNL d   1      28.724 -14.279   1.565  0.00  0.00    -0.353 OA
ATOM     12  C   UNL d   1      28.106 -13.918   2.814  0.00  0.00     0.210 C 
ENDBRANCH   7  11
BRANCH   8  13
ATOM     13  O   UNL d   1      28.466 -12.690  -0.793  0.00  0.00    -0.349 OA
BRANCH  13  14
ATOM     14  C   UNL d   1      29.831 -12.831  -1.166  0.00  0.00     0.171 C 
ATOM     15  C   UNL d   1      29.908 -13.755  -2.371  0.00  0.00     0.034 C 
ENDBRANCH  13  14
ENDBRANCH   8  13
BRANCH  10  16
ATOM     16  N   UNL d   1      24.895 -15.559  -2.390  0.00  0.00    -0.115 N 
ATOM     17  O   UNL d   1      23.724 -15.523  -2.000  0.00  0.00    -0.532 OA
ATOM     18  O   UNL d   1      25.214 -15.753  -3.568  0.00  0.00    -0.532 OA
ENDBRANCH  10  16
ENDBRANCH   2   5
BRANCH   1  19
ATOM     19  N   UNL d   1      23.298 -18.726  -0.250  0.00  0.00    -0.249 N 
ATOM     20  C   UNL d   1      21.927 -18.541  -0.430  0.00  0.00     0.334 C 
ATOM     21  N   UNL d   1      21.149 -19.638  -0.109  0.00  0.00    -0.342 N 
ATOM     22  O   UNL d   1      21.461 -17.506  -0.903  0.00  0.00    -0.246 OA
ATOM     23  H   UNL d   1      21.589 -20.465   0.263  0.00  0.00     0.164 HD
ATOM     24  H   UNL d   1      23.700 -19.460   0.322  0.00  0.00     0.192 HD
BRANCH  21  25
ATOM     25  C   UNL d   1      19.709 -19.663  -0.384  0.00  0.00     0.124 C 
BRANCH  25  26
ATOM     26  C   UNL d   1      18.975 -20.843   0.271  0.00  0.00     0.020 C 
BRANCH  26  27
ATOM     27  C   UNL d   1      18.630 -20.563   1.743  0.00  0.00     0.001 C 
BRANCH  27  28
ATOM     28  C   UNL d   1      19.861 -20.120   2.538  0.00  0.00    -0.004 C 
ATOM     29  C   UNL d   1      19.902 -20.782   3.908  0.00  0.00     0.005 C 
ENDBRANCH  27  28
ENDBRANCH  26  27
ENDBRANCH  25  26
ENDBRANCH  21  25
ENDBRANCH   1  19
TORSDOF 10
ENDMDL
MODEL 5
REMARK VINA RESULT:    -6.232      3.401      4.091
REMARK INTER + INTRA:         -12.090
REMARK INTER:                  -9.215
REMARK INTRA:                  -2.876
REMARK CONF_INDEPENDENT:        2.983
REMARK UNBOUND:                -2.876
REMARK  10 active torsions:
REMARK  status: ('A' for Active; 'I' for Inactive)
REMARK    1  A    between atoms: C_2  and  C_3 
REMARK    2  A    between atoms: C_3  and  C_4 
REMARK    3  A    between atoms: C_4  and  C_5 
REMARK    4  A    between atoms: C_5  and  N_6 
REMARK       I    between atoms: N_6  and  C_7 
REMARK       I    between atoms: C_7  and  N_9 
REMARK    5  A    between atoms: N_9  and  N_10 
REMARK       I    between atoms: N_10  and  C_11 
REMARK    6  A    between atoms: C_11  and  C_13 
REMARK    7  A    between atoms: C_15  and  O_16 
REMARK    8  A    between atoms: C_18  and  O_19 
REMARK    9  A    between atoms: O_19  and  C_20 
REMARK   10  A    between atoms: C_23  and  N_24 
ROOT
ATOM      1  N   UNL d   1      25.675 -15.463  -1.993  0.00  0.00    -0.262 N 
ATOM      2  C   UNL d   1      26.388 -14.343  -1.554  0.00  0.00     0.272 C 
ATOM      3  O   UNL d   1      27.034 -14.317  -0.510  0.00  0.00    -0.266 OA
ATOM      4  H   UNL d   1      24.944 -15.362  -2.695  0.00  0.00     0.190 HD
ENDROOT
BRANCH   2   5
ATOM      5  C   UNL d   1      26.346 -13.098  -2.424  0.00  0.00     0.069 C 
ATOM      6  C   UNL d   1      26.997 -11.906  -1.983  0.00  0.00     0.059 C 
ATOM      7  C   UNL d   1      26.938 -10.685  -2.724  0.00  0.00     0.102 C 
ATOM      8  C   UNL d   1      26.305 -10.676  -3.975  0.00  0.00     0.104 C 
ATOM      9  C   UNL d   1      25.614 -11.813  -4.379  0.00  0.00     0.076 C 
ATOM     10  C   UNL d   1      25.615 -13.007  -3.617  0.00  0.00     0.121 C 
BRANCH   7  11
ATOM     11  O   UNL d   1      27.513  -9.580  -2.123  0.00  0.00    -0.353 OA
ATOM     12  C   UNL d   1      26.630  -8.577  -1.587  0.00  0.00     0.210 C 
ENDBRANCH   7  11
BRANCH   8  13
ATOM     13  O   UNL d   1      26.408  -9.560  -4.756  0.00  0.00    -0.349 OA
BRANCH  13  14
ATOM     14  C   UNL d   1      25.381  -9.228  -5.682  0.00  0.00     0.171 C 
ATOM     15  C   UNL d   1      24.398  -8.291  -4.996  0.00  0.00     0.034 C 
ENDBRANCH  13  14
ENDBRANCH   8  13
BRANCH  10  16
ATOM     16  N   UNL d   1      24.786 -14.093  -4.157  0.00  0.00    -0.115 N 
ATOM     17  O   UNL d   1      23.580 -14.074  -3.897  0.00  0.00    -0.532 OA
ATOM     18  O   UNL d   1      25.321 -14.972  -4.842  0.00  0.00    -0.532 OA
ENDBRANCH  10  16
ENDBRANCH   2   5
BRANCH   1  19
ATOM     19  N   UNL d   1      25.405 -16.568  -1.103  0.00  0.00    -0.249 N 
ATOM     20  C   UNL d   1      24.072 -16.863  -0.817  0.00  0.00     0.334 C 
ATOM     21  N   UNL d   1      23.884 -17.988  -0.035  0.00  0.00    -0.342 N 
ATOM     22  O   UNL d   1      23.141 -16.212  -1.287  0.00  0.00    -0.246 OA
ATOM     23  H   UNL d   1      24.687 -18.490   0.311  0.00  0.00     0.164 HD
ATOM     24  H   UNL d   1      26.191 -16.937  -0.579  0.00  0.00     0.192 HD
BRANCH  21  25
ATOM     25  C   UNL d   1      22.545 -18.523   0.229  0.00  0.00     0.124 C 
BRANCH  25  26
ATOM     26  C   UNL d   1      21.788 -18.951  -1.037  0.00  0.00     0.020 C 
BRANCH  26  27
ATOM     27  C   UNL d   1      20.275 -19.066  -0.796  0.00  0.00     0.001 C 
BRANCH  27  28
ATOM     28  C   UNL d   1      19.966 -19.706   0.561  0.00  0.00    -0.004 C 
ATOM     29  C   UNL d   1      18.775 -20.650   0.470  0.00  0.00     0.005 C 
ENDBRANCH  27  28
ENDBRANCH  26  27
ENDBRANCH  25  26
ENDBRANCH  21  25
ENDBRANCH   1  19
TORSDOF 10
ENDMDL
MODEL 6
REMARK VINA RESULT:    -6.083      2.925      4.074
REMARK INTER + INTRA:         -11.993
REMARK INTER:                  -9.066
REMARK INTRA:                  -2.927
REMARK CONF_INDEPENDENT:        2.983
REMARK UNBOUND:                -2.927
REMARK  10 active torsions:
REMARK  status: ('A' for Active; 'I' for Inactive)
REMARK    1  A    between atoms: C_2  and  C_3 
REMARK    2  A    between atoms: C_3  and  C_4 
REMARK    3  A    between atoms: C_4  and  C_5 
REMARK    4  A    between atoms: C_5  and  N_6 
REMARK       I    between atoms: N_6  and  C_7 
REMARK       I    between atoms: C_7  and  N_9 
REMARK    5  A    between atoms: N_9  and  N_10 
REMARK       I    between atoms: N_10  and  C_11 
REMARK    6  A    between atoms: C_11  and  C_13 
REMARK    7  A    between atoms: C_15  and  O_16 
REMARK    8  A    between atoms: C_18  and  O_19 
REMARK    9  A    between atoms: O_19  and  C_20 
REMARK   10  A    between atoms: C_23  and  N_24 
ROOT
ATOM      1  N   UNL d   1      26.374 -15.056  -2.123  0.00  0.00    -0.262 N 
ATOM      2  C   UNL d   1      26.386 -13.661  -2.012  0.00  0.00     0.272 C 
ATOM      3  O   UNL d   1      26.281 -13.066  -0.943  0.00  0.00    -0.266 OA
ATOM      4  H   UNL d   1      26.184 -15.497  -3.021  0.00  0.00     0.190 HD
ENDROOT
BRANCH   2   5
ATOM      5  C   UNL d   1      26.531 -12.856  -3.293  0.00  0.00     0.069 C 
ATOM      6  C   UNL d   1      26.601 -11.432  -3.227  0.00  0.00     0.059 C 
ATOM      7  C   UNL d   1      26.672 -10.615  -4.398  0.00  0.00     0.102 C 
ATOM      8  C   UNL d   1      26.776 -11.232  -5.653  0.00  0.00     0.104 C 
ATOM      9  C   UNL d   1      26.642 -12.614  -5.729  0.00  0.00     0.076 C 
ATOM     10  C   UNL d   1      26.507 -13.423  -4.574  0.00  0.00     0.121 C 
BRANCH   7  11
ATOM     11  O   UNL d   1      26.615  -9.249  -4.192  0.00  0.00    -0.353 OA
ATOM     12  C   UNL d   1      25.321  -8.621  -4.240  0.00  0.00     0.210 C 
ENDBRANCH   7  11
BRANCH   8  13
ATOM     13  O   UNL d   1      27.024 -10.454  -6.748  0.00  0.00    -0.349 OA
BRANCH  13  14
ATOM     14  C   UNL d   1      26.671 -10.905  -8.051  0.00  0.00     0.171 C 
ATOM     15  C   UNL d   1      27.861 -11.645  -8.642  0.00  0.00     0.034 C 
ENDBRANCH  13  14
ENDBRANCH   8  13
BRANCH  10  16
ATOM     16  N   UNL d   1      26.316 -14.856  -4.836  0.00  0.00    -0.115 N 
ATOM     17  O   UNL d   1      25.157 -15.277  -4.892  0.00  0.00    -0.532 OA
ATOM     18  O   UNL d   1      27.310 -15.576  -4.987  0.00  0.00    -0.532 OA
ENDBRANCH  10  16
ENDBRANCH   2   5
BRANCH   1  19
ATOM     19  N   UNL d   1      25.939 -15.885  -1.023  0.00  0.00    -0.249 N 
ATOM     20  C   UNL d   1      24.962 -16.847  -1.280  0.00  0.00     0.334 C 
ATOM     21  N   UNL d   1      24.660 -17.665  -0.207  0.00  0.00    -0.342 N 
ATOM     22  O   UNL d   1      24.465 -16.995  -2.395  0.00  0.00    -0.246 OA
ATOM     23  H   UNL d   1      25.110 -17.504   0.680  0.00  0.00     0.164 HD
ATOM     24  H   UNL d   1      26.213 -15.592  -0.092  0.00  0.00     0.192 HD
BRANCH  21  25
ATOM     25  C   UNL d   1      23.770 -18.822  -0.351  0.00  0.00     0.124 C 
BRANCH  25  26
ATOM     26  C   UNL d   1      22.303 -18.519  -0.011  0.00  0.00     0.020 C 
BRANCH  26  27
ATOM     27  C   UNL d   1      21.349 -18.950  -1.137  0.00  0.00     0.001 C 
BRANCH  27  28
ATOM     28  C   UNL d   1      19.921 -19.152  -0.620  0.00  0.00    -0.004 C 
ATOM     29  C   UNL d   1      19.838 -20.340   0.326  0.00  0.00     0.005 C 
ENDBRANCH  27  28
ENDBRANCH  26  27
ENDBRANCH  25  26
ENDBRANCH  21  25
ENDBRANCH   1  19
TORSDOF 10
ENDMDL
MODEL 7
REMARK VINA RESULT:    -5.874      2.678      8.475
REMARK INTER + INTRA:         -11.515
REMARK INTER:                  -8.857
REMARK INTRA:                  -2.658
REMARK CONF_INDEPENDENT:        2.983
REMARK UNBOUND:                -2.658
REMARK  10 active torsions:
REMARK  status: ('A' for Active; 'I' for Inactive)
REMARK    1  A    between atoms: C_2  and  C_3 
REMARK    2  A    between atoms: C_3  and  C_4 
REMARK    3  A    between atoms: C_4  and  C_5 
REMARK    4  A    between atoms: C_5  and  N_6 
REMARK       I    between atoms: N_6  and  C_7 
REMARK       I    between atoms: C_7  and  N_9 
REMARK    5  A    between atoms: N_9  and  N_10 
REMARK       I    between atoms: N_10  and  C_11 
REMARK    6  A    between atoms: C_11  and  C_13 
REMARK    7  A    between atoms: C_15  and  O_16 
REMARK    8  A    between atoms: C_18  and  O_19 
REMARK    9  A    between atoms: O_19  and  C_20 
REMARK   10  A    between atoms: C_23  and  N_24 
ROOT
ATOM      1  N   UNL d   1      27.832 -14.321  -3.335  0.00  0.00    -0.262 N 
ATOM      2  C   UNL d   1      27.864 -15.250  -2.290  0.00  0.00     0.272 C 
ATOM      3  O   UNL d   1      28.903 -15.651  -1.772  0.00  0.00    -0.266 OA
ATOM      4  H   UNL d   1      26.998 -14.228  -3.913  0.00  0.00     0.190 HD
ENDROOT
BRANCH   2   5
ATOM      5  C   UNL d   1      26.535 -15.788  -1.787  0.00  0.00     0.069 C 
ATOM      6  C   UNL d   1      26.516 -16.736  -0.720  0.00  0.00     0.059 C 
ATOM      7  C   UNL d   1      25.304 -17.328  -0.245  0.00  0.00     0.102 C 
ATOM      8  C   UNL d   1      24.081 -16.894  -0.776  0.00  0.00     0.104 C 
ATOM      9  C   UNL d   1      24.096 -16.021  -1.859  0.00  0.00     0.076 C 
ATOM     10  C   UNL d   1      25.300 -15.481  -2.375  0.00  0.00     0.121 C 
BRANCH   7  11
ATOM     11  O   UNL d   1      25.443 -18.316   0.711  0.00  0.00    -0.353 OA
ATOM     12  C   UNL d   1      26.774 -18.780   1.003  0.00  0.00     0.210 C 
ENDBRANCH   7  11
BRANCH   8  13
ATOM     13  O   UNL d   1      22.922 -17.328  -0.196  0.00  0.00    -0.349 OA
BRANCH  13  14
ATOM     14  C   UNL d   1      22.536 -18.694  -0.287  0.00  0.00     0.171 C 
ATOM     15  C   UNL d   1      21.143 -18.761  -0.893  0.00  0.00     0.034 C 
ENDBRANCH  13  14
ENDBRANCH   8  13
BRANCH  10  16
ATOM     16  N   UNL d   1      25.142 -14.624  -3.558  0.00  0.00    -0.115 N 
ATOM     17  O   UNL d   1      25.158 -15.170  -4.664  0.00  0.00    -0.532 OA
ATOM     18  O   UNL d   1      25.003 -13.406  -3.401  0.00  0.00    -0.532 OA
ENDBRANCH  10  16
ENDBRANCH   2   5
BRANCH   1  19
ATOM     19  N   UNL d   1      29.028 -13.992  -4.075  0.00  0.00    -0.249 N 
ATOM     20  C   UNL d   1      29.276 -14.692  -5.256  0.00  0.00     0.334 C 
ATOM     21  N   UNL d   1      30.386 -14.264  -5.960  0.00  0.00    -0.342 N 
ATOM     22  O   UNL d   1      28.522 -15.572  -5.668  0.00  0.00    -0.246 OA
ATOM     23  H   UNL d   1      30.960 -13.528  -5.578  0.00  0.00     0.164 HD
ATOM     24  H   UNL d   1      29.719 -13.423  -3.599  0.00  0.00     0.192 HD
BRANCH  21  25
ATOM     25  C   UNL d   1      30.699 -14.788  -7.293  0.00  0.00     0.124 C 
BRANCH  25  26
ATOM     26  C   UNL d   1      31.526 -16.082  -7.270  0.00  0.00     0.020 C 
BRANCH  26  27
ATOM     27  C   UNL d   1      30.716 -17.277  -6.743  0.00  0.00     0.001 C 
BRANCH  27  28
ATOM     28  C   UNL d   1      31.515 -18.582  -6.822  0.00  0.00    -0.004 C 
ATOM     29  C   UNL d   1      30.777 -19.634  -7.638  0.00  0.00     0.005 C 
ENDBRANCH  27  28
ENDBRANCH  26  27
ENDBRANCH  25  26
ENDBRANCH  21  25
ENDBRANCH   1  19
TORSDOF 10
ENDMDL
MODEL 8
REMARK VINA RESULT:    -5.826      2.587      4.416
REMARK INTER + INTRA:         -11.767
REMARK INTER:                  -8.809
REMARK INTRA:                  -2.957
REMARK CONF_INDEPENDENT:        2.983
REMARK UNBOUND:                -2.957
REMARK  10 active torsions:
REMARK  status: ('A' for Active; 'I' for Inactive)
REMARK    1  A    between atoms: C_2  and  C_3 
REMARK    2  A    between atoms: C_3  and  C_4 
REMARK    3  A    between atoms: C_4  and  C_5 
REMARK    4  A    between atoms: C_5  and  N_6 
REMARK       I    between atoms: N_6  and  C_7 
REMARK       I    between atoms: C_7  and  N_9 
REMARK    5  A    between atoms: N_9  and  N_10 
REMARK       I    between atoms: N_10  and  C_11 
REMARK    6  A    between atoms: C_11  and  C_13 
REMARK    7  A    between atoms: C_15  and  O_16 
REMARK    8  A    between atoms: C_18  and  O_19 
REMARK    9  A    between atoms: O_19  and  C_20 
REMARK   10  A    between atoms: C_23  and  N_24 
ROOT
ATOM      1  N   UNL d   1      25.810 -14.351  -3.240  0.00  0.00    -0.262 N 
ATOM      2  C   UNL d   1      25.668 -13.104  -3.859  0.00  0.00     0.272 C 
ATOM      3  O   UNL d   1      24.832 -12.271  -3.520  0.00  0.00    -0.266 OA
ATOM      4  H   UNL d   1      26.306 -15.105  -3.713  0.00  0.00     0.190 HD
ENDROOT
BRANCH   2   5
ATOM      5  C   UNL d   1      26.601 -12.783  -5.014  0.00  0.00     0.069 C 
ATOM      6  C   UNL d   1      26.718 -11.437  -5.474  0.00  0.00     0.059 C 
ATOM      7  C   UNL d   1      27.528 -11.080  -6.597  0.00  0.00     0.102 C 
ATOM      8  C   UNL d   1      28.314 -12.067  -7.210  0.00  0.00     0.104 C 
ATOM      9  C   UNL d   1      28.155 -13.389  -6.810  0.00  0.00     0.076 C 
ATOM     10  C   UNL d   1      27.304 -13.756  -5.740  0.00  0.00     0.121 C 
BRANCH   7  11
ATOM     11  O   UNL d   1      27.456  -9.761  -7.006  0.00  0.00    -0.353 OA
ATOM     12  C   UNL d   1      26.185  -9.097  -6.893  0.00  0.00     0.210 C 
ENDBRANCH   7  11
BRANCH   8  13
ATOM     13  O   UNL d   1      29.218 -11.688  -8.162  0.00  0.00    -0.349 OA
BRANCH  13  14
ATOM     14  C   UNL d   1      29.208 -12.291  -9.450  0.00  0.00     0.171 C 
ATOM     15  C   UNL d   1      27.808 -12.160 -10.032  0.00  0.00     0.034 C 
ENDBRANCH  13  14
ENDBRANCH   8  13
BRANCH  10  16
ATOM     16  N   UNL d   1      27.206 -15.200  -5.487  0.00  0.00    -0.115 N 
ATOM     17  O   UNL d   1      28.190 -15.762  -4.998  0.00  0.00    -0.532 OA
ATOM     18  O   UNL d   1      26.156 -15.788  -5.770  0.00  0.00    -0.532 OA
ENDBRANCH  10  16
ENDBRANCH   2   5
BRANCH   1  19
ATOM     19  N   UNL d   1      24.789 -14.862  -2.356  0.00  0.00    -0.249 N 
ATOM     20  C   UNL d   1      24.861 -16.205  -1.986  0.00  0.00     0.334 C 
ATOM     21  N   UNL d   1      23.908 -16.604  -1.067  0.00  0.00    -0.342 N 
ATOM     22  O   UNL d   1      25.749 -16.952  -2.395  0.00  0.00    -0.246 OA
ATOM     23  H   UNL d   1      23.212 -15.943  -0.758  0.00  0.00     0.164 HD
ATOM     24  H   UNL d   1      23.970 -14.280  -2.216  0.00  0.00     0.192 HD
BRANCH  21  25
ATOM     25  C   UNL d   1      23.938 -17.938  -0.460  0.00  0.00     0.124 C 
BRANCH  25  26
ATOM     26  C   UNL d   1      22.853 -18.885  -0.993  0.00  0.00     0.020 C 
BRANCH  26  27
ATOM     27  C   UNL d   1      21.471 -18.575  -0.396  0.00  0.00     0.001 C 
BRANCH  27  28
ATOM     28  C   UNL d   1      20.406 -19.556  -0.895  0.00  0.00    -0.004 C 
ATOM     29  C   UNL d   1      19.284 -19.718   0.121  0.00  0.00     0.005 C 
ENDBRANCH  27  28
ENDBRANCH  26  27
ENDBRANCH  25  26
ENDBRANCH  21  25
ENDBRANCH   1  19
TORSDOF 10
ENDMDL
MODEL 9
REMARK VINA RESULT:    -5.813      1.695      3.134
REMARK INTER + INTRA:         -11.752
REMARK INTER:                  -8.796
REMARK INTRA:                  -2.956
REMARK CONF_INDEPENDENT:        2.983
REMARK UNBOUND:                -2.956
REMARK  10 active torsions:
REMARK  status: ('A' for Active; 'I' for Inactive)
REMARK    1  A    between atoms: C_2  and  C_3 
REMARK    2  A    between atoms: C_3  and  C_4 
REMARK    3  A    between atoms: C_4  and  C_5 
REMARK    4  A    between atoms: C_5  and  N_6 
REMARK       I    between atoms: N_6  and  C_7 
REMARK       I    between atoms: C_7  and  N_9 
REMARK    5  A    between atoms: N_9  and  N_10 
REMARK       I    between atoms: N_10  and  C_11 
REMARK    6  A    between atoms: C_11  and  C_13 
REMARK    7  A    between atoms: C_15  and  O_16 
REMARK    8  A    between atoms: C_18  and  O_19 
REMARK    9  A    between atoms: O_19  and  C_20 
REMARK   10  A    between atoms: C_23  and  N_24 
ROOT
ATOM      1  N   UNL d   1      25.350 -15.368  -2.280  0.00  0.00    -0.262 N 
ATOM      2  C   UNL d   1      25.544 -14.889  -3.580  0.00  0.00     0.272 C 
ATOM      3  O   UNL d   1      24.637 -14.450  -4.282  0.00  0.00    -0.266 OA
ATOM      4  H   UNL d   1      26.050 -15.967  -1.845  0.00  0.00     0.190 HD
ENDROOT
BRANCH   2   5
ATOM      5  C   UNL d   1      26.956 -14.927  -4.139  0.00  0.00     0.069 C 
ATOM      6  C   UNL d   1      27.182 -14.596  -5.509  0.00  0.00     0.059 C 
ATOM      7  C   UNL d   1      28.476 -14.676  -6.112  0.00  0.00     0.102 C 
ATOM      8  C   UNL d   1      29.582 -14.993  -5.310  0.00  0.00     0.104 C 
ATOM      9  C   UNL d   1      29.361 -15.379  -3.993  0.00  0.00     0.076 C 
ATOM     10  C   UNL d   1      28.070 -15.364  -3.409  0.00  0.00     0.121 C 
BRANCH   7  11
ATOM     11  O   UNL d   1      28.529 -14.442  -7.474  0.00  0.00    -0.353 OA
ATOM     12  C   UNL d   1      28.829 -13.104  -7.910  0.00  0.00     0.210 C 
ENDBRANCH   7  11
BRANCH   8  13
ATOM     13  O   UNL d   1      30.834 -14.892  -5.848  0.00  0.00    -0.349 OA
BRANCH  13  14
ATOM     14  C   UNL d   1      31.216 -15.707  -6.949  0.00  0.00     0.171 C 
ATOM     15  C   UNL d   1      30.870 -17.152  -6.620  0.00  0.00     0.034 C 
ENDBRANCH  13  14
ENDBRANCH   8  13
BRANCH  10  16
ATOM     16  N   UNL d   1      28.005 -15.859  -2.027  0.00  0.00    -0.115 N 
ATOM     17  O   UNL d   1      27.976 -15.021  -1.122  0.00  0.00    -0.532 OA
ATOM     18  O   UNL d   1      27.982 -17.079  -1.828  0.00  0.00    -0.532 OA
ENDBRANCH  10  16
ENDBRANCH   2   5
BRANCH   1  19
ATOM     19  N   UNL d   1      24.025 -15.656  -1.784  0.00  0.00    -0.249 N 
ATOM     20  C   UNL d   1      23.822 -16.875  -1.138  0.00  0.00     0.334 C 
ATOM     21  N   UNL d   1      22.556 -17.045  -0.608  0.00  0.00    -0.342 N 
ATOM     22  O   UNL d   1      24.724 -17.699  -0.994  0.00  0.00    -0.246 OA
ATOM     23  H   UNL d   1      21.861 -16.328  -0.747  0.00  0.00     0.164 HD
ATOM     24  H   UNL d   1      23.274 -15.055  -2.106  0.00  0.00     0.192 HD
BRANCH  21  25
ATOM     25  C   UNL d   1      22.225 -18.201   0.232  0.00  0.00     0.124 C 
BRANCH  25  26
ATOM     26  C   UNL d   1      21.486 -19.319  -0.518  0.00  0.00     0.020 C 
BRANCH  26  27
ATOM     27  C   UNL d   1      19.972 -19.066  -0.587  0.00  0.00     0.001 C 
BRANCH  27  28
ATOM     28  C   UNL d   1      19.187 -20.118   0.203  0.00  0.00    -0.004 C 
ATOM     29  C   UNL d   1      19.541 -20.077   1.683  0.00  0.00     0.005 C 
ENDBRANCH  27  28
ENDBRANCH  26  27
ENDBRANCH  25  26
ENDBRANCH  21  25
ENDBRANCH   1  19
TORSDOF 10
ENDMDL
