MODEL 1
REMARK VINA RESULT:   -23.914      0.000      0.000
REMARK INTER + INTRA:         -25.976
REMARK INTER:                 -25.703
REMARK INTRA:                  -0.273
REMARK CONF_INDEPENDENT:        1.790
REMARK UNBOUND:                -0.273
REMARK  6 active torsions:
REMARK  status: ('A' for Active; 'I' for Inactive)
REMARK    1  A    between atoms: C_2  and  C_14 
REMARK    2  A    between atoms: C_2  and  N_3 
REMARK    3  A    between atoms: N_3  and  C_4 
REMARK    4  A    between atoms: C_7  and  C_8 
REMARK       I    between atoms: C_8  and  N_9 
REMARK    5  A    between atoms: C_14  and  O_15 
REMARK    6  A    between atoms: C_14  and  C_16 
ROOT
ATOM      1  N   UNL d   1      21.731 -17.202  -1.339  0.00  0.00    -0.366 N 
ATOM      2  H   UNL d   1      21.195 -16.388  -1.623  0.00  0.00     0.161 HD
ENDROOT
BRANCH   1   3
ATOM      3  C   UNL d   1      21.065 -18.267  -0.753  0.00  0.00     0.145 A 
ATOM      4  N   UNL d   1      19.832 -18.575  -1.212  0.00  0.00    -0.241 NA
ATOM      5  C   UNL d   1      19.052 -19.446  -0.538  0.00  0.00     0.136 A 
ATOM      6  C   UNL d   1      19.483 -20.160   0.554  0.00  0.00     0.051 A 
ATOM      7  C   UNL d   1      20.781 -19.897   1.009  0.00  0.00     0.046 A 
ATOM      8  C   UNL d   1      21.565 -18.927   0.369  0.00  0.00     0.080 A 
ATOM      9 CL   UNL d   1      23.140 -18.571   0.982  0.00  0.00    -0.080 Cl
BRANCH   6  10
ATOM     10  C   UNL d   1      18.643 -21.194   1.206  0.00  0.00     0.250 C 
ATOM     11  N   UNL d   1      17.734 -21.886   0.443  0.00  0.00    -0.366 N 
ATOM     12  H   UNL d   1      17.559 -21.770  -0.543  0.00  0.00     0.159 HD
ATOM     13  H   UNL d   1      17.199 -22.604   0.915  0.00  0.00     0.159 HD
ATOM     14  O   UNL d   1      18.767 -21.443   2.392  0.00  0.00    -0.268 OA
ENDBRANCH   6  10
ENDBRANCH   1   3
BRANCH   1  15
ATOM     15  C   UNL d   1      23.199 -17.100  -1.302  0.00  0.00     0.112 C 
ATOM     16  C   UNL d   1      23.778 -18.360  -1.996  0.00  0.00     0.035 C 
BRANCH  15  17
ATOM     17  C   UNL d   1      23.692 -15.791  -2.022  0.00  0.00     0.173 C 
BRANCH  17  18
ATOM     18  O   UNL d   1      22.658 -14.790  -1.997  0.00  0.00    -0.389 OA
ATOM     19  H   UNL d   1      22.830 -14.182  -2.735  0.00  0.00     0.210 HD
ENDBRANCH  17  18
BRANCH  17  20
ATOM     20  C   UNL d   1      24.981 -15.199  -1.443  0.00  0.00    -0.028 C 
ATOM     21  C   UNL d   1      25.556 -15.689  -0.257  0.00  0.00     0.011 C 
ATOM     22  C   UNL d   1      26.833 -15.359   0.164  0.00  0.00     0.019 C 
ATOM     23  C   UNL d   1      27.499 -14.347  -0.490  0.00  0.00     0.011 C 
ATOM     24 BR   UNL d   1      29.159 -13.776   0.199  0.00  0.00    -0.051 Br
ATOM     25  C   UNL d   1      26.909 -13.721  -1.589  0.00  0.00     0.019 C 
ATOM     26  C   UNL d   1      25.675 -14.171  -2.090  0.00  0.00     0.011 C 
ENDBRANCH  17  20
ENDBRANCH  15  17
ENDBRANCH   1  15
TORSDOF 6
ENDMDL
MODEL 2
REMARK VINA RESULT:   -22.840      1.843      2.073
REMARK INTER + INTRA:         -24.069
REMARK INTER:                 -24.630
REMARK INTRA:                   0.561
REMARK CONF_INDEPENDENT:        1.790
REMARK UNBOUND:                 0.561
REMARK  6 active torsions:
REMARK  status: ('A' for Active; 'I' for Inactive)
REMARK    1  A    between atoms: C_2  and  C_14 
REMARK    2  A    between atoms: C_2  and  N_3 
REMARK    3  A    between atoms: N_3  and  C_4 
REMARK    4  A    between atoms: C_7  and  C_8 
REMARK       I    between atoms: C_8  and  N_9 
REMARK    5  A    between atoms: C_14  and  O_15 
REMARK    6  A    between atoms: C_14  and  C_16 
ROOT
ATOM      1  N   UNL d   1      21.900 -17.352  -1.422  0.00  0.00    -0.366 N 
ATOM      2  H   UNL d   1      21.430 -16.577  -1.879  0.00  0.00     0.161 HD
ENDROOT
BRANCH   1   3
ATOM      3  C   UNL d   1      21.133 -18.308  -0.775  0.00  0.00     0.145 A 
ATOM      4  N   UNL d   1      19.905 -18.578  -1.270  0.00  0.00    -0.241 NA
ATOM      5  C   UNL d   1      19.033 -19.326  -0.560  0.00  0.00     0.136 A 
ATOM      6  C   UNL d   1      19.360 -19.956   0.617  0.00  0.00     0.051 A 
ATOM      7  C   UNL d   1      20.650 -19.735   1.116  0.00  0.00     0.046 A 
ATOM      8  C   UNL d   1      21.531 -18.886   0.431  0.00  0.00     0.080 A 
ATOM      9 CL   UNL d   1      23.096 -18.575   1.092  0.00  0.00    -0.080 Cl
BRANCH   6  10
ATOM     10  C   UNL d   1      18.419 -20.863   1.317  0.00  0.00     0.250 C 
ATOM     11  N   UNL d   1      18.401 -22.193   0.972  0.00  0.00    -0.366 N 
ATOM     12  H   UNL d   1      18.970 -22.644   0.273  0.00  0.00     0.159 HD
ATOM     13  H   UNL d   1      17.767 -22.788   1.491  0.00  0.00     0.159 HD
ATOM     14  O   UNL d   1      17.687 -20.446   2.196  0.00  0.00    -0.268 OA
ENDBRANCH   6  10
ENDBRANCH   1   3
BRANCH   1  15
ATOM     15  C   UNL d   1      23.357 -17.275  -1.226  0.00  0.00     0.112 C 
ATOM     16  C   UNL d   1      24.035 -17.937  -2.454  0.00  0.00     0.035 C 
BRANCH  15  17
ATOM     17  C   UNL d   1      23.827 -15.781  -1.068  0.00  0.00     0.173 C 
BRANCH  17  18
ATOM     18  O   UNL d   1      24.420 -15.581   0.228  0.00  0.00    -0.389 OA
ATOM     19  H   UNL d   1      25.014 -16.332   0.389  0.00  0.00     0.210 HD
ENDBRANCH  17  18
BRANCH  17  20
ATOM     20  C   UNL d   1      24.805 -15.310  -2.150  0.00  0.00    -0.028 C 
ATOM     21  C   UNL d   1      26.131 -15.773  -2.204  0.00  0.00     0.011 C 
ATOM     22  C   UNL d   1      26.964 -15.571  -3.292  0.00  0.00     0.019 C 
ATOM     23  C   UNL d   1      26.556 -14.704  -4.280  0.00  0.00     0.011 C 
ATOM     24 BR   UNL d   1      27.768 -14.291  -5.665  0.00  0.00    -0.051 Br
ATOM     25  C   UNL d   1      25.302 -14.097  -4.200  0.00  0.00     0.019 C 
ATOM     26  C   UNL d   1      24.412 -14.429  -3.164  0.00  0.00     0.011 C 
ENDBRANCH  17  20
ENDBRANCH  15  17
ENDBRANCH   1  15
TORSDOF 6
ENDMDL
