MODEL 1
REMARK VINA RESULT:    -8.971      0.000      0.000
REMARK INTER + INTRA:         -11.296
REMARK INTER:                 -10.761
REMARK INTRA:                  -0.535
REMARK CONF_INDEPENDENT:        1.790
REMARK UNBOUND:                -0.535
REMARK  6 active torsions:
REMARK  status: ('A' for Active; 'I' for Inactive)
REMARK    1  A    between atoms: O_2  and  C_3 
REMARK    2  A    between atoms: C_6  and  N_7 
REMARK    3  A    between atoms: N_7  and  S_8 
REMARK    4  A    between atoms: S_8  and  C_11 
REMARK    5  A    between atoms: C_14  and  N_15 
REMARK       I    between atoms: N_15  and  C_16 
REMARK    6  A    between atoms: C_16  and  C_18 
ROOT
ATOM      1  C   UNL d   1      27.093 -14.802   0.107  0.00  0.00     0.080 A 
ATOM      2  C   UNL d   1      28.223 -15.305   0.770  0.00  0.00     0.027 A 
ATOM      3  C   UNL d   1      28.585 -14.825   2.097  0.00  0.00     0.031 A 
ATOM      4  C   UNL d   1      27.867 -13.779   2.764  0.00  0.00     0.034 A 
ATOM      5  C   UNL d   1      26.769 -13.317   2.021  0.00  0.00     0.031 A 
ATOM      6  C   UNL d   1      26.378 -13.801   0.740  0.00  0.00     0.027 A 
ENDROOT
BRANCH   4   7
ATOM      7  N   UNL d   1      28.204 -13.196   4.150  0.00  0.00    -0.324 N 
ATOM      8  C   UNL d   1      28.932 -13.925   5.221  0.00  0.00     0.262 C 
ATOM      9  O   UNL d   1      29.181 -15.128   5.077  0.00  0.00    -0.270 OA
ATOM     10  H   UNL d   1      27.832 -12.255   4.274  0.00  0.00     0.169 HD
BRANCH   8  11
ATOM     11  C   UNL d   1      29.300 -13.382   6.783  0.00  0.00     0.201 C 
ATOM     12  C   UNL d   1      28.142 -12.838   7.193  0.00  0.00     0.124 C 
ATOM     13  C   UNL d   1      28.546 -12.110   8.420  0.00  0.00     0.171 C 
ATOM     14  O   UNL d   1      29.092 -10.997   8.420  0.00  0.00    -0.292 OA
ATOM     15  C   UNL d   1      28.593 -12.898   9.612  0.00  0.00     0.044 A 
ATOM     16  C   UNL d   1      28.142 -12.398  10.867  0.00  0.00     0.018 A 
ATOM     17  C   UNL d   1      29.199 -14.128   9.387  0.00  0.00     0.084 A 
ATOM     18  C   UNL d   1      28.237 -13.172  12.013  0.00  0.00     0.001 A 
ATOM     19  C   UNL d   1      28.696 -14.477  11.846  0.00  0.00     0.003 A 
ATOM     20  C   UNL d   1      29.194 -14.956  10.554  0.00  0.00     0.038 A 
ATOM     21  O   UNL d   1      29.717 -14.407   8.009  0.00  0.00    -0.325 OA
ENDBRANCH   8  11
ENDBRANCH   4   7
BRANCH   1  22
ATOM     22  S   UNL d   1      26.471 -15.566  -1.403  0.00  0.00     0.263 S 
ATOM     23  O   UNL d   1      27.618 -15.728  -2.258  0.00  0.00    -0.200 OA
ATOM     24  O   UNL d   1      25.323 -14.774  -1.834  0.00  0.00    -0.200 OA
BRANCH  22  25
ATOM     25  N   UNL d   1      25.873 -17.110  -1.024  0.00  0.00    -0.281 N 
ATOM     26  H   UNL d   1      26.502 -17.905  -1.038  0.00  0.00     0.179 HD
BRANCH  25  27
ATOM     27  C   UNL d   1      24.449 -17.366  -0.972  0.00  0.00     0.042 A 
ATOM     28  C   UNL d   1      23.569 -16.332  -0.622  0.00  0.00     0.033 A 
ATOM     29  C   UNL d   1      22.182 -16.570  -0.528  0.00  0.00     0.039 A 
ATOM     30  C   UNL d   1      21.643 -17.814  -0.862  0.00  0.00     0.068 A 
ATOM     31  C   UNL d   1      22.508 -18.832  -1.242  0.00  0.00     0.039 A 
ATOM     32  C   UNL d   1      23.892 -18.604  -1.300  0.00  0.00     0.033 A 
BRANCH  30  33
ATOM     33  O   UNL d   1      20.279 -17.890  -0.895  0.00  0.00    -0.356 OA
ATOM     34  C   UNL d   1      19.706 -19.193  -0.832  0.00  0.00     0.210 C 
ENDBRANCH  30  33
ENDBRANCH  25  27
ENDBRANCH  22  25
ENDBRANCH   1  22
TORSDOF 6
ENDMDL
MODEL 2
REMARK VINA RESULT:    -8.596      4.149      5.988
REMARK INTER + INTRA:         -11.199
REMARK INTER:                 -10.385
REMARK INTRA:                  -0.813
REMARK CONF_INDEPENDENT:        1.790
REMARK UNBOUND:                -0.813
REMARK  6 active torsions:
REMARK  status: ('A' for Active; 'I' for Inactive)
REMARK    1  A    between atoms: O_2  and  C_3 
REMARK    2  A    between atoms: C_6  and  N_7 
REMARK    3  A    between atoms: N_7  and  S_8 
REMARK    4  A    between atoms: S_8  and  C_11 
REMARK    5  A    between atoms: C_14  and  N_15 
REMARK       I    between atoms: N_15  and  C_16 
REMARK    6  A    between atoms: C_16  and  C_18 
ROOT
ATOM      1  C   UNL d   1      26.579 -14.920  -3.036  0.00  0.00     0.080 A 
ATOM      2  C   UNL d   1      26.015 -15.947  -2.263  0.00  0.00     0.027 A 
ATOM      3  C   UNL d   1      26.403 -16.133  -0.870  0.00  0.00     0.031 A 
ATOM      4  C   UNL d   1      27.416 -15.340  -0.237  0.00  0.00     0.034 A 
ATOM      5  C   UNL d   1      27.943 -14.355  -1.087  0.00  0.00     0.031 A 
ATOM      6  C   UNL d   1      27.549 -14.136  -2.439  0.00  0.00     0.027 A 
ENDROOT
BRANCH   4   7
ATOM      7  N   UNL d   1      27.902 -15.492   1.217  0.00  0.00    -0.324 N 
ATOM      8  C   UNL d   1      27.631 -14.520   2.307  0.00  0.00     0.262 C 
ATOM      9  O   UNL d   1      27.100 -13.437   2.037  0.00  0.00    -0.270 OA
ATOM     10  H   UNL d   1      28.476 -16.326   1.347  0.00  0.00     0.169 HD
BRANCH   8  11
ATOM     11  C   UNL d   1      28.166 -14.583   3.913  0.00  0.00     0.201 C 
ATOM     12  C   UNL d   1      29.418 -14.102   3.833  0.00  0.00     0.124 C 
ATOM     13  C   UNL d   1      29.976 -14.435   5.165  0.00  0.00     0.171 C 
ATOM     14  O   UNL d   1      30.405 -15.555   5.480  0.00  0.00    -0.292 OA
ATOM     15  C   UNL d   1      29.685 -13.495   6.203  0.00  0.00     0.044 A 
ATOM     16  C   UNL d   1      30.652 -13.127   7.181  0.00  0.00     0.018 A 
ATOM     17  C   UNL d   1      28.358 -13.087   6.166  0.00  0.00     0.084 A 
ATOM     18  C   UNL d   1      30.330 -12.242   8.198  0.00  0.00     0.001 A 
ATOM     19  C   UNL d   1      29.060 -11.670   8.146  0.00  0.00     0.003 A 
ATOM     20  C   UNL d   1      28.068 -12.095   7.155  0.00  0.00     0.038 A 
ATOM     21  O   UNL d   1      27.472 -13.695   5.120  0.00  0.00    -0.325 OA
ENDBRANCH   8  11
ENDBRANCH   4   7
BRANCH   1  22
ATOM     22  S   UNL d   1      25.924 -14.501  -4.662  0.00  0.00     0.263 S 
ATOM     23  O   UNL d   1      24.550 -14.131  -4.446  0.00  0.00    -0.200 OA
ATOM     24  O   UNL d   1      26.271 -15.603  -5.552  0.00  0.00    -0.200 OA
BRANCH  22  25
ATOM     25  N   UNL d   1      26.753 -13.136  -5.244  0.00  0.00    -0.281 N 
ATOM     26  H   UNL d   1      27.715 -13.230  -5.549  0.00  0.00     0.179 HD
BRANCH  25  27
ATOM     27  C   UNL d   1      26.227 -11.803  -5.041  0.00  0.00     0.042 A 
ATOM     28  C   UNL d   1      25.843 -11.030  -6.147  0.00  0.00     0.033 A 
ATOM     29  C   UNL d   1      25.365  -9.714  -5.973  0.00  0.00     0.039 A 
ATOM     30  C   UNL d   1      25.182  -9.180  -4.696  0.00  0.00     0.068 A 
ATOM     31  C   UNL d   1      25.530  -9.954  -3.596  0.00  0.00     0.039 A 
ATOM     32  C   UNL d   1      26.040 -11.250  -3.772  0.00  0.00     0.033 A 
BRANCH  30  33
ATOM     33  O   UNL d   1      24.562  -7.964  -4.635  0.00  0.00    -0.356 OA
ATOM     34  C   UNL d   1      23.367  -7.813  -5.395  0.00  0.00     0.210 C 
ENDBRANCH  30  33
ENDBRANCH  25  27
ENDBRANCH  22  25
ENDBRANCH   1  22
TORSDOF 6
ENDMDL
MODEL 3
REMARK VINA RESULT:    -8.584      1.488      2.215
REMARK INTER + INTRA:         -10.997
REMARK INTER:                 -10.374
REMARK INTRA:                  -0.622
REMARK CONF_INDEPENDENT:        1.790
REMARK UNBOUND:                -0.622
REMARK  6 active torsions:
REMARK  status: ('A' for Active; 'I' for Inactive)
REMARK    1  A    between atoms: O_2  and  C_3 
REMARK    2  A    between atoms: C_6  and  N_7 
REMARK    3  A    between atoms: N_7  and  S_8 
REMARK    4  A    between atoms: S_8  and  C_11 
REMARK    5  A    between atoms: C_14  and  N_15 
REMARK       I    between atoms: N_15  and  C_16 
REMARK    6  A    between atoms: C_16  and  C_18 
ROOT
ATOM      1  C   UNL d   1      27.394 -14.891   0.513  0.00  0.00     0.080 A 
ATOM      2  C   UNL d   1      28.497 -15.122   1.351  0.00  0.00     0.027 A 
ATOM      3  C   UNL d   1      28.609 -14.452   2.640  0.00  0.00     0.031 A 
ATOM      4  C   UNL d   1      27.657 -13.480   3.091  0.00  0.00     0.034 A 
ATOM      5  C   UNL d   1      26.603 -13.291   2.184  0.00  0.00     0.031 A 
ATOM      6  C   UNL d   1      26.458 -13.966   0.937  0.00  0.00     0.027 A 
ENDROOT
BRANCH   4   7
ATOM      7  N   UNL d   1      27.721 -12.707   4.423  0.00  0.00    -0.324 N 
ATOM      8  C   UNL d   1      28.097 -13.303   5.731  0.00  0.00     0.262 C 
ATOM      9  O   UNL d   1      28.243 -14.528   5.821  0.00  0.00    -0.270 OA
ATOM     10  H   UNL d   1      27.432 -11.734   4.320  0.00  0.00     0.169 HD
BRANCH   8  11
ATOM     11  C   UNL d   1      28.145 -12.545   7.245  0.00  0.00     0.201 C 
ATOM     12  C   UNL d   1      28.951 -13.348   7.959  0.00  0.00     0.124 C 
ATOM     13  C   UNL d   1      28.751 -12.854   9.343  0.00  0.00     0.171 C 
ATOM     14  O   UNL d   1      27.785 -13.157  10.057  0.00  0.00    -0.292 OA
ATOM     15  C   UNL d   1      29.552 -11.728   9.713  0.00  0.00     0.044 A 
ATOM     16  C   UNL d   1      30.147 -11.615  11.002  0.00  0.00     0.018 A 
ATOM     17  C   UNL d   1      29.582 -10.772   8.707  0.00  0.00     0.084 A 
ATOM     18  C   UNL d   1      30.885 -10.494  11.345  0.00  0.00     0.001 A 
ATOM     19  C   UNL d   1      31.090  -9.552  10.338  0.00  0.00     0.003 A 
ATOM     20  C   UNL d   1      30.434  -9.669   9.033  0.00  0.00     0.038 A 
ATOM     21  O   UNL d   1      28.781 -11.038   7.468  0.00  0.00    -0.325 OA
ENDBRANCH   8  11
ENDBRANCH   4   7
BRANCH   1  22
ATOM     22  S   UNL d   1      27.096 -15.902  -0.949  0.00  0.00     0.263 S 
ATOM     23  O   UNL d   1      28.398 -16.286  -1.429  0.00  0.00    -0.200 OA
ATOM     24  O   UNL d   1      26.178 -15.151  -1.799  0.00  0.00    -0.200 OA
BRANCH  22  25
ATOM     25  N   UNL d   1      26.270 -17.309  -0.476  0.00  0.00    -0.281 N 
ATOM     26  H   UNL d   1      26.796 -18.156  -0.289  0.00  0.00     0.179 HD
BRANCH  25  27
ATOM     27  C   UNL d   1      24.834 -17.414  -0.621  0.00  0.00     0.042 A 
ATOM     28  C   UNL d   1      24.220 -18.675  -0.582  0.00  0.00     0.033 A 
ATOM     29  C   UNL d   1      22.827 -18.802  -0.760  0.00  0.00     0.039 A 
ATOM     30  C   UNL d   1      22.015 -17.674  -0.894  0.00  0.00     0.068 A 
ATOM     31  C   UNL d   1      22.614 -16.421  -0.899  0.00  0.00     0.039 A 
ATOM     32  C   UNL d   1      24.005 -16.298  -0.759  0.00  0.00     0.033 A 
BRANCH  30  33
ATOM     33  O   UNL d   1      20.667 -17.899  -0.895  0.00  0.00    -0.356 OA
ATOM     34  C   UNL d   1      20.241 -19.253  -0.777  0.00  0.00     0.210 C 
ENDBRANCH  30  33
ENDBRANCH  25  27
ENDBRANCH  22  25
ENDBRANCH   1  22
TORSDOF 6
ENDMDL
MODEL 4
REMARK VINA RESULT:    -8.519      6.748     10.904
REMARK INTER + INTRA:         -10.924
REMARK INTER:                 -10.309
REMARK INTRA:                  -0.616
REMARK CONF_INDEPENDENT:        1.790
REMARK UNBOUND:                -0.616
REMARK  6 active torsions:
REMARK  status: ('A' for Active; 'I' for Inactive)
REMARK    1  A    between atoms: O_2  and  C_3 
REMARK    2  A    between atoms: C_6  and  N_7 
REMARK    3  A    between atoms: N_7  and  S_8 
REMARK    4  A    between atoms: S_8  and  C_11 
REMARK    5  A    between atoms: C_14  and  N_15 
REMARK       I    between atoms: N_15  and  C_16 
REMARK    6  A    between atoms: C_16  and  C_18 
ROOT
ATOM      1  C   UNL d   1      26.385 -15.417  -1.440  0.00  0.00     0.080 A 
ATOM      2  C   UNL d   1      26.169 -15.612  -2.814  0.00  0.00     0.027 A 
ATOM      3  C   UNL d   1      25.916 -14.481  -3.697  0.00  0.00     0.031 A 
ATOM      4  C   UNL d   1      25.802 -13.135  -3.218  0.00  0.00     0.034 A 
ATOM      5  C   UNL d   1      26.006 -13.034  -1.833  0.00  0.00     0.031 A 
ATOM      6  C   UNL d   1      26.292 -14.123  -0.960  0.00  0.00     0.027 A 
ENDROOT
BRANCH   4   7
ATOM      7  N   UNL d   1      25.508 -11.893  -4.081  0.00  0.00    -0.324 N 
ATOM      8  C   UNL d   1      25.987 -10.519  -3.780  0.00  0.00     0.262 C 
ATOM      9  O   UNL d   1      26.547 -10.294  -2.701  0.00  0.00    -0.270 OA
ATOM     10  H   UNL d   1      24.903 -12.108  -4.874  0.00  0.00     0.169 HD
BRANCH   8  11
ATOM     11  C   UNL d   1      25.670  -9.095  -4.642  0.00  0.00     0.201 C 
ATOM     12  C   UNL d   1      25.354  -9.548  -5.866  0.00  0.00     0.124 C 
ATOM     13  C   UNL d   1      25.372  -8.310  -6.681  0.00  0.00     0.171 C 
ATOM     14  O   UNL d   1      26.403  -7.782  -7.122  0.00  0.00    -0.292 OA
ATOM     15  C   UNL d   1      24.165  -7.543  -6.656  0.00  0.00     0.044 A 
ATOM     16  C   UNL d   1      23.646  -6.914  -7.824  0.00  0.00     0.018 A 
ATOM     17  C   UNL d   1      23.654  -7.436  -5.369  0.00  0.00     0.084 A 
ATOM     18  C   UNL d   1      22.495  -6.144  -7.761  0.00  0.00     0.001 A 
ATOM     19  C   UNL d   1      21.836  -6.109  -6.533  0.00  0.00     0.003 A 
ATOM     20  C   UNL d   1      22.411  -6.729  -5.337  0.00  0.00     0.038 A 
ATOM     21  O   UNL d   1      24.429  -8.077  -4.258  0.00  0.00    -0.325 OA
ENDBRANCH   8  11
ENDBRANCH   4   7
BRANCH   1  22
ATOM     22  S   UNL d   1      26.964 -16.755  -0.380  0.00  0.00     0.263 S 
ATOM     23  O   UNL d   1      26.658 -16.346   0.966  0.00  0.00    -0.200 OA
ATOM     24  O   UNL d   1      28.337 -17.044  -0.780  0.00  0.00    -0.200 OA
BRANCH  22  25
ATOM     25  N   UNL d   1      26.060 -18.151  -0.726  0.00  0.00    -0.281 N 
ATOM     26  H   UNL d   1      26.522 -18.956  -1.135  0.00  0.00     0.179 HD
BRANCH  25  27
ATOM     27  C   UNL d   1      24.613 -18.119  -0.730  0.00  0.00     0.042 A 
ATOM     28  C   UNL d   1      23.944 -16.898  -0.899  0.00  0.00     0.033 A 
ATOM     29  C   UNL d   1      22.535 -16.839  -0.867  0.00  0.00     0.039 A 
ATOM     30  C   UNL d   1      21.771 -18.002  -0.752  0.00  0.00     0.068 A 
ATOM     31  C   UNL d   1      22.428 -19.218  -0.618  0.00  0.00     0.039 A 
ATOM     32  C   UNL d   1      23.831 -19.271  -0.613  0.00  0.00     0.033 A 
BRANCH  30  33
ATOM     33  O   UNL d   1      20.420 -17.852  -0.896  0.00  0.00    -0.356 OA
ATOM     34  C   UNL d   1      19.605 -18.948  -0.491  0.00  0.00     0.210 C 
ENDBRANCH  30  33
ENDBRANCH  25  27
ENDBRANCH  22  25
ENDBRANCH   1  22
TORSDOF 6
ENDMDL
MODEL 5
REMARK VINA RESULT:    -8.416      4.278      6.052
REMARK INTER + INTRA:         -10.972
REMARK INTER:                 -10.205
REMARK INTRA:                  -0.767
REMARK CONF_INDEPENDENT:        1.790
REMARK UNBOUND:                -0.767
REMARK  6 active torsions:
REMARK  status: ('A' for Active; 'I' for Inactive)
REMARK    1  A    between atoms: O_2  and  C_3 
REMARK    2  A    between atoms: C_6  and  N_7 
REMARK    3  A    between atoms: N_7  and  S_8 
REMARK    4  A    between atoms: S_8  and  C_11 
REMARK    5  A    between atoms: C_14  and  N_15 
REMARK       I    between atoms: N_15  and  C_16 
REMARK    6  A    between atoms: C_16  and  C_18 
ROOT
ATOM      1  C   UNL d   1      26.675 -14.671  -2.972  0.00  0.00     0.080 A 
ATOM      2  C   UNL d   1      26.375 -15.861  -2.292  0.00  0.00     0.027 A 
ATOM      3  C   UNL d   1      26.577 -15.970  -0.853  0.00  0.00     0.031 A 
ATOM      4  C   UNL d   1      27.151 -14.914  -0.070  0.00  0.00     0.034 A 
ATOM      5  C   UNL d   1      27.444 -13.773  -0.833  0.00  0.00     0.031 A 
ATOM      6  C   UNL d   1      27.218 -13.636  -2.233  0.00  0.00     0.027 A 
ENDROOT
BRANCH   4   7
ATOM      7  N   UNL d   1      27.424 -14.962   1.445  0.00  0.00    -0.324 N 
ATOM      8  C   UNL d   1      27.056 -13.890   2.407  0.00  0.00     0.262 C 
ATOM      9  O   UNL d   1      26.623 -12.813   1.980  0.00  0.00    -0.270 OA
ATOM     10  H   UNL d   1      27.930 -15.804   1.721  0.00  0.00     0.169 HD
BRANCH   8  11
ATOM     11  C   UNL d   1      27.360 -13.838   4.072  0.00  0.00     0.201 C 
ATOM     12  C   UNL d   1      28.574 -14.402   4.174  0.00  0.00     0.124 C 
ATOM     13  C   UNL d   1      28.703 -14.624   5.635  0.00  0.00     0.171 C 
ATOM     14  O   UNL d   1      28.189 -15.574   6.242  0.00  0.00    -0.292 OA
ATOM     15  C   UNL d   1      29.167 -13.499   6.386  0.00  0.00     0.044 A 
ATOM     16  C   UNL d   1      30.090 -13.638   7.462  0.00  0.00     0.018 A 
ATOM     17  C   UNL d   1      28.543 -12.325   5.986  0.00  0.00     0.084 A 
ATOM     18  C   UNL d   1      30.491 -12.534   8.198  0.00  0.00     0.001 A 
ATOM     19  C   UNL d   1      30.025 -11.294   7.763  0.00  0.00     0.003 A 
ATOM     20  C   UNL d   1      29.044 -11.180   6.681  0.00  0.00     0.038 A 
ATOM     21  O   UNL d   1      27.505 -12.421   4.909  0.00  0.00    -0.325 OA
ENDBRANCH   8  11
ENDBRANCH   4   7
BRANCH   1  22
ATOM     22  S   UNL d   1      26.184 -14.420  -4.689  0.00  0.00     0.263 S 
ATOM     23  O   UNL d   1      24.775 -14.130  -4.652  0.00  0.00    -0.200 OA
ATOM     24  O   UNL d   1      26.694 -15.560  -5.443  0.00  0.00    -0.200 OA
BRANCH  22  25
ATOM     25  N   UNL d   1      26.990 -13.049  -5.288  0.00  0.00    -0.281 N 
ATOM     26  H   UNL d   1      27.979 -13.107  -5.503  0.00  0.00     0.179 HD
BRANCH  25  27
ATOM     27  C   UNL d   1      26.381 -11.738  -5.220  0.00  0.00     0.042 A 
ATOM     28  C   UNL d   1      26.102 -11.164  -3.970  0.00  0.00     0.033 A 
ATOM     29  C   UNL d   1      25.474  -9.905  -3.882  0.00  0.00     0.039 A 
ATOM     30  C   UNL d   1      25.190  -9.162  -5.030  0.00  0.00     0.068 A 
ATOM     31  C   UNL d   1      25.494  -9.712  -6.269  0.00  0.00     0.039 A 
ATOM     32  C   UNL d   1      26.087 -10.982  -6.356  0.00  0.00     0.033 A 
BRANCH  30  33
ATOM     33  O   UNL d   1      24.733  -7.890  -4.827  0.00  0.00    -0.356 OA
ATOM     34  C   UNL d   1      23.449  -7.576  -5.358  0.00  0.00     0.210 C 
ENDBRANCH  30  33
ENDBRANCH  25  27
ENDBRANCH  22  25
ENDBRANCH   1  22
TORSDOF 6
ENDMDL
MODEL 6
REMARK VINA RESULT:    -8.351      6.153      9.770
REMARK INTER + INTRA:         -11.263
REMARK INTER:                 -10.141
REMARK INTRA:                  -1.122
REMARK CONF_INDEPENDENT:        1.790
REMARK UNBOUND:                -1.122
REMARK  6 active torsions:
REMARK  status: ('A' for Active; 'I' for Inactive)
REMARK    1  A    between atoms: O_2  and  C_3 
REMARK    2  A    between atoms: C_6  and  N_7 
REMARK    3  A    between atoms: N_7  and  S_8 
REMARK    4  A    between atoms: S_8  and  C_11 
REMARK    5  A    between atoms: C_14  and  N_15 
REMARK       I    between atoms: N_15  and  C_16 
REMARK    6  A    between atoms: C_16  and  C_18 
ROOT
ATOM      1  C   UNL d   1      29.564 -16.156  -0.232  0.00  0.00     0.080 A 
ATOM      2  C   UNL d   1      28.924 -17.322  -0.680  0.00  0.00     0.027 A 
ATOM      3  C   UNL d   1      27.471 -17.426  -0.674  0.00  0.00     0.031 A 
ATOM      4  C   UNL d   1      26.623 -16.393  -0.153  0.00  0.00     0.034 A 
ATOM      5  C   UNL d   1      27.344 -15.276   0.297  0.00  0.00     0.031 A 
ATOM      6  C   UNL d   1      28.763 -15.142   0.263  0.00  0.00     0.027 A 
ENDROOT
BRANCH   4   7
ATOM      7  N   UNL d   1      25.085 -16.439  -0.084  0.00  0.00    -0.324 N 
ATOM      8  C   UNL d   1      24.285 -17.663   0.185  0.00  0.00     0.262 C 
ATOM      9  O   UNL d   1      24.851 -18.762   0.224  0.00  0.00    -0.270 OA
ATOM     10  H   UNL d   1      24.661 -15.534  -0.286  0.00  0.00     0.169 HD
BRANCH   8  11
ATOM     11  C   UNL d   1      22.599 -17.814   0.230  0.00  0.00     0.201 C 
ATOM     12  C   UNL d   1      22.336 -18.572  -0.847  0.00  0.00     0.124 C 
ATOM     13  C   UNL d   1      20.863 -18.452  -0.973  0.00  0.00     0.171 C 
ATOM     14  O   UNL d   1      20.285 -17.485  -1.489  0.00  0.00    -0.292 OA
ATOM     15  C   UNL d   1      20.104 -19.351  -0.159  0.00  0.00     0.044 A 
ATOM     16  C   UNL d   1      18.924 -19.989  -0.636  0.00  0.00     0.018 A 
ATOM     17  C   UNL d   1      20.617 -19.429   1.130  0.00  0.00     0.084 A 
ATOM     18  C   UNL d   1      18.187 -20.824   0.188  0.00  0.00     0.001 A 
ATOM     19  C   UNL d   1      18.718 -21.075   1.453  0.00  0.00     0.003 A 
ATOM     20  C   UNL d   1      19.910 -20.375   1.937  0.00  0.00     0.038 A 
ATOM     21  O   UNL d   1      21.803 -18.575   1.460  0.00  0.00    -0.325 OA
ENDBRANCH   8  11
ENDBRANCH   4   7
BRANCH   1  22
ATOM     22  S   UNL d   1      31.330 -15.897  -0.480  0.00  0.00     0.263 S 
ATOM     23  O   UNL d   1      31.983 -16.974   0.218  0.00  0.00    -0.200 OA
ATOM     24  O   UNL d   1      31.605 -14.507  -0.135  0.00  0.00    -0.200 OA
BRANCH  22  25
ATOM     25  N   UNL d   1      31.674 -16.057  -2.137  0.00  0.00    -0.281 N 
ATOM     26  H   UNL d   1      32.638 -16.143  -2.439  0.00  0.00     0.179 HD
BRANCH  25  27
ATOM     27  C   UNL d   1      30.666 -15.778  -3.137  0.00  0.00     0.042 A 
ATOM     28  C   UNL d   1      30.193 -16.814  -3.956  0.00  0.00     0.033 A 
ATOM     29  C   UNL d   1      29.239 -16.556  -4.963  0.00  0.00     0.039 A 
ATOM     30  C   UNL d   1      28.681 -15.285  -5.113  0.00  0.00     0.068 A 
ATOM     31  C   UNL d   1      29.121 -14.263  -4.281  0.00  0.00     0.039 A 
ATOM     32  C   UNL d   1      30.097 -14.513  -3.304  0.00  0.00     0.033 A 
BRANCH  30  33
ATOM     33  O   UNL d   1      27.650 -15.181  -6.005  0.00  0.00    -0.356 OA
ATOM     34  C   UNL d   1      26.331 -15.200  -5.468  0.00  0.00     0.210 C 
ENDBRANCH  30  33
ENDBRANCH  25  27
ENDBRANCH  22  25
ENDBRANCH   1  22
TORSDOF 6
ENDMDL
MODEL 7
REMARK VINA RESULT:    -8.296      1.669      2.097
REMARK INTER + INTRA:         -10.829
REMARK INTER:                 -10.086
REMARK INTRA:                  -0.744
REMARK CONF_INDEPENDENT:        1.790
REMARK UNBOUND:                -0.744
REMARK  6 active torsions:
REMARK  status: ('A' for Active; 'I' for Inactive)
REMARK    1  A    between atoms: O_2  and  C_3 
REMARK    2  A    between atoms: C_6  and  N_7 
REMARK    3  A    between atoms: N_7  and  S_8 
REMARK    4  A    between atoms: S_8  and  C_11 
REMARK    5  A    between atoms: C_14  and  N_15 
REMARK       I    between atoms: N_15  and  C_16 
REMARK    6  A    between atoms: C_16  and  C_18 
ROOT
ATOM      1  C   UNL d   1      29.496 -15.242  -0.059  0.00  0.00     0.080 A 
ATOM      2  C   UNL d   1      30.793 -15.408   0.450  0.00  0.00     0.027 A 
ATOM      3  C   UNL d   1      31.108 -15.050   1.826  0.00  0.00     0.031 A 
ATOM      4  C   UNL d   1      30.149 -14.450   2.708  0.00  0.00     0.034 A 
ATOM      5  C   UNL d   1      28.888 -14.297   2.112  0.00  0.00     0.031 A 
ATOM      6  C   UNL d   1      28.553 -14.677   0.780  0.00  0.00     0.027 A 
ENDROOT
BRANCH   4   7
ATOM      7  N   UNL d   1      30.411 -14.016   4.163  0.00  0.00    -0.324 N 
ATOM      8  C   UNL d   1      29.353 -13.755   5.172  0.00  0.00     0.262 C 
ATOM      9  O   UNL d   1      28.167 -13.742   4.820  0.00  0.00    -0.270 OA
ATOM     10  H   UNL d   1      31.404 -13.884   4.354  0.00  0.00     0.169 HD
BRANCH   8  11
ATOM     11  C   UNL d   1      29.547 -13.229   6.771  0.00  0.00     0.201 C 
ATOM     12  C   UNL d   1      28.302 -12.866   7.121  0.00  0.00     0.124 C 
ATOM     13  C   UNL d   1      28.527 -12.138   8.393  0.00  0.00     0.171 C 
ATOM     14  O   UNL d   1      28.911 -10.962   8.464  0.00  0.00    -0.292 OA
ATOM     15  C   UNL d   1      28.612 -12.959   9.562  0.00  0.00     0.044 A 
ATOM     16  C   UNL d   1      28.021 -12.575  10.799  0.00  0.00     0.018 A 
ATOM     17  C   UNL d   1      29.396 -14.084   9.339  0.00  0.00     0.084 A 
ATOM     18  C   UNL d   1      28.154 -13.373  11.925  0.00  0.00     0.001 A 
ATOM     19  C   UNL d   1      28.800 -14.595  11.748  0.00  0.00     0.003 A 
ATOM     20  C   UNL d   1      29.436 -14.950  10.477  0.00  0.00     0.038 A 
ATOM     21  O   UNL d   1      30.029 -14.235   7.989  0.00  0.00    -0.325 OA
ENDBRANCH   8  11
ENDBRANCH   4   7
BRANCH   1  22
ATOM     22  S   UNL d   1      29.017 -15.924  -1.658  0.00  0.00     0.263 S 
ATOM     23  O   UNL d   1      29.152 -17.351  -1.528  0.00  0.00    -0.200 OA
ATOM     24  O   UNL d   1      29.769 -15.190  -2.670  0.00  0.00    -0.200 OA
BRANCH  22  25
ATOM     25  N   UNL d   1      27.377 -15.571  -1.929  0.00  0.00    -0.281 N 
ATOM     26  H   UNL d   1      27.123 -14.693  -2.368  0.00  0.00     0.179 HD
BRANCH  25  27
ATOM     27  C   UNL d   1      26.334 -16.344  -1.290  0.00  0.00     0.042 A 
ATOM     28  C   UNL d   1      24.991 -16.103  -1.616  0.00  0.00     0.033 A 
ATOM     29  C   UNL d   1      23.956 -16.818  -0.976  0.00  0.00     0.039 A 
ATOM     30  C   UNL d   1      24.246 -17.839  -0.068  0.00  0.00     0.068 A 
ATOM     31  C   UNL d   1      25.575 -18.104   0.233  0.00  0.00     0.039 A 
ATOM     32  C   UNL d   1      26.602 -17.366  -0.377  0.00  0.00     0.033 A 
BRANCH  30  33
ATOM     33  O   UNL d   1      23.180 -18.576   0.368  0.00  0.00    -0.356 OA
ATOM     34  C   UNL d   1      22.215 -18.953  -0.610  0.00  0.00     0.210 C 
ENDBRANCH  30  33
ENDBRANCH  25  27
ENDBRANCH  22  25
ENDBRANCH   1  22
TORSDOF 6
ENDMDL
MODEL 8
REMARK VINA RESULT:    -8.255      7.470     10.875
REMARK INTER + INTRA:         -10.740
REMARK INTER:                 -10.045
REMARK INTRA:                  -0.695
REMARK CONF_INDEPENDENT:        1.790
REMARK UNBOUND:                -0.695
REMARK  6 active torsions:
REMARK  status: ('A' for Active; 'I' for Inactive)
REMARK    1  A    between atoms: O_2  and  C_3 
REMARK    2  A    between atoms: C_6  and  N_7 
REMARK    3  A    between atoms: N_7  and  S_8 
REMARK    4  A    between atoms: S_8  and  C_11 
REMARK    5  A    between atoms: C_14  and  N_15 
REMARK       I    between atoms: N_15  and  C_16 
REMARK    6  A    between atoms: C_16  and  C_18 
ROOT
ATOM      1  C   UNL d   1      24.969 -16.942  -1.019  0.00  0.00     0.080 A 
ATOM      2  C   UNL d   1      24.275 -16.052  -1.853  0.00  0.00     0.027 A 
ATOM      3  C   UNL d   1      24.993 -15.162  -2.756  0.00  0.00     0.031 A 
ATOM      4  C   UNL d   1      26.424 -15.090  -2.797  0.00  0.00     0.034 A 
ATOM      5  C   UNL d   1      27.037 -15.994  -1.916  0.00  0.00     0.031 A 
ATOM      6  C   UNL d   1      26.351 -16.898  -1.053  0.00  0.00     0.027 A 
ENDROOT
BRANCH   4   7
ATOM      7  N   UNL d   1      27.254 -14.158  -3.700  0.00  0.00    -0.324 N 
ATOM      8  C   UNL d   1      27.628 -14.453  -5.108  0.00  0.00     0.262 C 
ATOM      9  O   UNL d   1      27.392 -15.573  -5.577  0.00  0.00    -0.270 OA
ATOM     10  H   UNL d   1      27.563 -13.318  -3.209  0.00  0.00     0.169 HD
BRANCH   8  11
ATOM     11  C   UNL d   1      28.575 -13.514  -6.151  0.00  0.00     0.201 C 
ATOM     12  C   UNL d   1      29.484 -12.970  -5.326  0.00  0.00     0.124 C 
ATOM     13  C   UNL d   1      30.112 -11.932  -6.178  0.00  0.00     0.171 C 
ATOM     14  O   UNL d   1      29.616 -10.817  -6.397  0.00  0.00    -0.292 OA
ATOM     15  C   UNL d   1      31.165 -12.393  -7.029  0.00  0.00     0.044 A 
ATOM     16  C   UNL d   1      32.348 -11.630  -7.249  0.00  0.00     0.018 A 
ATOM     17  C   UNL d   1      30.835 -13.592  -7.647  0.00  0.00     0.084 A 
ATOM     18  C   UNL d   1      33.334 -12.084  -8.109  0.00  0.00     0.001 A 
ATOM     19  C   UNL d   1      33.147 -13.354  -8.655  0.00  0.00     0.003 A 
ATOM     20  C   UNL d   1      31.904 -14.101  -8.449  0.00  0.00     0.038 A 
ATOM     21  O   UNL d   1      29.479 -14.168  -7.369  0.00  0.00    -0.325 OA
ENDBRANCH   8  11
ENDBRANCH   4   7
BRANCH   1  22
ATOM     22  S   UNL d   1      24.110 -18.232  -0.099  0.00  0.00     0.263 S 
ATOM     23  O   UNL d   1      24.824 -18.365   1.145  0.00  0.00    -0.200 OA
ATOM     24  O   UNL d   1      23.966 -19.369  -1.002  0.00  0.00    -0.200 OA
BRANCH  22  25
ATOM     25  N   UNL d   1      22.537 -17.694   0.250  0.00  0.00    -0.281 N 
ATOM     26  H   UNL d   1      22.409 -16.828   0.762  0.00  0.00     0.179 HD
BRANCH  25  27
ATOM     27  C   UNL d   1      21.398 -18.574   0.100  0.00  0.00     0.042 A 
ATOM     28  C   UNL d   1      20.878 -19.238   1.221  0.00  0.00     0.033 A 
ATOM     29  C   UNL d   1      19.794 -20.130   1.090  0.00  0.00     0.039 A 
ATOM     30  C   UNL d   1      19.158 -20.310  -0.140  0.00  0.00     0.068 A 
ATOM     31  C   UNL d   1      19.648 -19.630  -1.247  0.00  0.00     0.039 A 
ATOM     32  C   UNL d   1      20.750 -18.770  -1.122  0.00  0.00     0.033 A 
BRANCH  30  33
ATOM     33  O   UNL d   1      18.020 -21.067  -0.124  0.00  0.00    -0.356 OA
ATOM     34  C   UNL d   1      17.674 -21.684   1.113  0.00  0.00     0.210 C 
ENDBRANCH  30  33
ENDBRANCH  25  27
ENDBRANCH  22  25
ENDBRANCH   1  22
TORSDOF 6
ENDMDL
MODEL 9
REMARK VINA RESULT:    -8.165      6.795     10.259
REMARK INTER + INTRA:         -10.809
REMARK INTER:                  -9.955
REMARK INTRA:                  -0.854
REMARK CONF_INDEPENDENT:        1.790
REMARK UNBOUND:                -0.854
REMARK  6 active torsions:
REMARK  status: ('A' for Active; 'I' for Inactive)
REMARK    1  A    between atoms: O_2  and  C_3 
REMARK    2  A    between atoms: C_6  and  N_7 
REMARK    3  A    between atoms: N_7  and  S_8 
REMARK    4  A    between atoms: S_8  and  C_11 
REMARK    5  A    between atoms: C_14  and  N_15 
REMARK       I    between atoms: N_15  and  C_16 
REMARK    6  A    between atoms: C_16  and  C_18 
ROOT
ATOM      1  C   UNL d   1      29.619 -16.690  -1.300  0.00  0.00     0.080 A 
ATOM      2  C   UNL d   1      28.845 -16.311  -2.408  0.00  0.00     0.027 A 
ATOM      3  C   UNL d   1      27.391 -16.284  -2.329  0.00  0.00     0.031 A 
ATOM      4  C   UNL d   1      26.671 -16.703  -1.162  0.00  0.00     0.034 A 
ATOM      5  C   UNL d   1      27.519 -17.089  -0.112  0.00  0.00     0.031 A 
ATOM      6  C   UNL d   1      28.943 -17.085  -0.159  0.00  0.00     0.027 A 
ENDROOT
BRANCH   4   7
ATOM      7  N   UNL d   1      25.138 -16.732  -1.011  0.00  0.00    -0.324 N 
ATOM      8  C   UNL d   1      24.390 -17.678  -0.144  0.00  0.00     0.262 C 
ATOM      9  O   UNL d   1      24.995 -18.609   0.403  0.00  0.00    -0.270 OA
ATOM     10  H   UNL d   1      24.677 -16.047  -1.611  0.00  0.00     0.169 HD
BRANCH   8  11
ATOM     11  C   UNL d   1      22.712 -17.813   0.044  0.00  0.00     0.201 C 
ATOM     12  C   UNL d   1      22.351 -18.562  -1.011  0.00  0.00     0.124 C 
ATOM     13  C   UNL d   1      20.874 -18.427  -1.009  0.00  0.00     0.171 C 
ATOM     14  O   UNL d   1      20.264 -17.450  -1.469  0.00  0.00    -0.292 OA
ATOM     15  C   UNL d   1      20.178 -19.323  -0.139  0.00  0.00     0.044 A 
ATOM     16  C   UNL d   1      18.955 -19.946  -0.518  0.00  0.00     0.018 A 
ATOM     17  C   UNL d   1      20.798 -19.415   1.100  0.00  0.00     0.084 A 
ATOM     18  C   UNL d   1      18.283 -20.780   0.362  0.00  0.00     0.001 A 
ATOM     19  C   UNL d   1      18.916 -21.045   1.575  0.00  0.00     0.003 A 
ATOM     20  C   UNL d   1      20.153 -20.360   1.960  0.00  0.00     0.038 A 
ATOM     21  O   UNL d   1      22.017 -18.575   1.333  0.00  0.00    -0.325 OA
ENDBRANCH   8  11
ENDBRANCH   4   7
BRANCH   1  22
ATOM     22  S   UNL d   1      31.409 -16.473  -1.283  0.00  0.00     0.263 S 
ATOM     23  O   UNL d   1      31.948 -17.725  -0.819  0.00  0.00    -0.200 OA
ATOM     24  O   UNL d   1      31.676 -15.232  -0.566  0.00  0.00    -0.200 OA
BRANCH  22  25
ATOM     25  N   UNL d   1      31.940 -16.230  -2.879  0.00  0.00    -0.281 N 
ATOM     26  H   UNL d   1      32.392 -15.356  -3.125  0.00  0.00     0.179 HD
BRANCH  25  27
ATOM     27  C   UNL d   1      31.504 -17.100  -3.950  0.00  0.00     0.042 A 
ATOM     28  C   UNL d   1      31.265 -16.568  -5.226  0.00  0.00     0.033 A 
ATOM     29  C   UNL d   1      30.802 -17.392  -6.273  0.00  0.00     0.039 A 
ATOM     30  C   UNL d   1      30.652 -18.768  -6.090  0.00  0.00     0.068 A 
ATOM     31  C   UNL d   1      30.919 -19.305  -4.837  0.00  0.00     0.039 A 
ATOM     32  C   UNL d   1      31.345 -18.478  -3.786  0.00  0.00     0.033 A 
BRANCH  30  33
ATOM     33  O   UNL d   1      30.358 -19.495  -7.209  0.00  0.00    -0.356 OA
ATOM     34  C   UNL d   1      31.251 -20.554  -7.542  0.00  0.00     0.210 C 
ENDBRANCH  30  33
ENDBRANCH  25  27
ENDBRANCH  22  25
ENDBRANCH   1  22
TORSDOF 6
ENDMDL
