MODEL 1
REMARK VINA RESULT:   -20.226      0.000      0.000
REMARK INTER + INTRA:         -24.326
REMARK INTER:                 -22.910
REMARK INTRA:                  -1.415
REMARK CONF_INDEPENDENT:        2.685
REMARK UNBOUND:                -1.415
REMARK  9 active torsions:
REMARK  status: ('A' for Active; 'I' for Inactive)
REMARK    1  A    between atoms: C_2  and  C_31 
REMARK    2  A    between atoms: C_2  and  N_3 
REMARK       I    between atoms: N_3  and  C_4 
REMARK    3  A    between atoms: C_4  and  C_6 
REMARK    4  A    between atoms: C_11  and  N_12 
REMARK       I    between atoms: N_12  and  C_13 
REMARK    5  A    between atoms: C_13  and  C_15 
REMARK    6  A    between atoms: C_15  and  O_16 
REMARK    7  A    between atoms: O_16  and  C_17 
REMARK    8  A    between atoms: C_17  and  C_19 
REMARK    9  A    between atoms: C_19  and  C_20 
ROOT
ATOM      1  N   UNL d   1      29.580 -17.086  -0.228  0.00  0.00    -0.324 N 
ATOM      2  C   UNL d   1      28.304 -17.289  -0.819  0.00  0.00     0.246 C 
ATOM      3  O   UNL d   1      28.202 -17.155  -2.039  0.00  0.00    -0.271 OA
ATOM      4  H   UNL d   1      29.907 -17.820   0.391  0.00  0.00     0.169 HD
ENDROOT
BRANCH   1   5
ATOM      5  C   UNL d   1      30.667 -16.317  -0.859  0.00  0.00     0.050 A 
ATOM      6  C   UNL d   1      31.663 -17.010  -1.604  0.00  0.00     0.030 A 
ATOM      7  C   UNL d   1      32.745 -16.340  -2.227  0.00  0.00     0.002 A 
ATOM      8  C   UNL d   1      32.850 -14.958  -2.142  0.00  0.00     0.001 A 
ATOM      9  C   UNL d   1      31.927 -14.258  -1.368  0.00  0.00     0.019 A 
ATOM     10  C   UNL d   1      30.830 -14.915  -0.749  0.00  0.00     0.058 A 
BRANCH  10  11
ATOM     11  C   UNL d   1      29.839 -14.014  -0.102  0.00  0.00     0.254 C 
ATOM     12  N   UNL d   1      29.661 -14.133   1.262  0.00  0.00    -0.349 N 
ATOM     13  H   UNL d   1      30.226 -14.801   1.771  0.00  0.00     0.163 HD
ATOM     14  O   UNL d   1      29.203 -13.233  -0.803  0.00  0.00    -0.268 OA
BRANCH  12  15
ATOM     15  C   UNL d   1      28.504 -13.519   1.928  0.00  0.00     0.114 C 
ATOM     16  C   UNL d   1      27.153 -14.011   1.529  0.00  0.00     0.037 C 
BRANCH  15  17
ATOM     17  C   UNL d   1      28.631 -13.840   3.389  0.00  0.00    -0.036 C 
ATOM     18  C   UNL d   1      29.780 -14.337   4.051  0.00  0.00     0.009 C 
ATOM     19  C   UNL d   1      29.716 -14.661   5.389  0.00  0.00     0.001 C 
ATOM     20  C   UNL d   1      28.565 -14.336   6.094  0.00  0.00     0.000 C 
ATOM     21  C   UNL d   1      27.455 -13.782   5.456  0.00  0.00     0.001 C 
ATOM     22  C   UNL d   1      27.482 -13.553   4.103  0.00  0.00     0.009 C 
ENDBRANCH  15  17
ENDBRANCH  12  15
ENDBRANCH  10  11
ENDBRANCH   1   5
BRANCH   2  23
ATOM     23  C   UNL d   1      26.978 -17.850   0.097  0.00  0.00     0.281 C 
BRANCH  23  24
ATOM     24  O   UNL d   1      25.364 -17.440  -0.016  0.00  0.00    -0.312 OA
BRANCH  24  25
ATOM     25  C   UNL d   1      24.526 -17.369  -1.201  0.00  0.00     0.262 C 
ATOM     26  O   UNL d   1      25.113 -17.014  -2.233  0.00  0.00    -0.265 OA
BRANCH  25  27
ATOM     27  C   UNL d   1      22.810 -17.851  -1.214  0.00  0.00     0.153 C 
BRANCH  27  28
ATOM     28  C   UNL d   1      21.823 -19.419  -0.348  0.00  0.00     0.137 C 
ATOM     29  N   UNL d   1      21.025 -18.337  -0.422  0.00  0.00    -0.216 NA
ATOM     30  N   UNL d   1      19.850 -18.602  -0.950  0.00  0.00    -0.150 NA
ATOM     31  C   UNL d   1      19.074 -18.807   0.123  0.00  0.00     0.251 C 
ATOM     32  H   UNL d   1      19.975 -19.427  -1.563  0.00  0.00     0.158 HD
ATOM     33  O   UNL d   1      18.802 -18.129   1.114  0.00  0.00    -0.272 OA
ATOM     34  C   UNL d   1      19.078 -20.196   0.265  0.00  0.00     0.037 C 
ATOM     35  C   UNL d   1      17.654 -20.678   0.484  0.00  0.00     0.017 C 
ATOM     36  C   UNL d   1      20.454 -20.667   0.162  0.00  0.00    -0.008 C 
ATOM     37  C   UNL d   1      17.281 -21.946   0.807  0.00  0.00     0.001 C 
ATOM     38  C   UNL d   1      18.426 -22.704   0.879  0.00  0.00     0.001 C 
ATOM     39  C   UNL d   1      19.964 -22.114   0.605  0.00  0.00     0.011 C 
ENDBRANCH  27  28
ENDBRANCH  25  27
ENDBRANCH  24  25
ENDBRANCH  23  24
ENDBRANCH   2  23
TORSDOF 9
ENDMDL
MODEL 2
REMARK VINA RESULT:   -20.193      2.294      3.751
REMARK INTER + INTRA:         -24.377
REMARK INTER:                 -22.878
REMARK INTRA:                  -1.499
REMARK CONF_INDEPENDENT:        2.685
REMARK UNBOUND:                -1.499
REMARK  9 active torsions:
REMARK  status: ('A' for Active; 'I' for Inactive)
REMARK    1  A    between atoms: C_2  and  C_31 
REMARK    2  A    between atoms: C_2  and  N_3 
REMARK       I    between atoms: N_3  and  C_4 
REMARK    3  A    between atoms: C_4  and  C_6 
REMARK    4  A    between atoms: C_11  and  N_12 
REMARK       I    between atoms: N_12  and  C_13 
REMARK    5  A    between atoms: C_13  and  C_15 
REMARK    6  A    between atoms: C_15  and  O_16 
REMARK    7  A    between atoms: O_16  and  C_17 
REMARK    8  A    between atoms: C_17  and  C_19 
REMARK    9  A    between atoms: C_19  and  C_20 
ROOT
ATOM      1  N   UNL d   1      27.395 -15.095   1.413  0.00  0.00    -0.324 N 
ATOM      2  C   UNL d   1      27.681 -15.866   0.254  0.00  0.00     0.246 C 
ATOM      3  O   UNL d   1      28.519 -15.433  -0.538  0.00  0.00    -0.271 OA
ATOM      4  H   UNL d   1      27.429 -15.589   2.297  0.00  0.00     0.169 HD
ENDROOT
BRANCH   1   5
ATOM      5  C   UNL d   1      27.671 -13.653   1.531  0.00  0.00     0.050 A 
ATOM      6  C   UNL d   1      27.683 -12.851   0.354  0.00  0.00     0.030 A 
ATOM      7  C   UNL d   1      27.955 -11.462   0.387  0.00  0.00     0.002 A 
ATOM      8  C   UNL d   1      28.200 -10.828   1.599  0.00  0.00     0.001 A 
ATOM      9  C   UNL d   1      28.257 -11.596   2.761  0.00  0.00     0.019 A 
ATOM     10  C   UNL d   1      27.973 -12.987   2.744  0.00  0.00     0.058 A 
BRANCH  10  11
ATOM     11  C   UNL d   1      27.908 -13.634   4.082  0.00  0.00     0.254 C 
ATOM     12  N   UNL d   1      28.017 -12.820   5.192  0.00  0.00    -0.349 N 
ATOM     13  H   UNL d   1      28.107 -11.822   5.057  0.00  0.00     0.163 HD
ATOM     14  O   UNL d   1      27.794 -14.854   4.144  0.00  0.00    -0.268 OA
BRANCH  12  15
ATOM     15  C   UNL d   1      28.274 -13.390   6.522  0.00  0.00     0.114 C 
ATOM     16  C   UNL d   1      29.327 -14.444   6.615  0.00  0.00     0.037 C 
BRANCH  15  17
ATOM     17  C   UNL d   1      28.761 -12.261   7.384  0.00  0.00    -0.036 C 
ATOM     18  C   UNL d   1      29.263 -12.358   8.704  0.00  0.00     0.009 C 
ATOM     19  C   UNL d   1      29.597 -11.215   9.398  0.00  0.00     0.001 C 
ATOM     20  C   UNL d   1      29.583 -10.003   8.721  0.00  0.00     0.000 C 
ATOM     21  C   UNL d   1      29.152  -9.915   7.397  0.00  0.00     0.001 C 
ATOM     22  C   UNL d   1      28.724 -11.040   6.738  0.00  0.00     0.009 C 
ENDBRANCH  15  17
ENDBRANCH  12  15
ENDBRANCH  10  11
ENDBRANCH   1   5
BRANCH   2  23
ATOM     23  C   UNL d   1      27.007 -17.417   0.029  0.00  0.00     0.281 C 
BRANCH  23  24
ATOM     24  O   UNL d   1      25.410 -17.857  -0.178  0.00  0.00    -0.312 OA
BRANCH  24  25
ATOM     25  C   UNL d   1      24.394 -17.228  -1.004  0.00  0.00     0.262 C 
ATOM     26  O   UNL d   1      24.757 -16.189  -1.573  0.00  0.00    -0.265 OA
BRANCH  25  27
ATOM     27  C   UNL d   1      22.779 -17.934  -1.273  0.00  0.00     0.153 C 
BRANCH  27  28
ATOM     28  C   UNL d   1      21.806 -19.501  -0.389  0.00  0.00     0.137 C 
ATOM     29  N   UNL d   1      21.022 -18.405  -0.413  0.00  0.00    -0.216 NA
ATOM     30  N   UNL d   1      19.822 -18.645  -0.895  0.00  0.00    -0.150 NA
ATOM     31  C   UNL d   1      19.089 -18.856   0.207  0.00  0.00     0.251 C 
ATOM     32  H   UNL d   1      19.909 -19.463  -1.525  0.00  0.00     0.158 HD
ATOM     33  O   UNL d   1      18.870 -18.188   1.219  0.00  0.00    -0.272 OA
ATOM     34  C   UNL d   1      19.078 -20.246   0.329  0.00  0.00     0.037 C 
ATOM     35  C   UNL d   1      17.658 -20.711   0.602  0.00  0.00     0.017 C 
ATOM     36  C   UNL d   1      20.441 -20.736   0.161  0.00  0.00    -0.008 C 
ATOM     37  C   UNL d   1      17.280 -21.978   0.922  0.00  0.00     0.001 C 
ATOM     38  C   UNL d   1      18.414 -22.753   0.934  0.00  0.00     0.001 C 
ATOM     39  C   UNL d   1      19.948 -22.182   0.603  0.00  0.00     0.011 C 
ENDBRANCH  27  28
ENDBRANCH  25  27
ENDBRANCH  24  25
ENDBRANCH  23  24
ENDBRANCH   2  23
TORSDOF 9
ENDMDL
MODEL 3
REMARK VINA RESULT:   -20.175      4.431      6.271
REMARK INTER + INTRA:         -24.459
REMARK INTER:                 -22.860
REMARK INTRA:                  -1.599
REMARK CONF_INDEPENDENT:        2.685
REMARK UNBOUND:                -1.599
REMARK  9 active torsions:
REMARK  status: ('A' for Active; 'I' for Inactive)
REMARK    1  A    between atoms: C_2  and  C_31 
REMARK    2  A    between atoms: C_2  and  N_3 
REMARK       I    between atoms: N_3  and  C_4 
REMARK    3  A    between atoms: C_4  and  C_6 
REMARK    4  A    between atoms: C_11  and  N_12 
REMARK       I    between atoms: N_12  and  C_13 
REMARK    5  A    between atoms: C_13  and  C_15 
REMARK    6  A    between atoms: C_15  and  O_16 
REMARK    7  A    between atoms: O_16  and  C_17 
REMARK    8  A    between atoms: C_17  and  C_19 
REMARK    9  A    between atoms: C_19  and  C_20 
ROOT
ATOM      1  N   UNL d   1      28.073 -15.244  -4.166  0.00  0.00    -0.324 N 
ATOM      2  C   UNL d   1      26.675 -15.406  -4.352  0.00  0.00     0.246 C 
ATOM      3  O   UNL d   1      26.243 -15.441  -5.505  0.00  0.00    -0.271 OA
ATOM      4  H   UNL d   1      28.521 -15.909  -3.544  0.00  0.00     0.169 HD
ENDROOT
BRANCH   1   5
ATOM      5  C   UNL d   1      28.980 -14.684  -5.183  0.00  0.00     0.050 A 
ATOM      6  C   UNL d   1      28.890 -13.300  -5.505  0.00  0.00     0.030 A 
ATOM      7  C   UNL d   1      29.718 -12.694  -6.481  0.00  0.00     0.002 A 
ATOM      8  C   UNL d   1      30.674 -13.448  -7.149  0.00  0.00     0.001 A 
ATOM      9  C   UNL d   1      30.745 -14.818  -6.902  0.00  0.00     0.019 A 
ATOM     10  C   UNL d   1      29.930 -15.436  -5.916  0.00  0.00     0.058 A 
BRANCH  10  11
ATOM     11  C   UNL d   1      30.239 -16.866  -5.649  0.00  0.00     0.254 C 
ATOM     12  N   UNL d   1      30.702 -17.629  -6.703  0.00  0.00    -0.349 N 
ATOM     13  H   UNL d   1      30.842 -17.185  -7.601  0.00  0.00     0.163 HD
ATOM     14  O   UNL d   1      30.039 -17.314  -4.524  0.00  0.00    -0.268 OA
BRANCH  12  15
ATOM     15  C   UNL d   1      30.734 -19.096  -6.616  0.00  0.00     0.114 C 
ATOM     16  C   UNL d   1      31.485 -19.821  -7.682  0.00  0.00     0.037 C 
BRANCH  15  17
ATOM     17  C   UNL d   1      31.437 -19.431  -5.332  0.00  0.00    -0.036 C 
ATOM     18  C   UNL d   1      32.669 -18.904  -4.877  0.00  0.00     0.009 C 
ATOM     19  C   UNL d   1      33.228 -19.374  -3.708  0.00  0.00     0.001 C 
ATOM     20  C   UNL d   1      32.483 -20.241  -2.920  0.00  0.00     0.000 C 
ATOM     21  C   UNL d   1      31.236 -20.709  -3.336  0.00  0.00     0.001 C 
ATOM     22  C   UNL d   1      30.724 -20.320  -4.548  0.00  0.00     0.009 C 
ENDBRANCH  15  17
ENDBRANCH  12  15
ENDBRANCH  10  11
ENDBRANCH   1   5
BRANCH   2  23
ATOM     23  C   UNL d   1      25.629 -15.696  -3.035  0.00  0.00     0.281 C 
BRANCH  23  24
ATOM     24  O   UNL d   1      25.388 -17.099  -2.163  0.00  0.00    -0.312 OA
BRANCH  24  25
ATOM     25  C   UNL d   1      24.442 -17.351  -1.090  0.00  0.00     0.262 C 
ATOM     26  O   UNL d   1      24.814 -16.971   0.030  0.00  0.00    -0.265 OA
BRANCH  25  27
ATOM     27  C   UNL d   1      22.826 -18.054  -1.357  0.00  0.00     0.153 C 
BRANCH  27  28
ATOM     28  C   UNL d   1      21.837 -19.594  -0.444  0.00  0.00     0.137 C 
ATOM     29  N   UNL d   1      21.082 -18.478  -0.448  0.00  0.00    -0.216 NA
ATOM     30  N   UNL d   1      19.863 -18.687  -0.895  0.00  0.00    -0.150 NA
ATOM     31  C   UNL d   1      19.156 -18.878   0.227  0.00  0.00     0.251 C 
ATOM     32  H   UNL d   1      19.911 -19.507  -1.526  0.00  0.00     0.158 HD
ATOM     33  O   UNL d   1      18.982 -18.204   1.243  0.00  0.00    -0.272 OA
ATOM     34  C   UNL d   1      19.111 -20.267   0.351  0.00  0.00     0.037 C 
ATOM     35  C   UNL d   1      17.688 -20.694   0.663  0.00  0.00     0.017 C 
ATOM     36  C   UNL d   1      20.456 -20.792   0.145  0.00  0.00    -0.008 C 
ATOM     37  C   UNL d   1      17.285 -21.951   0.995  0.00  0.00     0.001 C 
ATOM     38  C   UNL d   1      18.399 -22.756   0.977  0.00  0.00     0.001 C 
ATOM     39  C   UNL d   1      19.937 -22.225   0.603  0.00  0.00     0.011 C 
ENDBRANCH  27  28
ENDBRANCH  25  27
ENDBRANCH  24  25
ENDBRANCH  23  24
ENDBRANCH   2  23
TORSDOF 9
ENDMDL
MODEL 4
REMARK VINA RESULT:   -19.649      2.258      4.744
REMARK INTER + INTRA:         -24.830
REMARK INTER:                 -22.334
REMARK INTRA:                  -2.496
REMARK CONF_INDEPENDENT:        2.685
REMARK UNBOUND:                -2.496
REMARK  9 active torsions:
REMARK  status: ('A' for Active; 'I' for Inactive)
REMARK    1  A    between atoms: C_2  and  C_31 
REMARK    2  A    between atoms: C_2  and  N_3 
REMARK       I    between atoms: N_3  and  C_4 
REMARK    3  A    between atoms: C_4  and  C_6 
REMARK    4  A    between atoms: C_11  and  N_12 
REMARK       I    between atoms: N_12  and  C_13 
REMARK    5  A    between atoms: C_13  and  C_15 
REMARK    6  A    between atoms: C_15  and  O_16 
REMARK    7  A    between atoms: O_16  and  C_17 
REMARK    8  A    between atoms: C_17  and  C_19 
REMARK    9  A    between atoms: C_19  and  C_20 
ROOT
ATOM      1  N   UNL d   1      28.155 -15.187   1.784  0.00  0.00    -0.324 N 
ATOM      2  C   UNL d   1      27.125 -15.210   0.807  0.00  0.00     0.246 C 
ATOM      3  O   UNL d   1      26.623 -14.138   0.468  0.00  0.00    -0.271 OA
ATOM      4  H   UNL d   1      29.004 -15.690   1.551  0.00  0.00     0.169 HD
ENDROOT
BRANCH   1   5
ATOM      5  C   UNL d   1      28.368 -14.078   2.731  0.00  0.00     0.050 A 
ATOM      6  C   UNL d   1      28.038 -14.266   4.103  0.00  0.00     0.030 A 
ATOM      7  C   UNL d   1      28.201 -13.241   5.068  0.00  0.00     0.002 A 
ATOM      8  C   UNL d   1      28.718 -12.008   4.694  0.00  0.00     0.001 A 
ATOM      9  C   UNL d   1      28.991 -11.772   3.348  0.00  0.00     0.019 A 
ATOM     10  C   UNL d   1      28.845 -12.794   2.373  0.00  0.00     0.058 A 
BRANCH  10  11
ATOM     11  C   UNL d   1      29.336 -12.442   1.013  0.00  0.00     0.254 C 
ATOM     12  N   UNL d   1      28.399 -12.321   0.006  0.00  0.00    -0.349 N 
ATOM     13  H   UNL d   1      27.421 -12.445   0.232  0.00  0.00     0.163 HD
ATOM     14  O   UNL d   1      30.543 -12.309   0.836  0.00  0.00    -0.268 OA
BRANCH  12  15
ATOM     15  C   UNL d   1      28.810 -12.287  -1.405  0.00  0.00     0.114 C 
ATOM     16  C   UNL d   1      29.680 -13.401  -1.884  0.00  0.00     0.037 C 
BRANCH  15  17
ATOM     17  C   UNL d   1      27.551 -12.384  -2.218  0.00  0.00    -0.036 C 
ATOM     18  C   UNL d   1      26.742 -11.309  -2.660  0.00  0.00     0.009 C 
ATOM     19  C   UNL d   1      25.567 -11.565  -3.333  0.00  0.00     0.001 C 
ATOM     20  C   UNL d   1      25.288 -12.873  -3.703  0.00  0.00     0.000 C 
ATOM     21  C   UNL d   1      26.121 -13.928  -3.328  0.00  0.00     0.001 C 
ATOM     22  C   UNL d   1      27.239 -13.684  -2.570  0.00  0.00     0.009 C 
ENDBRANCH  15  17
ENDBRANCH  12  15
ENDBRANCH  10  11
ENDBRANCH   1   5
BRANCH   2  23
ATOM     23  C   UNL d   1      26.691 -16.653   0.006  0.00  0.00     0.281 C 
BRANCH  23  24
ATOM     24  O   UNL d   1      25.192 -17.375  -0.137  0.00  0.00    -0.312 OA
BRANCH  24  25
ATOM     25  C   UNL d   1      24.046 -16.940  -0.915  0.00  0.00     0.262 C 
ATOM     26  O   UNL d   1      24.060 -15.744  -1.239  0.00  0.00    -0.265 OA
BRANCH  25  27
ATOM     27  C   UNL d   1      22.758 -18.046  -1.460  0.00  0.00     0.153 C 
BRANCH  27  28
ATOM     28  C   UNL d   1      21.794 -19.588  -0.525  0.00  0.00     0.137 C 
ATOM     29  N   UNL d   1      21.042 -18.471  -0.500  0.00  0.00    -0.216 NA
ATOM     30  N   UNL d   1      19.809 -18.675  -0.912  0.00  0.00    -0.150 NA
ATOM     31  C   UNL d   1      19.136 -18.869   0.230  0.00  0.00     0.251 C 
ATOM     32  H   UNL d   1      19.835 -19.492  -1.548  0.00  0.00     0.158 HD
ATOM     33  O   UNL d   1      18.995 -18.200   1.255  0.00  0.00    -0.272 OA
ATOM     34  C   UNL d   1      19.092 -20.260   0.349  0.00  0.00     0.037 C 
ATOM     35  C   UNL d   1      17.677 -20.684   0.702  0.00  0.00     0.017 C 
ATOM     36  C   UNL d   1      20.428 -20.787   0.100  0.00  0.00    -0.008 C 
ATOM     37  C   UNL d   1      17.282 -21.942   1.040  0.00  0.00     0.001 C 
ATOM     38  C   UNL d   1      18.393 -22.749   0.984  0.00  0.00     0.001 C 
ATOM     39  C   UNL d   1      19.920 -22.221   0.566  0.00  0.00     0.011 C 
ENDBRANCH  27  28
ENDBRANCH  25  27
ENDBRANCH  24  25
ENDBRANCH  23  24
ENDBRANCH   2  23
TORSDOF 9
ENDMDL
MODEL 5
REMARK VINA RESULT:   -19.499      2.334      3.707
REMARK INTER + INTRA:         -24.214
REMARK INTER:                 -22.184
REMARK INTRA:                  -2.030
REMARK CONF_INDEPENDENT:        2.685
REMARK UNBOUND:                -2.030
REMARK  9 active torsions:
REMARK  status: ('A' for Active; 'I' for Inactive)
REMARK    1  A    between atoms: C_2  and  C_31 
REMARK    2  A    between atoms: C_2  and  N_3 
REMARK       I    between atoms: N_3  and  C_4 
REMARK    3  A    between atoms: C_4  and  C_6 
REMARK    4  A    between atoms: C_11  and  N_12 
REMARK       I    between atoms: N_12  and  C_13 
REMARK    5  A    between atoms: C_13  and  C_15 
REMARK    6  A    between atoms: C_15  and  O_16 
REMARK    7  A    between atoms: O_16  and  C_17 
REMARK    8  A    between atoms: C_17  and  C_19 
REMARK    9  A    between atoms: C_19  and  C_20 
ROOT
ATOM      1  N   UNL d   1      29.489 -16.816  -0.130  0.00  0.00    -0.324 N 
ATOM      2  C   UNL d   1      28.224 -17.112  -0.704  0.00  0.00     0.246 C 
ATOM      3  O   UNL d   1      28.116 -17.056  -1.930  0.00  0.00    -0.271 OA
ATOM      4  H   UNL d   1      29.850 -17.496   0.530  0.00  0.00     0.169 HD
ENDROOT
BRANCH   1   5
ATOM      5  C   UNL d   1      30.540 -16.037  -0.809  0.00  0.00     0.050 A 
ATOM      6  C   UNL d   1      31.646 -16.722  -1.386  0.00  0.00     0.030 A 
ATOM      7  C   UNL d   1      32.700 -16.041  -2.042  0.00  0.00     0.002 A 
ATOM      8  C   UNL d   1      32.669 -14.658  -2.160  0.00  0.00     0.001 A 
ATOM      9  C   UNL d   1      31.632 -13.953  -1.550  0.00  0.00     0.019 A 
ATOM     10  C   UNL d   1      30.562 -14.624  -0.902  0.00  0.00     0.058 A 
BRANCH  10  11
ATOM     11  C   UNL d   1      29.448 -13.747  -0.451  0.00  0.00     0.254 C 
ATOM     12  N   UNL d   1      28.159 -14.150  -0.739  0.00  0.00    -0.349 N 
ATOM     13  H   UNL d   1      28.019 -15.032  -1.214  0.00  0.00     0.163 HD
ATOM     14  O   UNL d   1      29.718 -12.695   0.122  0.00  0.00    -0.268 OA
BRANCH  12  15
ATOM     15  C   UNL d   1      27.031 -13.215  -0.615  0.00  0.00     0.114 C 
ATOM     16  C   UNL d   1      27.364 -11.787  -0.338  0.00  0.00     0.037 C 
BRANCH  15  17
ATOM     17  C   UNL d   1      26.331 -13.212  -1.943  0.00  0.00    -0.036 C 
ATOM     18  C   UNL d   1      25.398 -14.169  -2.411  0.00  0.00     0.009 C 
ATOM     19  C   UNL d   1      24.899 -14.072  -3.692  0.00  0.00     0.001 C 
ATOM     20  C   UNL d   1      25.205 -12.942  -4.438  0.00  0.00     0.000 C 
ATOM     21  C   UNL d   1      26.071 -11.963  -3.950  0.00  0.00     0.001 C 
ATOM     22  C   UNL d   1      26.648 -12.109  -2.714  0.00  0.00     0.009 C 
ENDBRANCH  15  17
ENDBRANCH  12  15
ENDBRANCH  10  11
ENDBRANCH   1   5
BRANCH   2  23
ATOM     23  C   UNL d   1      26.925 -17.677   0.248  0.00  0.00     0.281 C 
BRANCH  23  24
ATOM     24  O   UNL d   1      25.289 -17.388   0.085  0.00  0.00    -0.312 OA
BRANCH  24  25
ATOM     25  C   UNL d   1      24.502 -17.283  -1.132  0.00  0.00     0.262 C 
ATOM     26  O   UNL d   1      25.114 -16.832  -2.110  0.00  0.00    -0.265 OA
BRANCH  25  27
ATOM     27  C   UNL d   1      22.817 -17.852  -1.256  0.00  0.00     0.153 C 
BRANCH  27  28
ATOM     28  C   UNL d   1      21.830 -19.411  -0.374  0.00  0.00     0.137 C 
ATOM     29  N   UNL d   1      21.026 -18.336  -0.479  0.00  0.00    -0.216 NA
ATOM     30  N   UNL d   1      19.859 -18.620  -1.018  0.00  0.00    -0.150 NA
ATOM     31  C   UNL d   1      19.071 -18.812   0.049  0.00  0.00     0.251 C 
ATOM     32  H   UNL d   1      19.999 -19.456  -1.613  0.00  0.00     0.158 HD
ATOM     33  O   UNL d   1      18.780 -18.117   1.024  0.00  0.00    -0.272 OA
ATOM     34  C   UNL d   1      19.084 -20.198   0.217  0.00  0.00     0.037 C 
ATOM     35  C   UNL d   1      17.661 -20.686   0.427  0.00  0.00     0.017 C 
ATOM     36  C   UNL d   1      20.464 -20.660   0.141  0.00  0.00    -0.008 C 
ATOM     37  C   UNL d   1      17.293 -21.951   0.769  0.00  0.00     0.001 C 
ATOM     38  C   UNL d   1      18.442 -22.698   0.870  0.00  0.00     0.001 C 
ATOM     39  C   UNL d   1      19.979 -22.102   0.605  0.00  0.00     0.011 C 
ENDBRANCH  27  28
ENDBRANCH  25  27
ENDBRANCH  24  25
ENDBRANCH  23  24
ENDBRANCH   2  23
TORSDOF 9
ENDMDL
MODEL 6
REMARK VINA RESULT:   -19.198      2.203      4.739
REMARK INTER + INTRA:         -24.671
REMARK INTER:                 -21.883
REMARK INTRA:                  -2.789
REMARK CONF_INDEPENDENT:        2.685
REMARK UNBOUND:                -2.789
REMARK  9 active torsions:
REMARK  status: ('A' for Active; 'I' for Inactive)
REMARK    1  A    between atoms: C_2  and  C_31 
REMARK    2  A    between atoms: C_2  and  N_3 
REMARK       I    between atoms: N_3  and  C_4 
REMARK    3  A    between atoms: C_4  and  C_6 
REMARK    4  A    between atoms: C_11  and  N_12 
REMARK       I    between atoms: N_12  and  C_13 
REMARK    5  A    between atoms: C_13  and  C_15 
REMARK    6  A    between atoms: C_15  and  O_16 
REMARK    7  A    between atoms: O_16  and  C_17 
REMARK    8  A    between atoms: C_17  and  C_19 
REMARK    9  A    between atoms: C_19  and  C_20 
ROOT
ATOM      1  N   UNL d   1      27.461 -15.506   1.221  0.00  0.00    -0.324 N 
ATOM      2  C   UNL d   1      27.966 -16.098   0.033  0.00  0.00     0.246 C 
ATOM      3  O   UNL d   1      29.152 -15.918  -0.248  0.00  0.00    -0.271 OA
ATOM      4  H   UNL d   1      26.956 -16.122   1.848  0.00  0.00     0.169 HD
ENDROOT
BRANCH   1   5
ATOM      5  C   UNL d   1      28.091 -14.360   1.901  0.00  0.00     0.050 A 
ATOM      6  C   UNL d   1      28.569 -14.522   3.232  0.00  0.00     0.030 A 
ATOM      7  C   UNL d   1      29.172 -13.462   3.954  0.00  0.00     0.002 A 
ATOM      8  C   UNL d   1      29.334 -12.218   3.359  0.00  0.00     0.001 A 
ATOM      9  C   UNL d   1      28.819 -12.010   2.081  0.00  0.00     0.019 A 
ATOM     10  C   UNL d   1      28.225 -13.066   1.341  0.00  0.00     0.058 A 
BRANCH  10  11
ATOM     11  C   UNL d   1      27.879 -12.733  -0.067  0.00  0.00     0.254 C 
ATOM     12  N   UNL d   1      28.678 -13.257  -1.064  0.00  0.00    -0.349 N 
ATOM     13  H   UNL d   1      29.443 -13.866  -0.805  0.00  0.00     0.163 HD
ATOM     14  O   UNL d   1      26.928 -11.986  -0.281  0.00  0.00    -0.268 OA
BRANCH  12  15
ATOM     15  C   UNL d   1      28.606 -12.739  -2.438  0.00  0.00     0.114 C 
ATOM     16  C   UNL d   1      29.850 -12.821  -3.258  0.00  0.00     0.037 C 
BRANCH  15  17
ATOM     17  C   UNL d   1      27.594 -13.582  -3.159  0.00  0.00    -0.036 C 
ATOM     18  C   UNL d   1      26.185 -13.491  -3.053  0.00  0.00     0.009 C 
ATOM     19  C   UNL d   1      25.386 -14.394  -3.721  0.00  0.00     0.001 C 
ATOM     20  C   UNL d   1      25.984 -15.273  -4.613  0.00  0.00     0.000 C 
ATOM     21  C   UNL d   1      27.370 -15.317  -4.770  0.00  0.00     0.001 C 
ATOM     22  C   UNL d   1      28.173 -14.487  -4.029  0.00  0.00     0.009 C 
ENDBRANCH  15  17
ENDBRANCH  12  15
ENDBRANCH  10  11
ENDBRANCH   1   5
BRANCH   2  23
ATOM     23  C   UNL d   1      27.011 -17.155  -0.909  0.00  0.00     0.281 C 
BRANCH  23  24
ATOM     24  O   UNL d   1      25.438 -17.658  -0.668  0.00  0.00    -0.312 OA
BRANCH  24  25
ATOM     25  C   UNL d   1      24.203 -16.955  -0.971  0.00  0.00     0.262 C 
ATOM     26  O   UNL d   1      24.312 -15.723  -1.048  0.00  0.00    -0.265 OA
BRANCH  25  27
ATOM     27  C   UNL d   1      22.664 -17.787  -1.312  0.00  0.00     0.153 C 
BRANCH  27  28
ATOM     28  C   UNL d   1      21.744 -19.381  -0.420  0.00  0.00     0.137 C 
ATOM     29  N   UNL d   1      20.932 -18.306  -0.430  0.00  0.00    -0.216 NA
ATOM     30  N   UNL d   1      19.732 -18.575  -0.896  0.00  0.00    -0.150 NA
ATOM     31  C   UNL d   1      19.020 -18.808   0.216  0.00  0.00     0.251 C 
ATOM     32  H   UNL d   1      19.831 -19.389  -1.529  0.00  0.00     0.158 HD
ATOM     33  O   UNL d   1      18.797 -18.149   1.233  0.00  0.00    -0.272 OA
ATOM     34  C   UNL d   1      19.046 -20.198   0.333  0.00  0.00     0.037 C 
ATOM     35  C   UNL d   1      17.642 -20.700   0.624  0.00  0.00     0.017 C 
ATOM     36  C   UNL d   1      20.419 -20.652   0.145  0.00  0.00    -0.008 C 
ATOM     37  C   UNL d   1      17.301 -21.977   0.945  0.00  0.00     0.001 C 
ATOM     38  C   UNL d   1      18.455 -22.723   0.939  0.00  0.00     0.001 C 
ATOM     39  C   UNL d   1      19.969 -22.112   0.589  0.00  0.00     0.011 C 
ENDBRANCH  27  28
ENDBRANCH  25  27
ENDBRANCH  24  25
ENDBRANCH  23  24
ENDBRANCH   2  23
TORSDOF 9
ENDMDL
MODEL 7
REMARK VINA RESULT:   -19.179      3.870      5.593
REMARK INTER + INTRA:         -24.294
REMARK INTER:                 -21.864
REMARK INTRA:                  -2.431
REMARK CONF_INDEPENDENT:        2.685
REMARK UNBOUND:                -2.431
REMARK  9 active torsions:
REMARK  status: ('A' for Active; 'I' for Inactive)
REMARK    1  A    between atoms: C_2  and  C_31 
REMARK    2  A    between atoms: C_2  and  N_3 
REMARK       I    between atoms: N_3  and  C_4 
REMARK    3  A    between atoms: C_4  and  C_6 
REMARK    4  A    between atoms: C_11  and  N_12 
REMARK       I    between atoms: N_12  and  C_13 
REMARK    5  A    between atoms: C_13  and  C_15 
REMARK    6  A    between atoms: C_15  and  O_16 
REMARK    7  A    between atoms: O_16  and  C_17 
REMARK    8  A    between atoms: C_17  and  C_19 
REMARK    9  A    between atoms: C_19  and  C_20 
ROOT
ATOM      1  N   UNL d   1      26.054 -12.734  -3.120  0.00  0.00    -0.324 N 
ATOM      2  C   UNL d   1      25.195 -13.811  -3.464  0.00  0.00     0.246 C 
ATOM      3  O   UNL d   1      25.038 -14.069  -4.659  0.00  0.00    -0.271 OA
ATOM      4  H   UNL d   1      26.767 -12.935  -2.428  0.00  0.00     0.169 HD
ENDROOT
BRANCH   1   5
ATOM      5  C   UNL d   1      26.417 -11.643  -4.041  0.00  0.00     0.050 A 
ATOM      6  C   UNL d   1      25.722 -10.403  -3.954  0.00  0.00     0.030 A 
ATOM      7  C   UNL d   1      26.005  -9.314  -4.815  0.00  0.00     0.002 A 
ATOM      8  C   UNL d   1      27.005  -9.425  -5.772  0.00  0.00     0.001 A 
ATOM      9  C   UNL d   1      27.660 -10.646  -5.924  0.00  0.00     0.019 A 
ATOM     10  C   UNL d   1      27.396 -11.741  -5.060  0.00  0.00     0.058 A 
BRANCH  10  11
ATOM     11  C   UNL d   1      28.292 -12.915  -5.237  0.00  0.00     0.254 C 
ATOM     12  N   UNL d   1      27.704 -14.131  -5.526  0.00  0.00    -0.349 N 
ATOM     13  H   UNL d   1      26.699 -14.173  -5.635  0.00  0.00     0.163 HD
ATOM     14  O   UNL d   1      29.501 -12.764  -5.088  0.00  0.00    -0.268 OA
BRANCH  12  15
ATOM     15  C   UNL d   1      28.466 -15.383  -5.410  0.00  0.00     0.114 C 
ATOM     16  C   UNL d   1      29.834 -15.399  -6.005  0.00  0.00     0.037 C 
BRANCH  15  17
ATOM     17  C   UNL d   1      28.664 -15.628  -3.942  0.00  0.00    -0.036 C 
ATOM     18  C   UNL d   1      28.019 -14.956  -2.876  0.00  0.00     0.009 C 
ATOM     19  C   UNL d   1      28.368 -15.239  -1.573  0.00  0.00     0.001 C 
ATOM     20  C   UNL d   1      29.234 -16.299  -1.336  0.00  0.00     0.000 C 
ATOM     21  C   UNL d   1      29.818 -17.008  -2.386  0.00  0.00     0.001 C 
ATOM     22  C   UNL d   1      29.548 -16.659  -3.686  0.00  0.00     0.009 C 
ENDBRANCH  15  17
ENDBRANCH  12  15
ENDBRANCH  10  11
ENDBRANCH   1   5
BRANCH   2  23
ATOM     23  C   UNL d   1      24.513 -14.822  -2.270  0.00  0.00     0.281 C 
BRANCH  23  24
ATOM     24  O   UNL d   1      25.023 -16.319  -1.734  0.00  0.00    -0.312 OA
BRANCH  24  25
ATOM     25  C   UNL d   1      24.338 -17.251  -0.855  0.00  0.00     0.262 C 
ATOM     26  O   UNL d   1      24.805 -17.325   0.290  0.00  0.00    -0.265 OA
BRANCH  25  27
ATOM     27  C   UNL d   1      22.874 -18.149  -1.334  0.00  0.00     0.153 C 
BRANCH  27  28
ATOM     28  C   UNL d   1      21.845 -19.668  -0.430  0.00  0.00     0.137 C 
ATOM     29  N   UNL d   1      21.112 -18.538  -0.445  0.00  0.00    -0.216 NA
ATOM     30  N   UNL d   1      19.894 -18.724  -0.907  0.00  0.00    -0.150 NA
ATOM     31  C   UNL d   1      19.170 -18.899   0.207  0.00  0.00     0.251 C 
ATOM     32  H   UNL d   1      19.934 -19.546  -1.536  0.00  0.00     0.158 HD
ATOM     33  O   UNL d   1      18.997 -18.220   1.220  0.00  0.00    -0.272 OA
ATOM     34  C   UNL d   1      19.098 -20.287   0.333  0.00  0.00     0.037 C 
ATOM     35  C   UNL d   1      17.662 -20.686   0.629  0.00  0.00     0.017 C 
ATOM     36  C   UNL d   1      20.434 -20.838   0.144  0.00  0.00    -0.008 C 
ATOM     37  C   UNL d   1      17.232 -21.934   0.958  0.00  0.00     0.001 C 
ATOM     38  C   UNL d   1      18.330 -22.760   0.955  0.00  0.00     0.001 C 
ATOM     39  C   UNL d   1      19.883 -22.260   0.598  0.00  0.00     0.011 C 
ENDBRANCH  27  28
ENDBRANCH  25  27
ENDBRANCH  24  25
ENDBRANCH  23  24
ENDBRANCH   2  23
TORSDOF 9
ENDMDL
MODEL 8
REMARK VINA RESULT:   -19.131      3.121      4.680
REMARK INTER + INTRA:         -24.614
REMARK INTER:                 -21.816
REMARK INTRA:                  -2.798
REMARK CONF_INDEPENDENT:        2.685
REMARK UNBOUND:                -2.798
REMARK  9 active torsions:
REMARK  status: ('A' for Active; 'I' for Inactive)
REMARK    1  A    between atoms: C_2  and  C_31 
REMARK    2  A    between atoms: C_2  and  N_3 
REMARK       I    between atoms: N_3  and  C_4 
REMARK    3  A    between atoms: C_4  and  C_6 
REMARK    4  A    between atoms: C_11  and  N_12 
REMARK       I    between atoms: N_12  and  C_13 
REMARK    5  A    between atoms: C_13  and  C_15 
REMARK    6  A    between atoms: C_15  and  O_16 
REMARK    7  A    between atoms: O_16  and  C_17 
REMARK    8  A    between atoms: C_17  and  C_19 
REMARK    9  A    between atoms: C_19  and  C_20 
ROOT
ATOM      1  N   UNL d   1      28.254 -17.063  -1.724  0.00  0.00    -0.324 N 
ATOM      2  C   UNL d   1      27.865 -16.348  -0.560  0.00  0.00     0.246 C 
ATOM      3  O   UNL d   1      28.406 -15.265  -0.335  0.00  0.00    -0.271 OA
ATOM      4  H   UNL d   1      27.502 -17.380  -2.326  0.00  0.00     0.169 HD
ENDROOT
BRANCH   1   5
ATOM      5  C   UNL d   1      29.528 -16.849  -2.434  0.00  0.00     0.050 A 
ATOM      6  C   UNL d   1      30.694 -17.530  -1.983  0.00  0.00     0.030 A 
ATOM      7  C   UNL d   1      31.956 -17.364  -2.606  0.00  0.00     0.002 A 
ATOM      8  C   UNL d   1      32.084 -16.530  -3.709  0.00  0.00     0.001 A 
ATOM      9  C   UNL d   1      30.975 -15.800  -4.134  0.00  0.00     0.019 A 
ATOM     10  C   UNL d   1      29.702 -15.968  -3.529  0.00  0.00     0.058 A 
BRANCH  10  11
ATOM     11  C   UNL d   1      28.585 -15.251  -4.201  0.00  0.00     0.254 C 
ATOM     12  N   UNL d   1      27.601 -14.705  -3.400  0.00  0.00    -0.349 N 
ATOM     13  H   UNL d   1      27.689 -14.786  -2.396  0.00  0.00     0.163 HD
ATOM     14  O   UNL d   1      28.565 -15.204  -5.427  0.00  0.00    -0.268 OA
BRANCH  12  15
ATOM     15  C   UNL d   1      26.322 -14.261  -3.974  0.00  0.00     0.114 C 
ATOM     16  C   UNL d   1      25.126 -14.313  -3.083  0.00  0.00     0.037 C 
BRANCH  15  17
ATOM     17  C   UNL d   1      26.494 -12.813  -4.331  0.00  0.00    -0.036 C 
ATOM     18  C   UNL d   1      26.696 -12.277  -5.625  0.00  0.00     0.009 C 
ATOM     19  C   UNL d   1      26.919 -10.926  -5.782  0.00  0.00     0.001 C 
ATOM     20  C   UNL d   1      26.778 -10.099  -4.676  0.00  0.00     0.000 C 
ATOM     21  C   UNL d   1      26.512 -10.620  -3.409  0.00  0.00     0.001 C 
ATOM     22  C   UNL d   1      26.390 -11.976  -3.235  0.00  0.00     0.009 C 
ENDBRANCH  15  17
ENDBRANCH  12  15
ENDBRANCH  10  11
ENDBRANCH   1   5
BRANCH   2  23
ATOM     23  C   UNL d   1      26.580 -16.887   0.426  0.00  0.00     0.281 C 
BRANCH  23  24
ATOM     24  O   UNL d   1      24.979 -17.147   0.030  0.00  0.00    -0.312 OA
BRANCH  24  25
ATOM     25  C   UNL d   1      24.394 -17.387  -1.278  0.00  0.00     0.262 C 
ATOM     26  O   UNL d   1      25.139 -17.134  -2.235  0.00  0.00    -0.265 OA
BRANCH  25  27
ATOM     27  C   UNL d   1      22.771 -18.086  -1.508  0.00  0.00     0.153 C 
BRANCH  27  28
ATOM     28  C   UNL d   1      21.798 -19.624  -0.574  0.00  0.00     0.137 C 
ATOM     29  N   UNL d   1      21.067 -18.495  -0.518  0.00  0.00    -0.216 NA
ATOM     30  N   UNL d   1      19.823 -18.671  -0.906  0.00  0.00    -0.150 NA
ATOM     31  C   UNL d   1      19.170 -18.870   0.248  0.00  0.00     0.251 C 
ATOM     32  H   UNL d   1      19.821 -19.480  -1.553  0.00  0.00     0.158 HD
ATOM     33  O   UNL d   1      19.062 -18.212   1.284  0.00  0.00    -0.272 OA
ATOM     34  C   UNL d   1      19.104 -20.260   0.349  0.00  0.00     0.037 C 
ATOM     35  C   UNL d   1      17.690 -20.665   0.727  0.00  0.00     0.017 C 
ATOM     36  C   UNL d   1      20.426 -20.807   0.065  0.00  0.00    -0.008 C 
ATOM     37  C   UNL d   1      17.280 -21.920   1.056  0.00  0.00     0.001 C 
ATOM     38  C   UNL d   1      18.375 -22.746   0.966  0.00  0.00     0.001 C 
ATOM     39  C   UNL d   1      19.902 -22.238   0.523  0.00  0.00     0.011 C 
ENDBRANCH  27  28
ENDBRANCH  25  27
ENDBRANCH  24  25
ENDBRANCH  23  24
ENDBRANCH   2  23
TORSDOF 9
ENDMDL
MODEL 9
REMARK VINA RESULT:   -18.938      2.838      4.480
REMARK INTER + INTRA:         -24.683
REMARK INTER:                 -21.623
REMARK INTRA:                  -3.059
REMARK CONF_INDEPENDENT:        2.685
REMARK UNBOUND:                -3.059
REMARK  9 active torsions:
REMARK  status: ('A' for Active; 'I' for Inactive)
REMARK    1  A    between atoms: C_2  and  C_31 
REMARK    2  A    between atoms: C_2  and  N_3 
REMARK       I    between atoms: N_3  and  C_4 
REMARK    3  A    between atoms: C_4  and  C_6 
REMARK    4  A    between atoms: C_11  and  N_12 
REMARK       I    between atoms: N_12  and  C_13 
REMARK    5  A    between atoms: C_13  and  C_15 
REMARK    6  A    between atoms: C_15  and  O_16 
REMARK    7  A    between atoms: O_16  and  C_17 
REMARK    8  A    between atoms: C_17  and  C_19 
REMARK    9  A    between atoms: C_19  and  C_20 
ROOT
ATOM      1  N   UNL d   1      28.122 -16.475  -1.262  0.00  0.00    -0.324 N 
ATOM      2  C   UNL d   1      27.578 -15.214  -0.901  0.00  0.00     0.246 C 
ATOM      3  O   UNL d   1      28.252 -14.206  -1.121  0.00  0.00    -0.271 OA
ATOM      4  H   UNL d   1      27.524 -17.077  -1.817  0.00  0.00     0.169 HD
ENDROOT
BRANCH   1   5
ATOM      5  C   UNL d   1      29.561 -16.725  -1.463  0.00  0.00     0.050 A 
ATOM      6  C   UNL d   1      30.276 -17.477  -0.488  0.00  0.00     0.030 A 
ATOM      7  C   UNL d   1      31.662 -17.744  -0.605  0.00  0.00     0.002 A 
ATOM      8  C   UNL d   1      32.368 -17.288  -1.710  0.00  0.00     0.001 A 
ATOM      9  C   UNL d   1      31.711 -16.495  -2.650  0.00  0.00     0.019 A 
ATOM     10  C   UNL d   1      30.319 -16.231  -2.552  0.00  0.00     0.058 A 
BRANCH  10  11
ATOM     11  C   UNL d   1      29.730 -15.516  -3.715  0.00  0.00     0.254 C 
ATOM     12  N   UNL d   1      29.582 -14.146  -3.618  0.00  0.00    -0.349 N 
ATOM     13  H   UNL d   1      29.904 -13.680  -2.780  0.00  0.00     0.163 HD
ATOM     14  O   UNL d   1      29.371 -16.169  -4.691  0.00  0.00    -0.268 OA
BRANCH  12  15
ATOM     15  C   UNL d   1      28.739 -13.410  -4.570  0.00  0.00     0.114 C 
ATOM     16  C   UNL d   1      28.861 -13.780  -6.010  0.00  0.00     0.037 C 
BRANCH  15  17
ATOM     17  C   UNL d   1      27.315 -13.709  -4.199  0.00  0.00    -0.036 C 
ATOM     18  C   UNL d   1      26.722 -14.988  -4.073  0.00  0.00     0.009 C 
ATOM     19  C   UNL d   1      25.375 -15.098  -3.803  0.00  0.00     0.001 C 
ATOM     20  C   UNL d   1      24.665 -13.944  -3.499  0.00  0.00     0.000 C 
ATOM     21  C   UNL d   1      25.266 -12.686  -3.556  0.00  0.00     0.001 C 
ATOM     22  C   UNL d   1      26.582 -12.569  -3.924  0.00  0.00     0.009 C 
ENDBRANCH  15  17
ENDBRANCH  12  15
ENDBRANCH  10  11
ENDBRANCH   1   5
BRANCH   2  23
ATOM     23  C   UNL d   1      25.981 -15.068  -0.318  0.00  0.00     0.281 C 
BRANCH  23  24
ATOM     24  O   UNL d   1      24.775 -16.220  -0.233  0.00  0.00    -0.312 OA
BRANCH  24  25
ATOM     25  C   UNL d   1      24.330 -17.145  -1.261  0.00  0.00     0.262 C 
ATOM     26  O   UNL d   1      25.216 -17.527  -2.038  0.00  0.00    -0.265 OA
BRANCH  25  27
ATOM     27  C   UNL d   1      22.665 -17.776  -1.352  0.00  0.00     0.153 C 
BRANCH  27  28
ATOM     28  C   UNL d   1      21.751 -19.361  -0.438  0.00  0.00     0.137 C 
ATOM     29  N   UNL d   1      20.931 -18.293  -0.472  0.00  0.00    -0.216 NA
ATOM     30  N   UNL d   1      19.736 -18.580  -0.941  0.00  0.00    -0.150 NA
ATOM     31  C   UNL d   1      19.018 -18.800   0.169  0.00  0.00     0.251 C 
ATOM     32  H   UNL d   1      19.846 -19.404  -1.560  0.00  0.00     0.158 HD
ATOM     33  O   UNL d   1      18.783 -18.125   1.173  0.00  0.00    -0.272 OA
ATOM     34  C   UNL d   1      19.055 -20.188   0.311  0.00  0.00     0.037 C 
ATOM     35  C   UNL d   1      17.653 -20.696   0.601  0.00  0.00     0.017 C 
ATOM     36  C   UNL d   1      20.432 -20.634   0.139  0.00  0.00    -0.008 C 
ATOM     37  C   UNL d   1      17.320 -21.970   0.941  0.00  0.00     0.001 C 
ATOM     38  C   UNL d   1      18.480 -22.707   0.956  0.00  0.00     0.001 C 
ATOM     39  C   UNL d   1      19.991 -22.090   0.606  0.00  0.00     0.011 C 
ENDBRANCH  27  28
ENDBRANCH  25  27
ENDBRANCH  24  25
ENDBRANCH  23  24
ENDBRANCH   2  23
TORSDOF 9
ENDMDL
