MODEL 1
REMARK VINA RESULT:    -7.170      0.000      0.000
REMARK INTER + INTRA:         -10.587
REMARK INTER:                  -9.258
REMARK INTRA:                  -1.329
REMARK CONF_INDEPENDENT:        2.088
REMARK UNBOUND:                -1.329
REMARK  7 active torsions:
REMARK  status: ('A' for Active; 'I' for Inactive)
REMARK    1  A    between atoms: C_2  and  C_3 
REMARK       I    between atoms: C_2  and  N_14 
REMARK    2  A    between atoms: C_3  and  N_4 
REMARK       I    between atoms: N_4  and  C_5 
REMARK       I    between atoms: C_5  and  N_7 
REMARK    3  A    between atoms: N_7  and  C_8 
REMARK    4  A    between atoms: C_8  and  C_9 
REMARK    5  A    between atoms: N_14  and  N_15 
REMARK    6  A    between atoms: C_16  and  C_17 
REMARK    7  A    between atoms: C_22  and  O_23 
ROOT
ATOM      1  O   UNL d   1      26.632 -18.809   0.935  0.00  0.00    -0.270 OA
ATOM      2  C   UNL d   1      26.360 -17.755   0.350  0.00  0.00     0.255 C 
ATOM      3  N   UNL d   1      27.381 -16.950  -0.143  0.00  0.00    -0.246 N 
ATOM      4  H   UNL d   1      28.334 -17.255   0.029  0.00  0.00     0.192 HD
ENDROOT
BRANCH   2   5
ATOM      5  C   UNL d   1      24.899 -17.296   0.139  0.00  0.00     0.228 C 
BRANCH   5   6
ATOM      6  N   UNL d   1      23.895 -18.386   0.175  0.00  0.00    -0.334 N 
ATOM      7  C   UNL d   1      22.638 -18.222  -0.353  0.00  0.00     0.316 C 
ATOM      8  O   UNL d   1      22.279 -17.176  -0.894  0.00  0.00    -0.247 OA
ATOM      9  N   UNL d   1      21.809 -19.310  -0.242  0.00  0.00    -0.337 N 
ATOM     10  H   UNL d   1      22.123 -20.144   0.230  0.00  0.00     0.164 HD
ATOM     11  H   UNL d   1      24.172 -19.250   0.622  0.00  0.00     0.164 HD
BRANCH   9  12
ATOM     12  C   UNL d   1      20.434 -19.269  -0.755  0.00  0.00     0.189 C 
BRANCH  12  13
ATOM     13  C   UNL d   1      19.495 -20.033   0.123  0.00  0.00     0.070 A 
ATOM     14  C   UNL d   1      19.568 -20.421   1.446  0.00  0.00     0.036 A 
ATOM     15  C   UNL d   1      18.405 -21.176   1.724  0.00  0.00     0.027 A 
ATOM     16  C   UNL d   1      17.695 -21.229   0.548  0.00  0.00     0.142 A 
ATOM     17  O   UNL d   1      18.347 -20.542  -0.432  0.00  0.00    -0.325 OA
ENDBRANCH  12  13
ENDBRANCH   9  12
ENDBRANCH   5   6
ENDBRANCH   2   5
BRANCH   3  18
ATOM     18  N   UNL d   1      27.145 -15.771  -0.787  0.00  0.00    -0.184 NA
ATOM     19  C   UNL d   1      26.585 -15.822  -1.961  0.00  0.00     0.152 C 
BRANCH  19  20
ATOM     20  C   UNL d   1      26.334 -14.582  -2.747  0.00  0.00     0.016 A 
ATOM     21  C   UNL d   1      25.562 -14.631  -3.919  0.00  0.00     0.016 A 
ATOM     22  C   UNL d   1      25.294 -13.452  -4.631  0.00  0.00     0.001 A 
ATOM     23  C   UNL d   1      25.817 -12.233  -4.193  0.00  0.00     0.003 A 
ATOM     24  C   UNL d   1      26.611 -12.187  -3.045  0.00  0.00     0.037 A 
ATOM     25  C   UNL d   1      26.868 -13.358  -2.329  0.00  0.00     0.077 A 
BRANCH  25  26
ATOM     26  O   UNL d   1      27.695 -13.323  -1.242  0.00  0.00    -0.360 OA
ATOM     27  H   UNL d   1      28.334 -14.051  -1.281  0.00  0.00     0.217 HD
ENDBRANCH  25  26
ENDBRANCH  19  20
ENDBRANCH   3  18
TORSDOF 7
ENDMDL
MODEL 2
REMARK VINA RESULT:    -5.820      4.522      8.919
REMARK INTER + INTRA:         -11.021
REMARK INTER:                  -7.908
REMARK INTRA:                  -3.114
REMARK CONF_INDEPENDENT:        2.088
REMARK UNBOUND:                -3.114
REMARK  7 active torsions:
REMARK  status: ('A' for Active; 'I' for Inactive)
REMARK    1  A    between atoms: C_2  and  C_3 
REMARK       I    between atoms: C_2  and  N_14 
REMARK    2  A    between atoms: C_3  and  N_4 
REMARK       I    between atoms: N_4  and  C_5 
REMARK       I    between atoms: C_5  and  N_7 
REMARK    3  A    between atoms: N_7  and  C_8 
REMARK    4  A    between atoms: C_8  and  C_9 
REMARK    5  A    between atoms: N_14  and  N_15 
REMARK    6  A    between atoms: C_16  and  C_17 
REMARK    7  A    between atoms: C_22  and  O_23 
ROOT
ATOM      1  O   UNL d   1      25.624 -11.696  -5.660  0.00  0.00    -0.270 OA
ATOM      2  C   UNL d   1      25.917 -12.686  -4.980  0.00  0.00     0.255 C 
ATOM      3  N   UNL d   1      24.940 -13.619  -4.652  0.00  0.00    -0.246 N 
ATOM      4  H   UNL d   1      23.994 -13.428  -4.969  0.00  0.00     0.192 HD
ENDROOT
BRANCH   2   5
ATOM      5  C   UNL d   1      27.359 -12.929  -4.478  0.00  0.00     0.228 C 
BRANCH   5   6
ATOM      6  N   UNL d   1      27.845 -14.320  -4.637  0.00  0.00    -0.334 N 
ATOM      7  C   UNL d   1      28.864 -14.629  -5.505  0.00  0.00     0.316 C 
ATOM      8  O   UNL d   1      29.437 -13.777  -6.184  0.00  0.00    -0.247 OA
ATOM      9  N   UNL d   1      29.207 -15.958  -5.557  0.00  0.00    -0.337 N 
ATOM     10  H   UNL d   1      28.702 -16.635  -5.008  0.00  0.00     0.164 HD
ATOM     11  H   UNL d   1      27.381 -15.034  -4.091  0.00  0.00     0.164 HD
BRANCH   9  12
ATOM     12  C   UNL d   1      30.273 -16.429  -6.450  0.00  0.00     0.189 C 
BRANCH  12  13
ATOM     13  C   UNL d   1      30.518 -17.895  -6.287  0.00  0.00     0.070 A 
ATOM     14  C   UNL d   1      31.088 -18.840  -7.117  0.00  0.00     0.036 A 
ATOM     15  C   UNL d   1      31.000 -20.086  -6.454  0.00  0.00     0.027 A 
ATOM     16  C   UNL d   1      30.358 -19.839  -5.263  0.00  0.00     0.142 A 
ATOM     17  O   UNL d   1      30.058 -18.514  -5.151  0.00  0.00    -0.325 OA
ENDBRANCH  12  13
ENDBRANCH   9  12
ENDBRANCH   5   6
ENDBRANCH   2   5
BRANCH   3  18
ATOM     18  N   UNL d   1      25.199 -14.724  -3.896  0.00  0.00    -0.184 NA
ATOM     19  C   UNL d   1      24.616 -14.818  -2.737  0.00  0.00     0.152 C 
BRANCH  19  20
ATOM     20  C   UNL d   1      24.879 -15.973  -1.835  0.00  0.00     0.016 A 
ATOM     21  C   UNL d   1      23.813 -16.666  -1.242  0.00  0.00     0.016 A 
ATOM     22  C   UNL d   1      24.067 -17.780  -0.427  0.00  0.00     0.001 A 
ATOM     23  C   UNL d   1      25.381 -18.184  -0.181  0.00  0.00     0.003 A 
ATOM     24  C   UNL d   1      26.445 -17.477  -0.744  0.00  0.00     0.037 A 
ATOM     25  C   UNL d   1      26.192 -16.375  -1.564  0.00  0.00     0.077 A 
BRANCH  25  26
ATOM     26  O   UNL d   1      27.234 -15.646  -2.065  0.00  0.00    -0.360 OA
ATOM     27  H   UNL d   1      26.902 -14.908  -2.598  0.00  0.00     0.217 HD
ENDBRANCH  25  26
ENDBRANCH  19  20
ENDBRANCH   3  18
TORSDOF 7
ENDMDL
MODEL 3
REMARK VINA RESULT:    -5.797      3.544      7.842
REMARK INTER + INTRA:         -11.423
REMARK INTER:                  -7.885
REMARK INTRA:                  -3.538
REMARK CONF_INDEPENDENT:        2.088
REMARK UNBOUND:                -3.538
REMARK  7 active torsions:
REMARK  status: ('A' for Active; 'I' for Inactive)
REMARK    1  A    between atoms: C_2  and  C_3 
REMARK       I    between atoms: C_2  and  N_14 
REMARK    2  A    between atoms: C_3  and  N_4 
REMARK       I    between atoms: N_4  and  C_5 
REMARK       I    between atoms: C_5  and  N_7 
REMARK    3  A    between atoms: N_7  and  C_8 
REMARK    4  A    between atoms: C_8  and  C_9 
REMARK    5  A    between atoms: N_14  and  N_15 
REMARK    6  A    between atoms: C_16  and  C_17 
REMARK    7  A    between atoms: C_22  and  O_23 
ROOT
ATOM      1  O   UNL d   1      30.765 -17.359  -1.302  0.00  0.00    -0.270 OA
ATOM      2  C   UNL d   1      29.556 -17.113  -1.395  0.00  0.00     0.255 C 
ATOM      3  N   UNL d   1      28.746 -17.172  -0.267  0.00  0.00    -0.246 N 
ATOM      4  H   UNL d   1      29.187 -17.450   0.605  0.00  0.00     0.192 HD
ENDROOT
BRANCH   2   5
ATOM      5  C   UNL d   1      28.907 -16.732  -2.744  0.00  0.00     0.228 C 
BRANCH   5   6
ATOM      6  N   UNL d   1      27.827 -15.721  -2.649  0.00  0.00    -0.334 N 
ATOM      7  C   UNL d   1      27.226 -15.205  -3.772  0.00  0.00     0.316 C 
ATOM      8  O   UNL d   1      27.534 -15.559  -4.910  0.00  0.00    -0.247 OA
ATOM      9  N   UNL d   1      26.248 -14.271  -3.537  0.00  0.00    -0.337 N 
ATOM     10  H   UNL d   1      26.036 -13.983  -2.594  0.00  0.00     0.164 HD
ATOM     11  H   UNL d   1      27.565 -15.414  -1.722  0.00  0.00     0.164 HD
BRANCH   9  12
ATOM     12  C   UNL d   1      25.530 -13.632  -4.646  0.00  0.00     0.189 C 
BRANCH  12  13
ATOM     13  C   UNL d   1      25.689 -12.145  -4.620  0.00  0.00     0.070 A 
ATOM     14  C   UNL d   1      25.884 -11.213  -5.620  0.00  0.00     0.036 A 
ATOM     15  C   UNL d   1      26.022  -9.952  -4.995  0.00  0.00     0.027 A 
ATOM     16  C   UNL d   1      25.928 -10.185  -3.644  0.00  0.00     0.142 A 
ATOM     17  O   UNL d   1      25.729 -11.512  -3.402  0.00  0.00    -0.325 OA
ENDBRANCH  12  13
ENDBRANCH   9  12
ENDBRANCH   5   6
ENDBRANCH   2   5
BRANCH   3  18
ATOM     18  N   UNL d   1      27.406 -16.922  -0.307  0.00  0.00    -0.184 NA
ATOM     19  C   UNL d   1      26.599 -17.942  -0.356  0.00  0.00     0.152 C 
BRANCH  19  20
ATOM     20  C   UNL d   1      25.125 -17.753  -0.446  0.00  0.00     0.016 A 
ATOM     21  C   UNL d   1      24.255 -18.813  -0.145  0.00  0.00     0.016 A 
ATOM     22  C   UNL d   1      22.866 -18.615  -0.190  0.00  0.00     0.001 A 
ATOM     23  C   UNL d   1      22.347 -17.372  -0.561  0.00  0.00     0.003 A 
ATOM     24  C   UNL d   1      23.210 -16.325  -0.891  0.00  0.00     0.037 A 
ATOM     25  C   UNL d   1      24.592 -16.519  -0.835  0.00  0.00     0.077 A 
BRANCH  25  26
ATOM     26  O   UNL d   1      25.435 -15.514  -1.217  0.00  0.00    -0.360 OA
ATOM     27  H   UNL d   1      26.304 -15.629  -0.803  0.00  0.00     0.217 HD
ENDBRANCH  25  26
ENDBRANCH  19  20
ENDBRANCH   3  18
TORSDOF 7
ENDMDL
MODEL 4
REMARK VINA RESULT:    -5.238      4.321      6.666
REMARK INTER + INTRA:         -11.314
REMARK INTER:                  -7.326
REMARK INTRA:                  -3.988
REMARK CONF_INDEPENDENT:        2.088
REMARK UNBOUND:                -3.988
REMARK  7 active torsions:
REMARK  status: ('A' for Active; 'I' for Inactive)
REMARK    1  A    between atoms: C_2  and  C_3 
REMARK       I    between atoms: C_2  and  N_14 
REMARK    2  A    between atoms: C_3  and  N_4 
REMARK       I    between atoms: N_4  and  C_5 
REMARK       I    between atoms: C_5  and  N_7 
REMARK    3  A    between atoms: N_7  and  C_8 
REMARK    4  A    between atoms: C_8  and  C_9 
REMARK    5  A    between atoms: N_14  and  N_15 
REMARK    6  A    between atoms: C_16  and  C_17 
REMARK    7  A    between atoms: C_22  and  O_23 
ROOT
ATOM      1  O   UNL d   1      31.667 -16.214  -7.633  0.00  0.00    -0.270 OA
ATOM      2  C   UNL d   1      30.701 -16.083  -6.873  0.00  0.00     0.255 C 
ATOM      3  N   UNL d   1      29.603 -15.327  -7.268  0.00  0.00    -0.246 N 
ATOM      4  H   UNL d   1      29.654 -14.878  -8.177  0.00  0.00     0.192 HD
ENDROOT
BRANCH   2   5
ATOM      5  C   UNL d   1      30.670 -16.746  -5.477  0.00  0.00     0.228 C 
BRANCH   5   6
ATOM      6  N   UNL d   1      29.426 -16.510  -4.706  0.00  0.00    -0.334 N 
ATOM      7  C   UNL d   1      29.378 -16.700  -3.346  0.00  0.00     0.316 C 
ATOM      8  O   UNL d   1      30.357 -17.058  -2.692  0.00  0.00    -0.247 OA
ATOM      9  N   UNL d   1      28.160 -16.452  -2.762  0.00  0.00    -0.337 N 
ATOM     10  H   UNL d   1      27.370 -16.185  -3.328  0.00  0.00     0.164 HD
ATOM     11  H   UNL d   1      28.610 -16.221  -5.228  0.00  0.00     0.164 HD
BRANCH   9  12
ATOM     12  C   UNL d   1      27.965 -16.624  -1.318  0.00  0.00     0.189 C 
BRANCH  12  13
ATOM     13  C   UNL d   1      26.542 -16.946  -0.989  0.00  0.00     0.070 A 
ATOM     14  C   UNL d   1      25.946 -17.483   0.135  0.00  0.00     0.036 A 
ATOM     15  C   UNL d   1      24.566 -17.613  -0.146  0.00  0.00     0.027 A 
ATOM     16  C   UNL d   1      24.397 -17.171  -1.437  0.00  0.00     0.142 A 
ATOM     17  O   UNL d   1      25.589 -16.766  -1.961  0.00  0.00    -0.325 OA
ENDBRANCH  12  13
ENDBRANCH   9  12
ENDBRANCH   5   6
ENDBRANCH   2   5
BRANCH   3  18
ATOM     18  N   UNL d   1      28.513 -15.137  -6.470  0.00  0.00    -0.184 NA
ATOM     19  C   UNL d   1      28.309 -13.943  -5.995  0.00  0.00     0.152 C 
BRANCH  19  20
ATOM     20  C   UNL d   1      27.165 -13.663  -5.083  0.00  0.00     0.016 A 
ATOM     21  C   UNL d   1      27.001 -12.386  -4.524  0.00  0.00     0.016 A 
ATOM     22  C   UNL d   1      25.898 -12.118  -3.699  0.00  0.00     0.001 A 
ATOM     23  C   UNL d   1      24.977 -13.128  -3.411  0.00  0.00     0.003 A 
ATOM     24  C   UNL d   1      25.155 -14.407  -3.940  0.00  0.00     0.037 A 
ATOM     25  C   UNL d   1      26.247 -14.672  -4.770  0.00  0.00     0.077 A 
BRANCH  25  26
ATOM     26  O   UNL d   1      26.455 -15.938  -5.238  0.00  0.00    -0.360 OA
ATOM     27  H   UNL d   1      26.558 -15.927  -6.202  0.00  0.00     0.217 HD
ENDBRANCH  25  26
ENDBRANCH  19  20
ENDBRANCH   3  18
TORSDOF 7
ENDMDL
MODEL 5
REMARK VINA RESULT:    -5.055      3.727      8.148
REMARK INTER + INTRA:         -10.532
REMARK INTER:                  -7.143
REMARK INTRA:                  -3.389
REMARK CONF_INDEPENDENT:        2.088
REMARK UNBOUND:                -3.389
REMARK  7 active torsions:
REMARK  status: ('A' for Active; 'I' for Inactive)
REMARK    1  A    between atoms: C_2  and  C_3 
REMARK       I    between atoms: C_2  and  N_14 
REMARK    2  A    between atoms: C_3  and  N_4 
REMARK       I    between atoms: N_4  and  C_5 
REMARK       I    between atoms: C_5  and  N_7 
REMARK    3  A    between atoms: N_7  and  C_8 
REMARK    4  A    between atoms: C_8  and  C_9 
REMARK    5  A    between atoms: N_14  and  N_15 
REMARK    6  A    between atoms: C_16  and  C_17 
REMARK    7  A    between atoms: C_22  and  O_23 
ROOT
ATOM      1  O   UNL d   1      30.319 -14.242   0.793  0.00  0.00    -0.270 OA
ATOM      2  C   UNL d   1      29.145 -14.436   0.459  0.00  0.00     0.255 C 
ATOM      3  N   UNL d   1      28.420 -15.473   1.035  0.00  0.00    -0.246 N 
ATOM      4  H   UNL d   1      28.908 -16.062   1.703  0.00  0.00     0.192 HD
ENDROOT
BRANCH   2   5
ATOM      5  C   UNL d   1      28.441 -13.546  -0.591  0.00  0.00     0.228 C 
BRANCH   5   6
ATOM      6  N   UNL d   1      27.562 -14.278  -1.535  0.00  0.00    -0.334 N 
ATOM      7  C   UNL d   1      27.399 -13.859  -2.834  0.00  0.00     0.316 C 
ATOM      8  O   UNL d   1      27.977 -12.873  -3.289  0.00  0.00    -0.247 OA
ATOM      9  N   UNL d   1      26.551 -14.626  -3.594  0.00  0.00    -0.337 N 
ATOM     10  H   UNL d   1      26.072 -15.413  -3.185  0.00  0.00     0.164 HD
ATOM     11  H   UNL d   1      27.075 -15.088  -1.175  0.00  0.00     0.164 HD
BRANCH   9  12
ATOM     12  C   UNL d   1      26.277 -14.288  -4.996  0.00  0.00     0.189 C 
BRANCH  12  13
ATOM     13  C   UNL d   1      27.529 -14.279  -5.814  0.00  0.00     0.070 A 
ATOM     14  C   UNL d   1      28.165 -13.284  -6.530  0.00  0.00     0.036 A 
ATOM     15  C   UNL d   1      29.288 -13.873  -7.156  0.00  0.00     0.027 A 
ATOM     16  C   UNL d   1      29.264 -15.203  -6.808  0.00  0.00     0.142 A 
ATOM     17  O   UNL d   1      28.200 -15.463  -5.995  0.00  0.00    -0.325 OA
ENDBRANCH  12  13
ENDBRANCH   9  12
ENDBRANCH   5   6
ENDBRANCH   2   5
BRANCH   3  18
ATOM     18  N   UNL d   1      27.126 -15.744   0.701  0.00  0.00    -0.184 NA
ATOM     19  C   UNL d   1      26.844 -16.946   0.290  0.00  0.00     0.152 C 
BRANCH  19  20
ATOM     20  C   UNL d   1      25.463 -17.309  -0.134  0.00  0.00     0.016 A 
ATOM     21  C   UNL d   1      24.938 -18.575   0.172  0.00  0.00     0.016 A 
ATOM     22  C   UNL d   1      23.622 -18.895  -0.194  0.00  0.00     0.001 A 
ATOM     23  C   UNL d   1      22.841 -17.967  -0.886  0.00  0.00     0.003 A 
ATOM     24  C   UNL d   1      23.372 -16.719  -1.220  0.00  0.00     0.037 A 
ATOM     25  C   UNL d   1      24.678 -16.396  -0.847  0.00  0.00     0.077 A 
BRANCH  25  26
ATOM     26  O   UNL d   1      25.218 -15.199  -1.226  0.00  0.00    -0.360 OA
ATOM     27  H   UNL d   1      25.679 -14.787  -0.479  0.00  0.00     0.217 HD
ENDBRANCH  25  26
ENDBRANCH  19  20
ENDBRANCH   3  18
TORSDOF 7
ENDMDL
MODEL 6
REMARK VINA RESULT:    -5.020      4.334      7.786
REMARK INTER + INTRA:         -10.935
REMARK INTER:                  -7.108
REMARK INTRA:                  -3.826
REMARK CONF_INDEPENDENT:        2.088
REMARK UNBOUND:                -3.826
REMARK  7 active torsions:
REMARK  status: ('A' for Active; 'I' for Inactive)
REMARK    1  A    between atoms: C_2  and  C_3 
REMARK       I    between atoms: C_2  and  N_14 
REMARK    2  A    between atoms: C_3  and  N_4 
REMARK       I    between atoms: N_4  and  C_5 
REMARK       I    between atoms: C_5  and  N_7 
REMARK    3  A    between atoms: N_7  and  C_8 
REMARK    4  A    between atoms: C_8  and  C_9 
REMARK    5  A    between atoms: N_14  and  N_15 
REMARK    6  A    between atoms: C_16  and  C_17 
REMARK    7  A    between atoms: C_22  and  O_23 
ROOT
ATOM      1  O   UNL d   1      25.585 -11.831  -5.727  0.00  0.00    -0.270 OA
ATOM      2  C   UNL d   1      25.875 -12.796  -5.011  0.00  0.00     0.255 C 
ATOM      3  N   UNL d   1      24.880 -13.662  -4.574  0.00  0.00    -0.246 N 
ATOM      4  H   UNL d   1      23.926 -13.444  -4.844  0.00  0.00     0.192 HD
ENDROOT
BRANCH   2   5
ATOM      5  C   UNL d   1      27.333 -13.080  -4.583  0.00  0.00     0.228 C 
BRANCH   5   6
ATOM      6  N   UNL d   1      27.495 -13.491  -3.167  0.00  0.00    -0.334 N 
ATOM      7  C   UNL d   1      27.137 -12.661  -2.133  0.00  0.00     0.316 C 
ATOM      8  O   UNL d   1      26.653 -11.544  -2.318  0.00  0.00    -0.247 OA
ATOM      9  N   UNL d   1      27.350 -13.167  -0.875  0.00  0.00    -0.337 N 
ATOM     10  H   UNL d   1      27.772 -14.074  -0.756  0.00  0.00     0.164 HD
ATOM     11  H   UNL d   1      27.897 -14.403  -2.998  0.00  0.00     0.164 HD
BRANCH   9  12
ATOM     12  C   UNL d   1      27.021 -12.382   0.321  0.00  0.00     0.189 C 
BRANCH  12  13
ATOM     13  C   UNL d   1      27.346 -13.129   1.576  0.00  0.00     0.070 A 
ATOM     14  C   UNL d   1      27.255 -12.787   2.911  0.00  0.00     0.036 A 
ATOM     15  C   UNL d   1      27.759 -13.878   3.655  0.00  0.00     0.027 A 
ATOM     16  C   UNL d   1      28.155 -14.819   2.734  0.00  0.00     0.142 A 
ATOM     17  O   UNL d   1      27.911 -14.375   1.468  0.00  0.00    -0.325 OA
ENDBRANCH  12  13
ENDBRANCH   9  12
ENDBRANCH   5   6
ENDBRANCH   2   5
BRANCH   3  18
ATOM     18  N   UNL d   1      25.136 -14.737  -3.773  0.00  0.00    -0.184 NA
ATOM     19  C   UNL d   1      24.486 -14.825  -2.649  0.00  0.00     0.152 C 
BRANCH  19  20
ATOM     20  C   UNL d   1      24.740 -15.945  -1.702  0.00  0.00     0.016 A 
ATOM     21  C   UNL d   1      23.669 -16.574  -1.045  0.00  0.00     0.016 A 
ATOM     22  C   UNL d   1      23.912 -17.657  -0.186  0.00  0.00     0.001 A 
ATOM     23  C   UNL d   1      25.220 -18.093   0.040  0.00  0.00     0.003 A 
ATOM     24  C   UNL d   1      26.289 -17.449  -0.587  0.00  0.00     0.037 A 
ATOM     25  C   UNL d   1      26.047 -16.379  -1.451  0.00  0.00     0.077 A 
BRANCH  25  26
ATOM     26  O   UNL d   1      27.095 -15.710  -2.016  0.00  0.00    -0.360 OA
ATOM     27  H   UNL d   1      26.868 -15.426  -2.914  0.00  0.00     0.217 HD
ENDBRANCH  25  26
ENDBRANCH  19  20
ENDBRANCH   3  18
TORSDOF 7
ENDMDL
MODEL 7
REMARK VINA RESULT:    -4.604      4.638      8.269
REMARK INTER + INTRA:         -10.918
REMARK INTER:                  -6.692
REMARK INTRA:                  -4.226
REMARK CONF_INDEPENDENT:        2.088
REMARK UNBOUND:                -4.226
REMARK  7 active torsions:
REMARK  status: ('A' for Active; 'I' for Inactive)
REMARK    1  A    between atoms: C_2  and  C_3 
REMARK       I    between atoms: C_2  and  N_14 
REMARK    2  A    between atoms: C_3  and  N_4 
REMARK       I    between atoms: N_4  and  C_5 
REMARK       I    between atoms: C_5  and  N_7 
REMARK    3  A    between atoms: N_7  and  C_8 
REMARK    4  A    between atoms: C_8  and  C_9 
REMARK    5  A    between atoms: N_14  and  N_15 
REMARK    6  A    between atoms: C_16  and  C_17 
REMARK    7  A    between atoms: C_22  and  O_23 
ROOT
ATOM      1  O   UNL d   1      25.731 -11.457  -5.701  0.00  0.00    -0.270 OA
ATOM      2  C   UNL d   1      25.889 -12.590  -5.231  0.00  0.00     0.255 C 
ATOM      3  N   UNL d   1      25.022 -13.065  -4.254  0.00  0.00    -0.246 N 
ATOM      4  H   UNL d   1      24.293 -12.433  -3.937  0.00  0.00     0.192 HD
ENDROOT
BRANCH   2   5
ATOM      5  C   UNL d   1      27.034 -13.513  -5.706  0.00  0.00     0.228 C 
BRANCH   5   6
ATOM      6  N   UNL d   1      27.626 -14.363  -4.645  0.00  0.00    -0.334 N 
ATOM      7  C   UNL d   1      28.535 -15.350  -4.940  0.00  0.00     0.316 C 
ATOM      8  O   UNL d   1      28.919 -15.575  -6.088  0.00  0.00    -0.247 OA
ATOM      9  N   UNL d   1      28.996 -16.064  -3.862  0.00  0.00    -0.337 N 
ATOM     10  H   UNL d   1      28.643 -15.873  -2.937  0.00  0.00     0.164 HD
ATOM     11  H   UNL d   1      27.317 -14.195  -3.697  0.00  0.00     0.164 HD
BRANCH   9  12
ATOM     12  C   UNL d   1      29.963 -17.154  -4.034  0.00  0.00     0.189 C 
BRANCH  12  13
ATOM     13  C   UNL d   1      30.424 -17.694  -2.718  0.00  0.00     0.070 A 
ATOM     14  C   UNL d   1      31.263 -18.739  -2.384  0.00  0.00     0.036 A 
ATOM     15  C   UNL d   1      31.287 -18.820  -0.973  0.00  0.00     0.027 A 
ATOM     16  C   UNL d   1      30.441 -17.835  -0.520  0.00  0.00     0.142 A 
ATOM     17  O   UNL d   1      29.909 -17.146  -1.569  0.00  0.00    -0.325 OA
ENDBRANCH  12  13
ENDBRANCH   9  12
ENDBRANCH   5   6
ENDBRANCH   2   5
BRANCH   3  18
ATOM     18  N   UNL d   1      25.151 -14.300  -3.690  0.00  0.00    -0.184 NA
ATOM     19  C   UNL d   1      25.058 -14.390  -2.395  0.00  0.00     0.152 C 
BRANCH  19  20
ATOM     20  C   UNL d   1      25.230 -15.696  -1.701  0.00  0.00     0.016 A 
ATOM     21  C   UNL d   1      24.107 -16.436  -1.298  0.00  0.00     0.016 A 
ATOM     22  C   UNL d   1      24.276 -17.686  -0.682  0.00  0.00     0.001 A 
ATOM     23  C   UNL d   1      25.559 -18.183  -0.443  0.00  0.00     0.003 A 
ATOM     24  C   UNL d   1      26.678 -17.434  -0.815  0.00  0.00     0.037 A 
ATOM     25  C   UNL d   1      26.510 -16.195  -1.438  0.00  0.00     0.077 A 
BRANCH  25  26
ATOM     26  O   UNL d   1      27.603 -15.435  -1.746  0.00  0.00    -0.360 OA
ATOM     27  H   UNL d   1      28.402 -15.824  -1.358  0.00  0.00     0.217 HD
ENDBRANCH  25  26
ENDBRANCH  19  20
ENDBRANCH   3  18
TORSDOF 7
ENDMDL
