MODEL 1
REMARK VINA RESULT:    -8.320      0.000      0.000
REMARK INTER + INTRA:         -10.984
REMARK INTER:                  -9.513
REMARK INTRA:                  -1.471
REMARK CONF_INDEPENDENT:        1.193
REMARK UNBOUND:                -1.471
REMARK  4 active torsions:
REMARK  status: ('A' for Active; 'I' for Inactive)
REMARK    1  A    between atoms: O_2  and  C_3 
REMARK    2  A    between atoms: C_6  and  C_7 
REMARK    3  A    between atoms: C_18  and  N_19 
REMARK    4  A    between atoms: C_30  and  O_31 
ROOT
ATOM      1  C   UNL d   1      27.779 -12.042   4.462  0.00  0.00     0.100 A 
ATOM      2  C   UNL d   1      28.601 -12.640   5.611  0.00  0.00     0.024 A 
ATOM      3  C   UNL d   1      29.142 -13.871   5.498  0.00  0.00     0.021 A 
ATOM      4  C   UNL d   1      30.030 -14.450   6.575  0.00  0.00     0.058 C 
ATOM      5  C   UNL d   1      30.688 -13.365   7.424  0.00  0.00     0.014 C 
ATOM      6  C   UNL d   1      29.627 -12.443   7.975  0.00  0.00     0.084 C 
ATOM      7  C   UNL d   1      28.872 -11.812   6.849  0.00  0.00     0.158 C 
ATOM      8  O   UNL d   1      28.469 -10.664   7.007  0.00  0.00    -0.293 OA
ATOM      9  N   UNL d   1      28.921 -14.636   4.360  0.00  0.00    -0.344 N 
ATOM     10  C   UNL d   1      28.184 -14.227   3.256  0.00  0.00     0.134 A 
ATOM     11  N   UNL d   1      27.875 -15.074   2.211  0.00  0.00    -0.174 N 
ATOM     12  C   UNL d   1      27.146 -14.679   1.122  0.00  0.00     0.707 C 
ATOM     13  N   UNL d   1      26.674 -13.474   1.023  0.00  0.00    -0.023 NA
ATOM     14  C   UNL d   1      26.829 -12.592   2.080  0.00  0.00     0.294 C 
ATOM     15  O   UNL d   1      26.245 -11.506   2.102  0.00  0.00    -0.265 OA
ATOM     16  C   UNL d   1      27.699 -12.963   3.237  0.00  0.00     0.070 A 
ATOM     17  H   UNL d   1      29.303 -15.575   4.344  0.00  0.00     0.167 HD
ATOM     18  H   UNL d   1      28.304 -15.985   2.190  0.00  0.00     0.186 HD
ENDROOT
BRANCH   1  19
ATOM     19  C   UNL d   1      28.208 -10.582   4.279  0.00  0.00    -0.042 A 
ATOM     20  C   UNL d   1      29.531 -10.353   3.848  0.00  0.00     0.011 A 
ATOM     21  C   UNL d   1      29.905  -9.127   3.298  0.00  0.00     0.040 A 
ATOM     22  C   UNL d   1      28.977  -8.090   3.172  0.00  0.00     0.101 A 
ATOM     23  C   UNL d   1      27.648  -8.316   3.568  0.00  0.00     0.099 A 
ATOM     24  C   UNL d   1      27.268  -9.541   4.135  0.00  0.00     0.047 A 
BRANCH  22  25
ATOM     25  O   UNL d   1      29.510  -6.948   2.633  0.00  0.00    -0.353 OA
ATOM     26  C   UNL d   1      30.546  -6.324   3.377  0.00  0.00     0.210 C 
ENDBRANCH  22  25
BRANCH  23  27
ATOM     27  O   UNL d   1      26.678  -7.373   3.343  0.00  0.00    -0.358 OA
ATOM     28  H   UNL d   1      27.062  -6.588   2.929  0.00  0.00     0.217 HD
ENDBRANCH  23  27
ENDBRANCH   1  19
BRANCH  12  29
ATOM     29  N   UNL d   1      27.037 -15.637   0.121  0.00  0.00    -0.216 N 
ATOM     30  C   UNL d   1      26.525 -15.300  -1.215  0.00  0.00     0.141 C 
ATOM     31  C   UNL d   1      25.168 -15.942  -1.505  0.00  0.00     0.020 C 
ATOM     32  C   UNL d   1      25.193 -17.450  -1.277  0.00  0.00     0.003 C 
ATOM     33  C   UNL d   1      25.744 -17.763   0.112  0.00  0.00     0.020 C 
ATOM     34  C   UNL d   1      27.099 -17.084   0.365  0.00  0.00     0.141 C 
ENDBRANCH  12  29
TORSDOF 4
ENDMDL
MODEL 2
REMARK VINA RESULT:    -8.028      5.684      7.891
REMARK INTER + INTRA:         -10.258
REMARK INTER:                  -9.221
REMARK INTRA:                  -1.037
REMARK CONF_INDEPENDENT:        1.193
REMARK UNBOUND:                -1.037
REMARK  4 active torsions:
REMARK  status: ('A' for Active; 'I' for Inactive)
REMARK    1  A    between atoms: O_2  and  C_3 
REMARK    2  A    between atoms: C_6  and  C_7 
REMARK    3  A    between atoms: C_18  and  N_19 
REMARK    4  A    between atoms: C_30  and  O_31 
ROOT
ATOM      1  C   UNL d   1      27.296 -15.818  -2.096  0.00  0.00     0.100 A 
ATOM      2  C   UNL d   1      26.156 -16.613  -1.446  0.00  0.00     0.024 A 
ATOM      3  C   UNL d   1      26.409 -17.473  -0.437  0.00  0.00     0.021 A 
ATOM      4  C   UNL d   1      25.298 -18.203   0.282  0.00  0.00     0.058 C 
ATOM      5  C   UNL d   1      23.964 -17.469   0.176  0.00  0.00     0.014 C 
ATOM      6  C   UNL d   1      23.646 -17.207  -1.276  0.00  0.00     0.084 C 
ATOM      7  C   UNL d   1      24.728 -16.375  -1.888  0.00  0.00     0.158 C 
ATOM      8  O   UNL d   1      24.405 -15.570  -2.755  0.00  0.00    -0.293 OA
ATOM      9  N   UNL d   1      27.712 -17.687  -0.004  0.00  0.00    -0.344 N 
ATOM     10  C   UNL d   1      28.836 -17.051  -0.514  0.00  0.00     0.134 A 
ATOM     11  N   UNL d   1      30.120 -17.400  -0.150  0.00  0.00    -0.174 N 
ATOM     12  C   UNL d   1      31.232 -16.780  -0.652  0.00  0.00     0.707 C 
ATOM     13  N   UNL d   1      31.139 -15.831  -1.533  0.00  0.00    -0.023 NA
ATOM     14  C   UNL d   1      29.898 -15.498  -2.049  0.00  0.00     0.294 C 
ATOM     15  O   UNL d   1      29.785 -14.735  -3.012  0.00  0.00    -0.265 OA
ATOM     16  C   UNL d   1      28.662 -16.091  -1.453  0.00  0.00     0.070 A 
ATOM     17  H   UNL d   1      27.858 -18.382   0.719  0.00  0.00     0.167 HD
ATOM     18  H   UNL d   1      30.242 -18.056   0.605  0.00  0.00     0.186 HD
ENDROOT
BRANCH   1  19
ATOM     19  C   UNL d   1      26.823 -14.371  -2.276  0.00  0.00    -0.042 A 
ATOM     20  C   UNL d   1      27.278 -13.428  -1.332  0.00  0.00     0.011 A 
ATOM     21  C   UNL d   1      27.228 -12.060  -1.602  0.00  0.00     0.040 A 
ATOM     22  C   UNL d   1      26.713 -11.592  -2.815  0.00  0.00     0.101 A 
ATOM     23  C   UNL d   1      26.288 -12.523  -3.776  0.00  0.00     0.099 A 
ATOM     24  C   UNL d   1      26.322 -13.899  -3.506  0.00  0.00     0.047 A 
BRANCH  22  25
ATOM     25  O   UNL d   1      26.717 -10.224  -2.912  0.00  0.00    -0.353 OA
ATOM     26  C   UNL d   1      25.530  -9.626  -3.411  0.00  0.00     0.210 C 
ENDBRANCH  22  25
BRANCH  23  27
ATOM     27  O   UNL d   1      25.899 -12.113  -5.026  0.00  0.00    -0.358 OA
ATOM     28  H   UNL d   1      25.155 -11.497  -4.962  0.00  0.00     0.217 HD
ENDBRANCH  23  27
ENDBRANCH   1  19
BRANCH  12  29
ATOM     29  N   UNL d   1      32.431 -17.190  -0.079  0.00  0.00    -0.216 N 
ATOM     30  C   UNL d   1      32.756 -18.614   0.091  0.00  0.00     0.141 C 
ATOM     31  C   UNL d   1      32.788 -19.040   1.559  0.00  0.00     0.020 C 
ATOM     32  C   UNL d   1      33.709 -18.150   2.388  0.00  0.00     0.003 C 
ATOM     33  C   UNL d   1      33.352 -16.681   2.175  0.00  0.00     0.020 C 
ATOM     34  C   UNL d   1      33.316 -16.303   0.686  0.00  0.00     0.141 C 
ENDBRANCH  12  29
TORSDOF 4
ENDMDL
MODEL 3
REMARK VINA RESULT:    -7.701      3.414      8.180
REMARK INTER + INTRA:         -10.318
REMARK INTER:                  -8.894
REMARK INTRA:                  -1.424
REMARK CONF_INDEPENDENT:        1.193
REMARK UNBOUND:                -1.424
REMARK  4 active torsions:
REMARK  status: ('A' for Active; 'I' for Inactive)
REMARK    1  A    between atoms: O_2  and  C_3 
REMARK    2  A    between atoms: C_6  and  C_7 
REMARK    3  A    between atoms: C_18  and  N_19 
REMARK    4  A    between atoms: C_30  and  O_31 
ROOT
ATOM      1  C   UNL d   1      28.618 -14.561   1.340  0.00  0.00     0.100 A 
ATOM      2  C   UNL d   1      29.864 -15.104   0.629  0.00  0.00     0.024 A 
ATOM      3  C   UNL d   1      31.020 -15.271   1.305  0.00  0.00     0.021 A 
ATOM      4  C   UNL d   1      32.238 -15.887   0.655  0.00  0.00     0.058 C 
ATOM      5  C   UNL d   1      31.870 -16.778  -0.529  0.00  0.00     0.014 C 
ATOM      6  C   UNL d   1      31.020 -15.997  -1.503  0.00  0.00     0.084 C 
ATOM      7  C   UNL d   1      29.775 -15.527  -0.822  0.00  0.00     0.158 C 
ATOM      8  O   UNL d   1      28.749 -15.464  -1.492  0.00  0.00    -0.293 OA
ATOM      9  N   UNL d   1      31.113 -14.908   2.643  0.00  0.00    -0.344 N 
ATOM     10  C   UNL d   1      30.072 -14.390   3.401  0.00  0.00     0.134 A 
ATOM     11  N   UNL d   1      30.250 -13.913   4.684  0.00  0.00    -0.174 N 
ATOM     12  C   UNL d   1      29.230 -13.397   5.436  0.00  0.00     0.707 C 
ATOM     13  N   UNL d   1      28.023 -13.301   4.966  0.00  0.00    -0.023 NA
ATOM     14  C   UNL d   1      27.776 -13.639   3.646  0.00  0.00     0.294 C 
ATOM     15  O   UNL d   1      26.692 -13.394   3.111  0.00  0.00    -0.265 OA
ATOM     16  C   UNL d   1      28.847 -14.293   2.833  0.00  0.00     0.070 A 
ATOM     17  H   UNL d   1      32.016 -15.002   3.093  0.00  0.00     0.167 HD
ATOM     18  H   UNL d   1      31.141 -14.061   5.130  0.00  0.00     0.186 HD
ENDROOT
BRANCH   1  19
ATOM     19  C   UNL d   1      27.415 -15.404   0.902  0.00  0.00    -0.042 A 
ATOM     20  C   UNL d   1      26.479 -14.787   0.047  0.00  0.00     0.011 A 
ATOM     21  C   UNL d   1      25.578 -15.546  -0.699  0.00  0.00     0.040 A 
ATOM     22  C   UNL d   1      25.574 -16.941  -0.607  0.00  0.00     0.101 A 
ATOM     23  C   UNL d   1      26.523 -17.569   0.216  0.00  0.00     0.099 A 
ATOM     24  C   UNL d   1      27.423 -16.812   0.980  0.00  0.00     0.047 A 
BRANCH  22  25
ATOM     25  O   UNL d   1      24.615 -17.534  -1.388  0.00  0.00    -0.353 OA
ATOM     26  C   UNL d   1      23.445 -17.979  -0.718  0.00  0.00     0.210 C 
ENDBRANCH  22  25
BRANCH  23  27
ATOM     27  O   UNL d   1      26.640 -18.936   0.236  0.00  0.00    -0.358 OA
ATOM     28  H   UNL d   1      25.928 -19.342  -0.278  0.00  0.00     0.217 HD
ENDBRANCH  23  27
ENDBRANCH   1  19
BRANCH  12  29
ATOM     29  N   UNL d   1      29.579 -13.077   6.743  0.00  0.00    -0.216 N 
ATOM     30  C   UNL d   1      30.152 -14.078   7.654  0.00  0.00     0.141 C 
ATOM     31  C   UNL d   1      29.208 -14.439   8.802  0.00  0.00     0.020 C 
ATOM     32  C   UNL d   1      28.730 -13.202   9.554  0.00  0.00     0.003 C 
ATOM     33  C   UNL d   1      28.156 -12.180   8.576  0.00  0.00     0.020 C 
ATOM     34  C   UNL d   1      29.132 -11.860   7.433  0.00  0.00     0.141 C 
ENDBRANCH  12  29
TORSDOF 4
ENDMDL
MODEL 4
REMARK VINA RESULT:    -7.646      3.661      7.799
REMARK INTER + INTRA:         -10.201
REMARK INTER:                  -8.839
REMARK INTRA:                  -1.362
REMARK CONF_INDEPENDENT:        1.193
REMARK UNBOUND:                -1.362
REMARK  4 active torsions:
REMARK  status: ('A' for Active; 'I' for Inactive)
REMARK    1  A    between atoms: O_2  and  C_3 
REMARK    2  A    between atoms: C_6  and  C_7 
REMARK    3  A    between atoms: C_18  and  N_19 
REMARK    4  A    between atoms: C_30  and  O_31 
ROOT
ATOM      1  C   UNL d   1      28.381 -13.301  -1.263  0.00  0.00     0.100 A 
ATOM      2  C   UNL d   1      29.053 -14.561  -1.824  0.00  0.00     0.024 A 
ATOM      3  C   UNL d   1      29.324 -15.609  -1.018  0.00  0.00     0.021 A 
ATOM      4  C   UNL d   1      29.902 -16.897  -1.557  0.00  0.00     0.058 C 
ATOM      5  C   UNL d   1      29.593 -17.091  -3.040  0.00  0.00     0.014 C 
ATOM      6  C   UNL d   1      30.051 -15.877  -3.812  0.00  0.00     0.084 C 
ATOM      7  C   UNL d   1      29.343 -14.660  -3.306  0.00  0.00     0.158 C 
ATOM      8  O   UNL d   1      29.075 -13.779  -4.117  0.00  0.00    -0.293 OA
ATOM      9  N   UNL d   1      29.043 -15.543   0.342  0.00  0.00    -0.344 N 
ATOM     10  C   UNL d   1      28.456 -14.460   0.982  0.00  0.00     0.134 A 
ATOM     11  N   UNL d   1      28.327 -14.386   2.354  0.00  0.00    -0.174 N 
ATOM     12  C   UNL d   1      27.753 -13.321   2.992  0.00  0.00     0.707 C 
ATOM     13  N   UNL d   1      27.314 -12.292   2.333  0.00  0.00    -0.023 NA
ATOM     14  C   UNL d   1      27.512 -12.223   0.964  0.00  0.00     0.294 C 
ATOM     15  O   UNL d   1      27.276 -11.192   0.330  0.00  0.00    -0.265 OA
ATOM     16  C   UNL d   1      28.049 -13.410   0.231  0.00  0.00     0.070 A 
ATOM     17  H   UNL d   1      29.314 -16.334   0.915  0.00  0.00     0.167 HD
ATOM     18  H   UNL d   1      28.556 -15.201   2.901  0.00  0.00     0.186 HD
ENDROOT
BRANCH   1  19
ATOM     19  C   UNL d   1      27.290 -12.865  -2.248  0.00  0.00    -0.042 A 
ATOM     20  C   UNL d   1      27.507 -11.662  -2.951  0.00  0.00     0.011 A 
ATOM     21  C   UNL d   1      26.791 -11.370  -4.112  0.00  0.00     0.040 A 
ATOM     22  C   UNL d   1      25.832 -12.261  -4.601  0.00  0.00     0.101 A 
ATOM     23  C   UNL d   1      25.630 -13.477  -3.927  0.00  0.00     0.099 A 
ATOM     24  C   UNL d   1      26.335 -13.772  -2.752  0.00  0.00     0.047 A 
BRANCH  22  25
ATOM     25  O   UNL d   1      25.206 -11.815  -5.736  0.00  0.00    -0.353 OA
ATOM     26  C   UNL d   1      25.528 -10.497  -6.155  0.00  0.00     0.210 C 
ENDBRANCH  22  25
BRANCH  23  27
ATOM     27  O   UNL d   1      24.794 -14.435  -4.444  0.00  0.00    -0.358 OA
ATOM     28  H   UNL d   1      24.134 -14.029  -5.022  0.00  0.00     0.217 HD
ENDBRANCH  23  27
ENDBRANCH   1  19
BRANCH  12  29
ATOM     29  N   UNL d   1      27.608 -13.479   4.366  0.00  0.00    -0.216 N 
ATOM     30  C   UNL d   1      27.782 -12.352   5.294  0.00  0.00     0.141 C 
ATOM     31  C   UNL d   1      29.023 -12.500   6.175  0.00  0.00     0.020 C 
ATOM     32  C   UNL d   1      29.043 -13.838   6.906  0.00  0.00     0.003 C 
ATOM     33  C   UNL d   1      28.844 -14.983   5.915  0.00  0.00     0.020 C 
ATOM     34  C   UNL d   1      27.596 -14.783   5.041  0.00  0.00     0.141 C 
ENDBRANCH  12  29
TORSDOF 4
ENDMDL
MODEL 5
REMARK VINA RESULT:    -7.585      6.910      9.900
REMARK INTER + INTRA:          -9.732
REMARK INTER:                  -8.778
REMARK INTRA:                  -0.953
REMARK CONF_INDEPENDENT:        1.193
REMARK UNBOUND:                -0.953
REMARK  4 active torsions:
REMARK  status: ('A' for Active; 'I' for Inactive)
REMARK    1  A    between atoms: O_2  and  C_3 
REMARK    2  A    between atoms: C_6  and  C_7 
REMARK    3  A    between atoms: C_18  and  N_19 
REMARK    4  A    between atoms: C_30  and  O_31 
ROOT
ATOM      1  C   UNL d   1      28.091 -15.284  -2.752  0.00  0.00     0.100 A 
ATOM      2  C   UNL d   1      27.421 -14.114  -3.482  0.00  0.00     0.024 A 
ATOM      3  C   UNL d   1      27.588 -13.949  -4.811  0.00  0.00     0.021 A 
ATOM      4  C   UNL d   1      26.869 -12.859  -5.573  0.00  0.00     0.058 C 
ATOM      5  C   UNL d   1      25.591 -12.411  -4.869  0.00  0.00     0.014 C 
ATOM      6  C   UNL d   1      25.910 -12.016  -3.447  0.00  0.00     0.084 C 
ATOM      7  C   UNL d   1      26.503 -13.182  -2.720  0.00  0.00     0.158 C 
ATOM      8  O   UNL d   1      26.250 -13.295  -1.525  0.00  0.00    -0.293 OA
ATOM      9  N   UNL d   1      28.409 -14.809  -5.529  0.00  0.00    -0.344 N 
ATOM     10  C   UNL d   1      29.089 -15.894  -4.993  0.00  0.00     0.134 A 
ATOM     11  N   UNL d   1      30.003 -16.633  -5.717  0.00  0.00    -0.174 N 
ATOM     12  C   UNL d   1      30.680 -17.701  -5.194  0.00  0.00     0.707 C 
ATOM     13  N   UNL d   1      30.516 -18.069  -3.960  0.00  0.00    -0.023 NA
ATOM     14  C   UNL d   1      29.713 -17.312  -3.123  0.00  0.00     0.294 C 
ATOM     15  O   UNL d   1      29.673 -17.519  -1.908  0.00  0.00    -0.265 OA
ATOM     16  C   UNL d   1      28.890 -16.199  -3.689  0.00  0.00     0.070 A 
ATOM     17  H   UNL d   1      28.546 -14.613  -6.514  0.00  0.00     0.167 HD
ATOM     18  H   UNL d   1      30.088 -16.454  -6.705  0.00  0.00     0.186 HD
ENDROOT
BRANCH   1  19
ATOM     19  C   UNL d   1      27.064 -15.899  -1.794  0.00  0.00    -0.042 A 
ATOM     20  C   UNL d   1      25.774 -16.139  -2.309  0.00  0.00     0.011 A 
ATOM     21  C   UNL d   1      24.898 -17.016  -1.669  0.00  0.00     0.040 A 
ATOM     22  C   UNL d   1      25.276 -17.670  -0.493  0.00  0.00     0.101 A 
ATOM     23  C   UNL d   1      26.570 -17.463   0.012  0.00  0.00     0.099 A 
ATOM     24  C   UNL d   1      27.452 -16.572  -0.618  0.00  0.00     0.047 A 
BRANCH  22  25
ATOM     25  O   UNL d   1      24.293 -18.478   0.018  0.00  0.00    -0.353 OA
ATOM     26  C   UNL d   1      23.104 -18.585  -0.750  0.00  0.00     0.210 C 
ENDBRANCH  22  25
BRANCH  23  27
ATOM     27  O   UNL d   1      27.026 -18.181   1.087  0.00  0.00    -0.358 OA
ATOM     28  H   UNL d   1      27.976 -18.347   1.003  0.00  0.00     0.217 HD
ENDBRANCH  23  27
ENDBRANCH   1  19
BRANCH  12  29
ATOM     29  N   UNL d   1      31.469 -18.390  -6.108  0.00  0.00    -0.216 N 
ATOM     30  C   UNL d   1      32.361 -17.685  -7.041  0.00  0.00     0.141 C 
ATOM     31  C   UNL d   1      31.906 -17.804  -8.496  0.00  0.00     0.020 C 
ATOM     32  C   UNL d   1      31.698 -19.258  -8.907  0.00  0.00     0.003 C 
ATOM     33  C   UNL d   1      30.780 -19.961  -7.910  0.00  0.00     0.020 C 
ATOM     34  C   UNL d   1      31.267 -19.801  -6.462  0.00  0.00     0.141 C 
ENDBRANCH  12  29
TORSDOF 4
ENDMDL
MODEL 6
REMARK VINA RESULT:    -7.365      6.406      8.578
REMARK INTER + INTRA:          -9.834
REMARK INTER:                  -8.559
REMARK INTRA:                  -1.275
REMARK CONF_INDEPENDENT:        1.193
REMARK UNBOUND:                -1.275
REMARK  4 active torsions:
REMARK  status: ('A' for Active; 'I' for Inactive)
REMARK    1  A    between atoms: O_2  and  C_3 
REMARK    2  A    between atoms: C_6  and  C_7 
REMARK    3  A    between atoms: C_18  and  N_19 
REMARK    4  A    between atoms: C_30  and  O_31 
ROOT
ATOM      1  C   UNL d   1      27.966 -16.291  -2.626  0.00  0.00     0.100 A 
ATOM      2  C   UNL d   1      26.713 -16.692  -1.838  0.00  0.00     0.024 A 
ATOM      3  C   UNL d   1      26.819 -17.192  -0.589  0.00  0.00     0.021 A 
ATOM      4  C   UNL d   1      25.599 -17.511   0.245  0.00  0.00     0.058 C 
ATOM      5  C   UNL d   1      24.377 -16.708  -0.191  0.00  0.00     0.014 C 
ATOM      6  C   UNL d   1      24.142 -16.909  -1.669  0.00  0.00     0.084 C 
ATOM      7  C   UNL d   1      25.343 -16.454  -2.437  0.00  0.00     0.158 C 
ATOM      8  O   UNL d   1      25.155 -15.951  -3.540  0.00  0.00    -0.293 OA
ATOM      9  N   UNL d   1      28.068 -17.396  -0.016  0.00  0.00    -0.344 N 
ATOM     10  C   UNL d   1      29.281 -17.096  -0.621  0.00  0.00     0.134 A 
ATOM     11  N   UNL d   1      30.496 -17.447  -0.070  0.00  0.00    -0.174 N 
ATOM     12  C   UNL d   1      31.695 -17.158  -0.663  0.00  0.00     0.707 C 
ATOM     13  N   UNL d   1      31.756 -16.551  -1.809  0.00  0.00    -0.023 NA
ATOM     14  C   UNL d   1      30.586 -16.270  -2.495  0.00  0.00     0.294 C 
ATOM     15  O   UNL d   1      30.604 -15.861  -3.658  0.00  0.00    -0.265 OA
ATOM     16  C   UNL d   1      29.264 -16.487  -1.831  0.00  0.00     0.070 A 
ATOM     17  H   UNL d   1      28.098 -17.823   0.903  0.00  0.00     0.167 HD
ATOM     18  H   UNL d   1      30.507 -17.825   0.864  0.00  0.00     0.186 HD
ENDROOT
BRANCH   1  19
ATOM     19  C   UNL d   1      27.693 -14.942  -3.300  0.00  0.00    -0.042 A 
ATOM     20  C   UNL d   1      27.856 -14.883  -4.700  0.00  0.00     0.011 A 
ATOM     21  C   UNL d   1      27.287 -13.850  -5.445  0.00  0.00     0.040 A 
ATOM     22  C   UNL d   1      26.549 -12.841  -4.819  0.00  0.00     0.101 A 
ATOM     23  C   UNL d   1      26.353 -12.907  -3.430  0.00  0.00     0.099 A 
ATOM     24  C   UNL d   1      26.934 -13.934  -2.671  0.00  0.00     0.047 A 
BRANCH  22  25
ATOM     25  O   UNL d   1      26.078 -11.894  -5.691  0.00  0.00    -0.353 OA
ATOM     26  C   UNL d   1      27.001 -11.411  -6.655  0.00  0.00     0.210 C 
ENDBRANCH  22  25
BRANCH  23  27
ATOM     27  O   UNL d   1      25.530 -12.013  -2.794  0.00  0.00    -0.358 OA
ATOM     28  H   UNL d   1      24.897 -11.634  -3.420  0.00  0.00     0.217 HD
ENDBRANCH  23  27
ENDBRANCH   1  19
BRANCH  12  29
ATOM     29  N   UNL d   1      32.811 -17.488   0.098  0.00  0.00    -0.216 N 
ATOM     30  C   UNL d   1      33.216 -18.886   0.305  0.00  0.00     0.141 C 
ATOM     31  C   UNL d   1      33.038 -19.343   1.753  0.00  0.00     0.020 C 
ATOM     32  C   UNL d   1      33.734 -18.405   2.734  0.00  0.00     0.003 C 
ATOM     33  C   UNL d   1      33.301 -16.963   2.480  0.00  0.00     0.020 C 
ATOM     34  C   UNL d   1      33.482 -16.553   1.011  0.00  0.00     0.141 C 
ENDBRANCH  12  29
TORSDOF 4
ENDMDL
MODEL 7
REMARK VINA RESULT:    -7.156      6.301      8.768
REMARK INTER + INTRA:          -9.444
REMARK INTER:                  -8.349
REMARK INTRA:                  -1.095
REMARK CONF_INDEPENDENT:        1.193
REMARK UNBOUND:                -1.095
REMARK  4 active torsions:
REMARK  status: ('A' for Active; 'I' for Inactive)
REMARK    1  A    between atoms: O_2  and  C_3 
REMARK    2  A    between atoms: C_6  and  C_7 
REMARK    3  A    between atoms: C_18  and  N_19 
REMARK    4  A    between atoms: C_30  and  O_31 
ROOT
ATOM      1  C   UNL d   1      26.796 -15.330  -1.002  0.00  0.00     0.100 A 
ATOM      2  C   UNL d   1      25.589 -16.242  -0.747  0.00  0.00     0.024 A 
ATOM      3  C   UNL d   1      24.441 -16.068  -1.435  0.00  0.00     0.021 A 
ATOM      4  C   UNL d   1      23.267 -17.005  -1.271  0.00  0.00     0.058 C 
ATOM      5  C   UNL d   1      23.694 -18.382  -0.767  0.00  0.00     0.014 C 
ATOM      6  C   UNL d   1      24.500 -18.227   0.500  0.00  0.00     0.084 C 
ATOM      7  C   UNL d   1      25.711 -17.392   0.230  0.00  0.00     0.158 C 
ATOM      8  O   UNL d   1      26.735 -17.656   0.853  0.00  0.00    -0.293 OA
ATOM      9  N   UNL d   1      24.319 -15.031  -2.351  0.00  0.00    -0.344 N 
ATOM     10  C   UNL d   1      25.323 -14.124  -2.666  0.00  0.00     0.134 A 
ATOM     11  N   UNL d   1      25.109 -13.027  -3.475  0.00  0.00    -0.174 N 
ATOM     12  C   UNL d   1      26.092 -12.127  -3.786  0.00  0.00     0.707 C 
ATOM     13  N   UNL d   1      27.293 -12.242  -3.307  0.00  0.00    -0.023 NA
ATOM     14  C   UNL d   1      27.568 -13.241  -2.387  0.00  0.00     0.294 C 
ATOM     15  O   UNL d   1      28.637 -13.276  -1.775  0.00  0.00    -0.265 OA
ATOM     16  C   UNL d   1      26.543 -14.292  -2.104  0.00  0.00     0.070 A 
ATOM     17  H   UNL d   1      23.421 -14.908  -2.805  0.00  0.00     0.167 HD
ATOM     18  H   UNL d   1      24.226 -12.951  -3.954  0.00  0.00     0.186 HD
ENDROOT
BRANCH   1  19
ATOM     19  C   UNL d   1      28.050 -16.209  -1.069  0.00  0.00    -0.042 A 
ATOM     20  C   UNL d   1      28.455 -16.650  -2.345  0.00  0.00     0.011 A 
ATOM     21  C   UNL d   1      29.749 -17.119  -2.565  0.00  0.00     0.040 A 
ATOM     22  C   UNL d   1      30.675 -17.174  -1.519  0.00  0.00     0.101 A 
ATOM     23  C   UNL d   1      30.294 -16.708  -0.251  0.00  0.00     0.099 A 
ATOM     24  C   UNL d   1      28.990 -16.247  -0.018  0.00  0.00     0.047 A 
BRANCH  22  25
ATOM     25  O   UNL d   1      31.893 -17.679  -1.899  0.00  0.00    -0.353 OA
ATOM     26  C   UNL d   1      32.147 -19.033  -1.557  0.00  0.00     0.210 C 
ENDBRANCH  22  25
BRANCH  23  27
ATOM     27  O   UNL d   1      31.207 -16.622   0.769  0.00  0.00    -0.358 OA
ATOM     28  H   UNL d   1      30.780 -16.800   1.619  0.00  0.00     0.217 HD
ENDBRANCH  23  27
ENDBRANCH   1  19
BRANCH  12  29
ATOM     29  N   UNL d   1      25.717 -11.156  -4.707  0.00  0.00    -0.216 N 
ATOM     30  C   UNL d   1      25.790 -11.398  -6.155  0.00  0.00     0.141 C 
ATOM     31  C   UNL d   1      26.862 -10.550  -6.841  0.00  0.00     0.020 C 
ATOM     32  C   UNL d   1      26.698  -9.066  -6.527  0.00  0.00     0.003 C 
ATOM     33  C   UNL d   1      26.610  -8.855  -5.018  0.00  0.00     0.020 C 
ATOM     34  C   UNL d   1      25.533  -9.738  -4.370  0.00  0.00     0.141 C 
ENDBRANCH  12  29
TORSDOF 4
ENDMDL
MODEL 8
REMARK VINA RESULT:    -7.030      7.338     10.357
REMARK INTER + INTRA:          -9.714
REMARK INTER:                  -8.223
REMARK INTRA:                  -1.492
REMARK CONF_INDEPENDENT:        1.193
REMARK UNBOUND:                -1.492
REMARK  4 active torsions:
REMARK  status: ('A' for Active; 'I' for Inactive)
REMARK    1  A    between atoms: O_2  and  C_3 
REMARK    2  A    between atoms: C_6  and  C_7 
REMARK    3  A    between atoms: C_18  and  N_19 
REMARK    4  A    between atoms: C_30  and  O_31 
ROOT
ATOM      1  C   UNL d   1      31.419 -17.493  -3.054  0.00  0.00     0.100 A 
ATOM      2  C   UNL d   1      32.503 -18.174  -2.210  0.00  0.00     0.024 A 
ATOM      3  C   UNL d   1      32.222 -18.628  -0.970  0.00  0.00     0.021 A 
ATOM      4  C   UNL d   1      33.243 -19.382  -0.150  0.00  0.00     0.058 C 
ATOM      5  C   UNL d   1      34.302 -20.051  -1.022  0.00  0.00     0.014 C 
ATOM      6  C   UNL d   1      34.929 -19.022  -1.932  0.00  0.00     0.084 C 
ATOM      7  C   UNL d   1      33.877 -18.408  -2.800  0.00  0.00     0.158 C 
ATOM      8  O   UNL d   1      34.198 -18.081  -3.939  0.00  0.00    -0.293 OA
ATOM      9  N   UNL d   1      30.959 -18.441  -0.421  0.00  0.00    -0.344 N 
ATOM     10  C   UNL d   1      29.893 -17.826  -1.065  0.00  0.00     0.134 A 
ATOM     11  N   UNL d   1      28.704 -17.538  -0.429  0.00  0.00    -0.174 N 
ATOM     12  C   UNL d   1      27.651 -16.929  -1.056  0.00  0.00     0.707 C 
ATOM     13  N   UNL d   1      27.724 -16.558  -2.298  0.00  0.00    -0.023 NA
ATOM     14  C   UNL d   1      28.921 -16.695  -2.981  0.00  0.00     0.294 C 
ATOM     15  O   UNL d   1      29.087 -16.194  -4.096  0.00  0.00    -0.265 OA
ATOM     16  C   UNL d   1      30.055 -17.441  -2.353  0.00  0.00     0.070 A 
ATOM     17  H   UNL d   1      30.812 -18.751   0.533  0.00  0.00     0.167 HD
ATOM     18  H   UNL d   1      28.559 -17.897   0.501  0.00  0.00     0.186 HD
ENDROOT
BRANCH   1  19
ATOM     19  C   UNL d   1      31.511 -18.044  -4.482  0.00  0.00    -0.042 A 
ATOM     20  C   UNL d   1      30.998 -19.338  -4.702  0.00  0.00     0.011 A 
ATOM     21  C   UNL d   1      30.690 -19.779  -5.989  0.00  0.00     0.040 A 
ATOM     22  C   UNL d   1      30.894 -18.948  -7.095  0.00  0.00     0.101 A 
ATOM     23  C   UNL d   1      31.374 -17.645  -6.885  0.00  0.00     0.099 A 
ATOM     24  C   UNL d   1      31.700 -17.199  -5.595  0.00  0.00     0.047 A 
BRANCH  22  25
ATOM     25  O   UNL d   1      30.560 -19.539  -8.286  0.00  0.00    -0.353 OA
ATOM     26  C   UNL d   1      31.633 -19.817  -9.173  0.00  0.00     0.210 C 
ENDBRANCH  22  25
BRANCH  23  27
ATOM     27  O   UNL d   1      31.466 -16.755  -7.924  0.00  0.00    -0.358 OA
ATOM     28  H   UNL d   1      31.219 -17.183  -8.756  0.00  0.00     0.217 HD
ENDBRANCH  23  27
ENDBRANCH   1  19
BRANCH  12  29
ATOM     29  N   UNL d   1      26.499 -16.827  -0.285  0.00  0.00    -0.216 N 
ATOM     30  C   UNL d   1      26.028 -17.944   0.548  0.00  0.00     0.141 C 
ATOM     31  C   UNL d   1      24.720 -18.549   0.038  0.00  0.00     0.020 C 
ATOM     32  C   UNL d   1      23.638 -17.489  -0.146  0.00  0.00     0.003 C 
ATOM     33  C   UNL d   1      24.166 -16.340  -1.001  0.00  0.00     0.020 C 
ATOM     34  C   UNL d   1      25.488 -15.775  -0.461  0.00  0.00     0.141 C 
ENDBRANCH  12  29
TORSDOF 4
ENDMDL
MODEL 9
REMARK VINA RESULT:    -6.894      7.446     10.202
REMARK INTER + INTRA:          -9.569
REMARK INTER:                  -8.087
REMARK INTRA:                  -1.481
REMARK CONF_INDEPENDENT:        1.193
REMARK UNBOUND:                -1.481
REMARK  4 active torsions:
REMARK  status: ('A' for Active; 'I' for Inactive)
REMARK    1  A    between atoms: O_2  and  C_3 
REMARK    2  A    between atoms: C_6  and  C_7 
REMARK    3  A    between atoms: C_18  and  N_19 
REMARK    4  A    between atoms: C_30  and  O_31 
ROOT
ATOM      1  C   UNL d   1      27.405 -13.194  -6.145  0.00  0.00     0.100 A 
ATOM      2  C   UNL d   1      26.815 -11.809  -6.440  0.00  0.00     0.024 A 
ATOM      3  C   UNL d   1      25.924 -11.249  -5.595  0.00  0.00     0.021 A 
ATOM      4  C   UNL d   1      25.394  -9.851  -5.811  0.00  0.00     0.058 C 
ATOM      5  C   UNL d   1      26.345  -8.997  -6.646  0.00  0.00     0.014 C 
ATOM      6  C   UNL d   1      26.657  -9.710  -7.940  0.00  0.00     0.084 C 
ATOM      7  C   UNL d   1      27.293 -11.032  -7.648  0.00  0.00     0.158 C 
ATOM      8  O   UNL d   1      28.142 -11.441  -8.433  0.00  0.00    -0.293 OA
ATOM      9  N   UNL d   1      25.491 -11.940  -4.470  0.00  0.00    -0.344 N 
ATOM     10  C   UNL d   1      25.927 -13.204  -4.094  0.00  0.00     0.134 A 
ATOM     11  N   UNL d   1      25.364 -13.906  -3.048  0.00  0.00    -0.174 N 
ATOM     12  C   UNL d   1      25.786 -15.153  -2.674  0.00  0.00     0.707 C 
ATOM     13  N   UNL d   1      26.737 -15.765  -3.311  0.00  0.00    -0.023 NA
ATOM     14  C   UNL d   1      27.277 -15.190  -4.449  0.00  0.00     0.294 C 
ATOM     15  O   UNL d   1      28.048 -15.814  -5.182  0.00  0.00    -0.265 OA
ATOM     16  C   UNL d   1      26.903 -13.792  -4.824  0.00  0.00     0.070 A 
ATOM     17  H   UNL d   1      24.781 -11.501  -3.894  0.00  0.00     0.167 HD
ATOM     18  H   UNL d   1      24.696 -13.434  -2.459  0.00  0.00     0.186 HD
ENDROOT
BRANCH   1  19
ATOM     19  C   UNL d   1      28.912 -13.138  -6.423  0.00  0.00    -0.042 A 
ATOM     20  C   UNL d   1      29.692 -12.341  -5.560  0.00  0.00     0.011 A 
ATOM     21  C   UNL d   1      31.074 -12.510  -5.481  0.00  0.00     0.040 A 
ATOM     22  C   UNL d   1      31.721 -13.468  -6.267  0.00  0.00     0.101 A 
ATOM     23  C   UNL d   1      30.951 -14.289  -7.106  0.00  0.00     0.099 A 
ATOM     24  C   UNL d   1      29.562 -14.117  -7.202  0.00  0.00     0.047 A 
BRANCH  22  25
ATOM     25  O   UNL d   1      33.080 -13.490  -6.085  0.00  0.00    -0.353 OA
ATOM     26  C   UNL d   1      33.610 -12.528  -5.185  0.00  0.00     0.210 C 
ENDBRANCH  22  25
BRANCH  23  27
ATOM     27  O   UNL d   1      31.528 -15.326  -7.795  0.00  0.00    -0.358 OA
ATOM     28  H   UNL d   1      32.475 -15.372  -7.603  0.00  0.00     0.217 HD
ENDBRANCH  23  27
ENDBRANCH   1  19
BRANCH  12  29
ATOM     29  N   UNL d   1      25.177 -15.650  -1.528  0.00  0.00    -0.216 N 
ATOM     30  C   UNL d   1      25.964 -16.076  -0.361  0.00  0.00     0.141 C 
ATOM     31  C   UNL d   1      25.903 -17.587  -0.129  0.00  0.00     0.020 C 
ATOM     32  C   UNL d   1      24.466 -18.092  -0.053  0.00  0.00     0.003 C 
ATOM     33  C   UNL d   1      23.677 -17.618  -1.271  0.00  0.00     0.020 C 
ATOM     34  C   UNL d   1      23.779 -16.099  -1.473  0.00  0.00     0.141 C 
ENDBRANCH  12  29
TORSDOF 4
ENDMDL
