MODEL 1
REMARK VINA RESULT:    -8.397      0.000      0.000
REMARK INTER + INTRA:         -10.691
REMARK INTER:                  -9.888
REMARK INTRA:                  -0.803
REMARK CONF_INDEPENDENT:        1.492
REMARK UNBOUND:                -0.803
REMARK  5 active torsions:
REMARK  status: ('A' for Active; 'I' for Inactive)
REMARK    1  A    between atoms: C_13  and  C_14 
REMARK    2  A    between atoms: C_18  and  O_19 
REMARK    3  A    between atoms: O_19  and  C_20 
REMARK    4  A    between atoms: C_23  and  N_24 
REMARK    5  A    between atoms: C_28  and  N_29 
ROOT
ATOM      1  C   UNL d   1      27.779 -14.009   1.943  0.00  0.00    -0.014 A 
ATOM      2  C   UNL d   1      28.545 -13.045   1.283  0.00  0.00     0.011 A 
ATOM      3  C   UNL d   1      28.992 -13.279  -0.020  0.00  0.00     0.003 A 
ATOM      4  C   UNL d   1      28.734 -14.501  -0.651  0.00  0.00     0.037 A 
ATOM      5  C   UNL d   1      28.003 -15.484   0.015  0.00  0.00     0.076 A 
ATOM      6  C   UNL d   1      27.569 -15.242   1.316  0.00  0.00     0.048 A 
ENDROOT
BRANCH   1   7
ATOM      7  C   UNL d   1      27.058 -13.721   3.238  0.00  0.00     0.219 A 
ATOM      8  N   UNL d   1      27.573 -14.587   4.274  0.00  0.00    -0.332 N 
ATOM      9  C   UNL d   1      28.151 -14.203   5.438  0.00  0.00     0.256 A 
ATOM     10  H   UNL d   1      27.534 -15.588   4.130  0.00  0.00     0.165 HD
ATOM     11  C   UNL d   1      28.298 -12.780   5.633  0.00  0.00     0.073 A 
ATOM     12  O   UNL d   1      28.527 -15.022   6.277  0.00  0.00    -0.267 OA
ATOM     13  C   UNL d   1      27.821 -11.906   4.688  0.00  0.00     0.088 A 
ATOM     14  C   UNL d   1      28.891 -12.104   6.737  0.00  0.00    -0.023 A 
ATOM     15  S   UNL d   1      28.114 -10.277   5.118  0.00  0.00    -0.074 SA
ATOM     16  N   UNL d   1      27.200 -12.315   3.565  0.00  0.00    -0.358 N 
ATOM     17  C   UNL d   1      28.830 -10.730   6.603  0.00  0.00     0.018 A 
ATOM     18  C   UNL d   1      29.360  -9.756   7.615  0.00  0.00     0.281 C 
ATOM     19  N   UNL d   1      29.660 -10.474   8.941  0.00  0.00    -0.070 N 
ATOM     20  C   UNL d   1      30.407  -9.622   9.918  0.00  0.00     0.270 C 
ATOM     21  C   UNL d   1      30.391 -11.791   8.699  0.00  0.00     0.239 C 
ATOM     22  H   UNL d   1      28.746 -10.701   9.357  0.00  0.00     0.279 HD
ATOM     23  C   UNL d   1      29.486 -12.760   7.939  0.00  0.00     0.068 C 
ATOM     24  H   UNL d   1      26.933 -11.675   2.823  0.00  0.00     0.162 HD
ENDBRANCH   1   7
BRANCH   5  25
ATOM     25  O   UNL d   1      27.638 -16.604  -0.703  0.00  0.00    -0.308 OA
BRANCH  25  26
ATOM     26  C   UNL d   1      26.298 -16.901  -0.852  0.00  0.00     0.109 A 
ATOM     27  C   UNL d   1      25.871 -18.019  -0.108  0.00  0.00     0.042 A 
ATOM     28  C   UNL d   1      24.549 -18.477  -0.180  0.00  0.00     0.039 A 
ATOM     29  C   UNL d   1      23.614 -17.758  -0.926  0.00  0.00     0.105 A 
ATOM     30  C   UNL d   1      24.014 -16.646  -1.677  0.00  0.00     0.075 A 
ATOM     31  C   UNL d   1      25.366 -16.237  -1.677  0.00  0.00     0.139 A 
BRANCH  29  32
ATOM     32  N   UNL d   1      22.189 -18.117  -0.860  0.00  0.00    -0.116 N 
ATOM     33  O   UNL d   1      21.359 -17.199  -0.895  0.00  0.00    -0.532 OA
ATOM     34  O   UNL d   1      21.901 -19.324  -0.857  0.00  0.00    -0.532 OA
ENDBRANCH  29  32
BRANCH  31  35
ATOM     35  N   UNL d   1      25.696 -15.068  -2.519  0.00  0.00    -0.113 N 
ATOM     36  O   UNL d   1      25.530 -15.203  -3.739  0.00  0.00    -0.532 OA
ATOM     37  O   UNL d   1      26.108 -14.030  -1.996  0.00  0.00    -0.532 OA
ENDBRANCH  31  35
ENDBRANCH  25  26
ENDBRANCH   5  25
TORSDOF 5
ENDMDL
MODEL 2
REMARK VINA RESULT:    -8.283      1.917      2.405
REMARK INTER + INTRA:         -10.394
REMARK INTER:                  -9.774
REMARK INTRA:                  -0.620
REMARK CONF_INDEPENDENT:        1.492
REMARK UNBOUND:                -0.620
REMARK  5 active torsions:
REMARK  status: ('A' for Active; 'I' for Inactive)
REMARK    1  A    between atoms: C_13  and  C_14 
REMARK    2  A    between atoms: C_18  and  O_19 
REMARK    3  A    between atoms: O_19  and  C_20 
REMARK    4  A    between atoms: C_23  and  N_24 
REMARK    5  A    between atoms: C_28  and  N_29 
ROOT
ATOM      1  C   UNL d   1      28.867 -13.678   0.889  0.00  0.00    -0.014 A 
ATOM      2  C   UNL d   1      27.960 -12.665   0.573  0.00  0.00     0.011 A 
ATOM      3  C   UNL d   1      26.833 -12.953  -0.201  0.00  0.00     0.003 A 
ATOM      4  C   UNL d   1      26.635 -14.238  -0.718  0.00  0.00     0.037 A 
ATOM      5  C   UNL d   1      27.556 -15.246  -0.438  0.00  0.00     0.076 A 
ATOM      6  C   UNL d   1      28.680 -14.946   0.326  0.00  0.00     0.048 A 
ENDROOT
BRANCH   1   7
ATOM      7  C   UNL d   1      29.958 -13.496   1.918  0.00  0.00     0.219 A 
ATOM      8  N   UNL d   1      29.926 -12.139   2.413  0.00  0.00    -0.332 N 
ATOM      9  C   UNL d   1      29.749 -11.748   3.698  0.00  0.00     0.256 A 
ATOM     10  H   UNL d   1      30.018 -11.381   1.748  0.00  0.00     0.165 HD
ATOM     11  C   UNL d   1      29.529 -12.805   4.657  0.00  0.00     0.073 A 
ATOM     12  O   UNL d   1      29.774 -10.561   4.025  0.00  0.00    -0.267 OA
ATOM     13  C   UNL d   1      29.556 -14.115   4.249  0.00  0.00     0.088 A 
ATOM     14  C   UNL d   1      29.287 -12.683   6.054  0.00  0.00    -0.023 A 
ATOM     15  S   UNL d   1      29.260 -15.193   5.544  0.00  0.00    -0.074 SA
ATOM     16  N   UNL d   1      29.790 -14.477   2.974  0.00  0.00    -0.358 N 
ATOM     17  C   UNL d   1      29.153 -13.912   6.671  0.00  0.00     0.018 A 
ATOM     18  C   UNL d   1      28.906 -14.100   8.140  0.00  0.00     0.281 C 
ATOM     19  N   UNL d   1      29.160 -12.787   8.897  0.00  0.00    -0.070 N 
ATOM     20  C   UNL d   1      28.712 -12.831  10.323  0.00  0.00     0.270 C 
ATOM     21  C   UNL d   1      28.533 -11.603   8.167  0.00  0.00     0.239 C 
ATOM     22  H   UNL d   1      30.180 -12.646   8.893  0.00  0.00     0.279 HD
ATOM     23  C   UNL d   1      29.216 -11.400   6.815  0.00  0.00     0.068 C 
ATOM     24  H   UNL d   1      29.715 -15.439   2.654  0.00  0.00     0.162 HD
ENDBRANCH   1   7
BRANCH   5  25
ATOM     25  O   UNL d   1      27.237 -16.529  -0.835  0.00  0.00    -0.308 OA
BRANCH  25  26
ATOM     26  C   UNL d   1      25.912 -16.918  -0.853  0.00  0.00     0.109 A 
ATOM     27  C   UNL d   1      25.568 -17.830   0.164  0.00  0.00     0.042 A 
ATOM     28  C   UNL d   1      24.272 -18.355   0.260  0.00  0.00     0.039 A 
ATOM     29  C   UNL d   1      23.280 -17.893  -0.607  0.00  0.00     0.105 A 
ATOM     30  C   UNL d   1      23.598 -16.989  -1.627  0.00  0.00     0.075 A 
ATOM     31  C   UNL d   1      24.925 -16.530  -1.782  0.00  0.00     0.139 A 
BRANCH  29  32
ATOM     32  N   UNL d   1      21.879 -18.291  -0.399  0.00  0.00    -0.116 N 
ATOM     33  O   UNL d   1      20.996 -17.582  -0.897  0.00  0.00    -0.532 OA
ATOM     34  O   UNL d   1      21.669 -19.361   0.195  0.00  0.00    -0.532 OA
ENDBRANCH  29  32
BRANCH  31  35
ATOM     35  N   UNL d   1      25.167 -15.596  -2.902  0.00  0.00    -0.113 N 
ATOM     36  O   UNL d   1      24.643 -14.478  -2.810  0.00  0.00    -0.532 OA
ATOM     37  O   UNL d   1      25.861 -15.948  -3.858  0.00  0.00    -0.532 OA
ENDBRANCH  31  35
ENDBRANCH  25  26
ENDBRANCH   5  25
TORSDOF 5
ENDMDL
MODEL 3
REMARK VINA RESULT:    -8.021      3.621      8.587
REMARK INTER + INTRA:         -11.242
REMARK INTER:                  -9.512
REMARK INTRA:                  -1.730
REMARK CONF_INDEPENDENT:        1.492
REMARK UNBOUND:                -1.730
REMARK  5 active torsions:
REMARK  status: ('A' for Active; 'I' for Inactive)
REMARK    1  A    between atoms: C_13  and  C_14 
REMARK    2  A    between atoms: C_18  and  O_19 
REMARK    3  A    between atoms: O_19  and  C_20 
REMARK    4  A    between atoms: C_23  and  N_24 
REMARK    5  A    between atoms: C_28  and  N_29 
ROOT
ATOM      1  C   UNL d   1      29.646 -15.053   0.686  0.00  0.00    -0.014 A 
ATOM      2  C   UNL d   1      30.986 -15.120   1.074  0.00  0.00     0.011 A 
ATOM      3  C   UNL d   1      31.395 -14.530   2.273  0.00  0.00     0.003 A 
ATOM      4  C   UNL d   1      30.487 -13.814   3.060  0.00  0.00     0.037 A 
ATOM      5  C   UNL d   1      29.156 -13.710   2.660  0.00  0.00     0.076 A 
ATOM      6  C   UNL d   1      28.760 -14.295   1.460  0.00  0.00     0.048 A 
ENDROOT
BRANCH   1   7
ATOM      7  C   UNL d   1      29.092 -15.875  -0.454  0.00  0.00     0.219 A 
ATOM      8  N   UNL d   1      28.869 -17.228  -0.002  0.00  0.00    -0.332 N 
ATOM      9  C   UNL d   1      27.692 -17.900  -0.000  0.00  0.00     0.256 A 
ATOM     10  H   UNL d   1      29.651 -17.745   0.380  0.00  0.00     0.165 HD
ATOM     11  C   UNL d   1      26.540 -17.159  -0.461  0.00  0.00     0.073 A 
ATOM     12  O   UNL d   1      27.612 -19.071   0.374  0.00  0.00    -0.267 OA
ATOM     13  C   UNL d   1      26.690 -15.871  -0.910  0.00  0.00     0.088 A 
ATOM     14  C   UNL d   1      25.189 -17.600  -0.536  0.00  0.00    -0.023 A 
ATOM     15  S   UNL d   1      25.198 -15.186  -1.393  0.00  0.00    -0.074 SA
ATOM     16  N   UNL d   1      27.882 -15.248  -0.954  0.00  0.00    -0.358 N 
ATOM     17  C   UNL d   1      24.351 -16.633  -1.058  0.00  0.00     0.018 A 
ATOM     18  C   UNL d   1      22.876 -16.815  -1.270  0.00  0.00     0.281 C 
ATOM     19  N   UNL d   1      22.499 -18.300  -1.152  0.00  0.00    -0.070 N 
ATOM     20  C   UNL d   1      21.021 -18.533  -1.118  0.00  0.00     0.270 C 
ATOM     21  C   UNL d   1      23.178 -18.944   0.052  0.00  0.00     0.239 C 
ATOM     22  H   UNL d   1      22.869 -18.758  -1.996  0.00  0.00     0.279 HD
ATOM     23  C   UNL d   1      24.693 -18.953  -0.143  0.00  0.00     0.068 C 
ATOM     24  H   UNL d   1      27.979 -14.265  -1.195  0.00  0.00     0.162 HD
ENDBRANCH   1   7
BRANCH   5  25
ATOM     25  O   UNL d   1      28.267 -13.134   3.544  0.00  0.00    -0.308 OA
BRANCH  25  26
ATOM     26  C   UNL d   1      27.638 -11.956   3.194  0.00  0.00     0.109 A 
ATOM     27  C   UNL d   1      27.787 -10.922   4.140  0.00  0.00     0.042 A 
ATOM     28  C   UNL d   1      27.176  -9.675   3.955  0.00  0.00     0.039 A 
ATOM     29  C   UNL d   1      26.488  -9.418   2.768  0.00  0.00     0.105 A 
ATOM     30  C   UNL d   1      26.323 -10.430   1.814  0.00  0.00     0.075 A 
ATOM     31  C   UNL d   1      26.861 -11.716   2.042  0.00  0.00     0.139 A 
BRANCH  29  32
ATOM     32  N   UNL d   1      26.004  -8.060   2.478  0.00  0.00    -0.116 N 
ATOM     33  O   UNL d   1      26.466  -7.126   3.146  0.00  0.00    -0.532 OA
ATOM     34  O   UNL d   1      25.221  -7.921   1.525  0.00  0.00    -0.532 OA
ENDBRANCH  29  32
BRANCH  31  35
ATOM     35  N   UNL d   1      26.615 -12.723   0.989  0.00  0.00    -0.113 N 
ATOM     36  O   UNL d   1      27.160 -12.521  -0.105  0.00  0.00    -0.532 OA
ATOM     37  O   UNL d   1      25.902 -13.701   1.226  0.00  0.00    -0.532 OA
ENDBRANCH  31  35
ENDBRANCH  25  26
ENDBRANCH   5  25
TORSDOF 5
ENDMDL
MODEL 4
REMARK VINA RESULT:    -7.382      6.495      9.808
REMARK INTER + INTRA:         -10.545
REMARK INTER:                  -8.873
REMARK INTRA:                  -1.672
REMARK CONF_INDEPENDENT:        1.492
REMARK UNBOUND:                -1.672
REMARK  5 active torsions:
REMARK  status: ('A' for Active; 'I' for Inactive)
REMARK    1  A    between atoms: C_13  and  C_14 
REMARK    2  A    between atoms: C_18  and  O_19 
REMARK    3  A    between atoms: O_19  and  C_20 
REMARK    4  A    between atoms: C_23  and  N_24 
REMARK    5  A    between atoms: C_28  and  N_29 
ROOT
ATOM      1  C   UNL d   1      29.778 -16.837  -3.405  0.00  0.00    -0.014 A 
ATOM      2  C   UNL d   1      30.824 -17.480  -2.740  0.00  0.00     0.011 A 
ATOM      3  C   UNL d   1      30.789 -17.616  -1.350  0.00  0.00     0.003 A 
ATOM      4  C   UNL d   1      29.745 -17.056  -0.606  0.00  0.00     0.037 A 
ATOM      5  C   UNL d   1      28.716 -16.379  -1.260  0.00  0.00     0.076 A 
ATOM      6  C   UNL d   1      28.765 -16.243  -2.644  0.00  0.00     0.048 A 
ENDROOT
BRANCH   1   7
ATOM      7  C   UNL d   1      29.628 -16.877  -4.907  0.00  0.00     0.219 A 
ATOM      8  N   UNL d   1      28.597 -15.949  -5.309  0.00  0.00    -0.332 N 
ATOM      9  C   UNL d   1      28.736 -14.897  -6.152  0.00  0.00     0.256 A 
ATOM     10  H   UNL d   1      27.670 -16.058  -4.917  0.00  0.00     0.165 HD
ATOM     11  C   UNL d   1      30.068 -14.665  -6.660  0.00  0.00     0.073 A 
ATOM     12  O   UNL d   1      27.782 -14.182  -6.462  0.00  0.00    -0.267 OA
ATOM     13  C   UNL d   1      31.088 -15.518  -6.320  0.00  0.00     0.088 A 
ATOM     14  C   UNL d   1      30.505 -13.626  -7.529  0.00  0.00    -0.023 A 
ATOM     15  S   UNL d   1      32.575 -15.047  -7.024  0.00  0.00    -0.074 SA
ATOM     16  N   UNL d   1      30.908 -16.590  -5.526  0.00  0.00    -0.358 N 
ATOM     17  C   UNL d   1      31.848 -13.731  -7.837  0.00  0.00     0.018 A 
ATOM     18  C   UNL d   1      32.586 -12.786  -8.741  0.00  0.00     0.281 C 
ATOM     19  N   UNL d   1      31.594 -11.914  -9.527  0.00  0.00    -0.070 N 
ATOM     20  C   UNL d   1      32.252 -10.795 -10.270  0.00  0.00     0.270 C 
ATOM     21  C   UNL d   1      30.487 -11.388  -8.619  0.00  0.00     0.239 C 
ATOM     22  H   UNL d   1      31.154 -12.535 -10.221  0.00  0.00     0.279 HD
ATOM     23  C   UNL d   1      29.641 -12.548  -8.097  0.00  0.00     0.068 C 
ATOM     24  H   UNL d   1      31.680 -17.164  -5.198  0.00  0.00     0.162 HD
ENDBRANCH   1   7
BRANCH   5  25
ATOM     25  O   UNL d   1      27.631 -15.985  -0.503  0.00  0.00    -0.308 OA
BRANCH  25  26
ATOM     26  C   UNL d   1      26.388 -16.520  -0.780  0.00  0.00     0.109 A 
ATOM     27  C   UNL d   1      25.932 -17.441   0.184  0.00  0.00     0.042 A 
ATOM     28  C   UNL d   1      24.708 -18.105   0.032  0.00  0.00     0.039 A 
ATOM     29  C   UNL d   1      23.879 -17.776  -1.043  0.00  0.00     0.105 A 
ATOM     30  C   UNL d   1      24.311 -16.867  -2.015  0.00  0.00     0.075 A 
ATOM     31  C   UNL d   1      25.585 -16.266  -1.911  0.00  0.00     0.139 A 
BRANCH  29  32
ATOM     32  N   UNL d   1      22.516 -18.324  -1.113  0.00  0.00    -0.116 N 
ATOM     33  O   UNL d   1      21.615 -17.709  -0.528  0.00  0.00    -0.532 OA
ATOM     34  O   UNL d   1      22.335 -19.326  -1.823  0.00  0.00    -0.532 OA
ENDBRANCH  29  32
BRANCH  31  35
ATOM     35  N   UNL d   1      25.961 -15.338  -2.998  0.00  0.00    -0.113 N 
ATOM     36  O   UNL d   1      26.547 -14.301  -2.658  0.00  0.00    -0.532 OA
ATOM     37  O   UNL d   1      25.691 -15.617  -4.168  0.00  0.00    -0.532 OA
ENDBRANCH  31  35
ENDBRANCH  25  26
ENDBRANCH   5  25
TORSDOF 5
ENDMDL
MODEL 5
REMARK VINA RESULT:    -7.363      5.593      9.290
REMARK INTER + INTRA:         -10.361
REMARK INTER:                  -8.854
REMARK INTRA:                  -1.507
REMARK CONF_INDEPENDENT:        1.492
REMARK UNBOUND:                -1.507
REMARK  5 active torsions:
REMARK  status: ('A' for Active; 'I' for Inactive)
REMARK    1  A    between atoms: C_13  and  C_14 
REMARK    2  A    between atoms: C_18  and  O_19 
REMARK    3  A    between atoms: O_19  and  C_20 
REMARK    4  A    between atoms: C_23  and  N_24 
REMARK    5  A    between atoms: C_28  and  N_29 
ROOT
ATOM      1  C   UNL d   1      26.090 -11.094  -5.228  0.00  0.00    -0.014 A 
ATOM      2  C   UNL d   1      25.456 -10.305  -6.189  0.00  0.00     0.011 A 
ATOM      3  C   UNL d   1      25.524  -8.912  -6.105  0.00  0.00     0.003 A 
ATOM      4  C   UNL d   1      26.169  -8.295  -5.027  0.00  0.00     0.037 A 
ATOM      5  C   UNL d   1      26.773  -9.076  -4.043  0.00  0.00     0.076 A 
ATOM      6  C   UNL d   1      26.692 -10.463  -4.133  0.00  0.00     0.048 A 
ENDROOT
BRANCH   1   7
ATOM      7  C   UNL d   1      26.270 -12.584  -5.395  0.00  0.00     0.219 A 
ATOM      8  N   UNL d   1      27.611 -12.951  -5.001  0.00  0.00    -0.332 N 
ATOM      9  C   UNL d   1      27.960 -13.824  -4.025  0.00  0.00     0.256 A 
ATOM     10  H   UNL d   1      28.390 -12.505  -5.468  0.00  0.00     0.165 HD
ATOM     11  C   UNL d   1      26.869 -14.412  -3.282  0.00  0.00     0.073 A 
ATOM     12  O   UNL d   1      29.137 -14.098  -3.788  0.00  0.00    -0.267 OA
ATOM     13  C   UNL d   1      25.572 -14.109  -3.615  0.00  0.00     0.088 A 
ATOM     14  C   UNL d   1      26.944 -15.328  -2.195  0.00  0.00    -0.023 A 
ATOM     15  S   UNL d   1      24.450 -14.905  -2.599  0.00  0.00    -0.074 SA
ATOM     16  N   UNL d   1      25.254 -13.280  -4.627  0.00  0.00    -0.358 N 
ATOM     17  C   UNL d   1      25.694 -15.707  -1.744  0.00  0.00     0.018 A 
ATOM     18  C   UNL d   1      25.457 -16.673  -0.619  0.00  0.00     0.281 C 
ATOM     19  N   UNL d   1      26.753 -17.423  -0.278  0.00  0.00    -0.070 N 
ATOM     20  C   UNL d   1      26.656 -18.229   0.980  0.00  0.00     0.270 C 
ATOM     21  C   UNL d   1      27.941 -16.468  -0.220  0.00  0.00     0.239 C 
ATOM     22  H   UNL d   1      26.921 -18.077  -1.056  0.00  0.00     0.279 HD
ATOM     23  C   UNL d   1      28.201 -15.872  -1.603  0.00  0.00     0.068 C 
ATOM     24  H   UNL d   1      24.300 -12.982  -4.812  0.00  0.00     0.162 HD
ENDBRANCH   1   7
BRANCH   5  25
ATOM     25  O   UNL d   1      27.531  -8.428  -3.090  0.00  0.00    -0.308 OA
BRANCH  25  26
ATOM     26  C   UNL d   1      27.200  -8.569  -1.757  0.00  0.00     0.109 A 
ATOM     27  C   UNL d   1      26.573  -7.438  -1.197  0.00  0.00     0.042 A 
ATOM     28  C   UNL d   1      26.211  -7.404   0.155  0.00  0.00     0.039 A 
ATOM     29  C   UNL d   1      26.385  -8.545   0.941  0.00  0.00     0.105 A 
ATOM     30  C   UNL d   1      27.009  -9.679   0.410  0.00  0.00     0.075 A 
ATOM     31  C   UNL d   1      27.458  -9.683  -0.930  0.00  0.00     0.139 A 
BRANCH  29  32
ATOM     32  N   UNL d   1      25.840  -8.587   2.306  0.00  0.00    -0.116 N 
ATOM     33  O   UNL d   1      24.780  -9.200   2.487  0.00  0.00    -0.532 OA
ATOM     34  O   UNL d   1      26.517  -8.074   3.211  0.00  0.00    -0.532 OA
ENDBRANCH  29  32
BRANCH  31  35
ATOM     35  N   UNL d   1      28.126 -10.917  -1.393  0.00  0.00    -0.113 N 
ATOM     36  O   UNL d   1      27.458 -11.959  -1.336  0.00  0.00    -0.532 OA
ATOM     37  O   UNL d   1      29.285 -10.872  -1.809  0.00  0.00    -0.532 OA
ENDBRANCH  31  35
ENDBRANCH  25  26
ENDBRANCH   5  25
TORSDOF 5
ENDMDL
MODEL 6
REMARK VINA RESULT:    -7.301      6.275     10.122
REMARK INTER + INTRA:         -10.577
REMARK INTER:                  -8.793
REMARK INTRA:                  -1.784
REMARK CONF_INDEPENDENT:        1.492
REMARK UNBOUND:                -1.784
REMARK  5 active torsions:
REMARK  status: ('A' for Active; 'I' for Inactive)
REMARK    1  A    between atoms: C_13  and  C_14 
REMARK    2  A    between atoms: C_18  and  O_19 
REMARK    3  A    between atoms: O_19  and  C_20 
REMARK    4  A    between atoms: C_23  and  N_24 
REMARK    5  A    between atoms: C_28  and  N_29 
ROOT
ATOM      1  C   UNL d   1      25.505  -9.327  -4.925  0.00  0.00    -0.014 A 
ATOM      2  C   UNL d   1      24.592  -8.983  -5.924  0.00  0.00     0.011 A 
ATOM      3  C   UNL d   1      23.990  -7.722  -5.916  0.00  0.00     0.003 A 
ATOM      4  C   UNL d   1      24.243  -6.820  -4.876  0.00  0.00     0.037 A 
ATOM      5  C   UNL d   1      25.125  -7.170  -3.855  0.00  0.00     0.076 A 
ATOM      6  C   UNL d   1      25.713  -8.432  -3.869  0.00  0.00     0.048 A 
ENDROOT
BRANCH   1   7
ATOM      7  C   UNL d   1      26.373 -10.560  -5.013  0.00  0.00     0.219 A 
ATOM      8  N   UNL d   1      27.269 -10.594  -3.881  0.00  0.00    -0.332 N 
ATOM      9  C   UNL d   1      27.359 -11.572  -2.947  0.00  0.00     0.256 A 
ATOM     10  H   UNL d   1      27.888  -9.808  -3.731  0.00  0.00     0.165 HD
ATOM     11  C   UNL d   1      26.429 -12.668  -3.086  0.00  0.00     0.073 A 
ATOM     12  O   UNL d   1      28.186 -11.526  -2.035  0.00  0.00    -0.267 OA
ATOM     13  C   UNL d   1      25.558 -12.695  -4.146  0.00  0.00     0.088 A 
ATOM     14  C   UNL d   1      26.281 -13.803  -2.241  0.00  0.00    -0.023 A 
ATOM     15  S   UNL d   1      24.544 -14.073  -4.105  0.00  0.00    -0.074 SA
ATOM     16  N   UNL d   1      25.529 -11.737  -5.092  0.00  0.00    -0.358 N 
ATOM     17  C   UNL d   1      25.307 -14.672  -2.697  0.00  0.00     0.018 A 
ATOM     18  C   UNL d   1      24.938 -15.961  -2.021  0.00  0.00     0.281 C 
ATOM     19  N   UNL d   1      25.999 -16.338  -0.975  0.00  0.00    -0.070 N 
ATOM     20  C   UNL d   1      25.586 -17.480  -0.101  0.00  0.00     0.270 C 
ATOM     21  C   UNL d   1      26.397 -15.128  -0.136  0.00  0.00     0.239 C 
ATOM     22  H   UNL d   1      26.831 -16.634  -1.504  0.00  0.00     0.279 HD
ATOM     23  C   UNL d   1      27.086 -14.085  -1.015  0.00  0.00     0.068 C 
ATOM     24  H   UNL d   1      24.822 -11.708  -5.821  0.00  0.00     0.162 HD
ENDBRANCH   1   7
BRANCH   5  25
ATOM     25  O   UNL d   1      25.466  -6.193  -2.943  0.00  0.00    -0.308 OA
BRANCH  25  26
ATOM     26  C   UNL d   1      25.785  -6.560  -1.651  0.00  0.00     0.109 A 
ATOM     27  C   UNL d   1      24.872  -6.101  -0.681  0.00  0.00     0.042 A 
ATOM     28  C   UNL d   1      25.073  -6.353   0.683  0.00  0.00     0.039 A 
ATOM     29  C   UNL d   1      26.144  -7.155   1.080  0.00  0.00     0.105 A 
ATOM     30  C   UNL d   1      27.067  -7.620   0.137  0.00  0.00     0.075 A 
ATOM     31  C   UNL d   1      26.916  -7.290  -1.228  0.00  0.00     0.139 A 
BRANCH  29  32
ATOM     32  N   UNL d   1      26.260  -7.583   2.483  0.00  0.00    -0.116 N 
ATOM     33  O   UNL d   1      26.658  -6.752   3.310  0.00  0.00    -0.532 OA
ATOM     34  O   UNL d   1      25.873  -8.728   2.768  0.00  0.00    -0.532 OA
ENDBRANCH  29  32
BRANCH  31  35
ATOM     35  N   UNL d   1      27.953  -7.807  -2.145  0.00  0.00    -0.113 N 
ATOM     36  O   UNL d   1      28.454  -8.900  -1.849  0.00  0.00    -0.532 OA
ATOM     37  O   UNL d   1      28.273  -7.158  -3.143  0.00  0.00    -0.532 OA
ENDBRANCH  31  35
ENDBRANCH  25  26
ENDBRANCH   5  25
TORSDOF 5
ENDMDL
MODEL 7
REMARK VINA RESULT:    -7.167      6.099      9.060
REMARK INTER + INTRA:         -10.504
REMARK INTER:                  -8.658
REMARK INTRA:                  -1.845
REMARK CONF_INDEPENDENT:        1.492
REMARK UNBOUND:                -1.845
REMARK  5 active torsions:
REMARK  status: ('A' for Active; 'I' for Inactive)
REMARK    1  A    between atoms: C_13  and  C_14 
REMARK    2  A    between atoms: C_18  and  O_19 
REMARK    3  A    between atoms: O_19  and  C_20 
REMARK    4  A    between atoms: C_23  and  N_24 
REMARK    5  A    between atoms: C_28  and  N_29 
ROOT
ATOM      1  C   UNL d   1      26.936 -11.570  -5.532  0.00  0.00    -0.014 A 
ATOM      2  C   UNL d   1      26.553 -10.597  -6.457  0.00  0.00     0.011 A 
ATOM      3  C   UNL d   1      26.941 -10.714  -7.795  0.00  0.00     0.003 A 
ATOM      4  C   UNL d   1      27.767 -11.766  -8.206  0.00  0.00     0.037 A 
ATOM      5  C   UNL d   1      28.184 -12.722  -7.281  0.00  0.00     0.076 A 
ATOM      6  C   UNL d   1      27.798 -12.591  -5.950  0.00  0.00     0.048 A 
ENDROOT
BRANCH   1   7
ATOM      7  C   UNL d   1      26.347 -11.642  -4.143  0.00  0.00     0.219 A 
ATOM      8  N   UNL d   1      25.159 -12.463  -4.169  0.00  0.00    -0.332 N 
ATOM      9  C   UNL d   1      24.939 -13.594  -3.455  0.00  0.00     0.256 A 
ATOM     10  H   UNL d   1      24.407 -12.204  -4.794  0.00  0.00     0.165 HD
ATOM     11  C   UNL d   1      26.029 -14.036  -2.617  0.00  0.00     0.073 A 
ATOM     12  O   UNL d   1      23.873 -14.206  -3.520  0.00  0.00    -0.267 OA
ATOM     13  C   UNL d   1      27.181 -13.293  -2.544  0.00  0.00     0.088 A 
ATOM     14  C   UNL d   1      26.085 -15.193  -1.791  0.00  0.00    -0.023 A 
ATOM     15  S   UNL d   1      28.337 -14.007  -1.505  0.00  0.00    -0.074 SA
ATOM     16  N   UNL d   1      27.350 -12.142  -3.222  0.00  0.00    -0.358 N 
ATOM     17  C   UNL d   1      27.278 -15.286  -1.100  0.00  0.00     0.018 A 
ATOM     18  C   UNL d   1      27.618 -16.392  -0.142  0.00  0.00     0.281 C 
ATOM     19  N   UNL d   1      26.359 -17.196   0.215  0.00  0.00    -0.070 N 
ATOM     20  C   UNL d   1      26.654 -18.450   0.976  0.00  0.00     0.270 C 
ATOM     21  C   UNL d   1      25.529 -17.497  -1.029  0.00  0.00     0.239 C 
ATOM     22  H   UNL d   1      25.792 -16.587   0.823  0.00  0.00     0.279 HD
ATOM     23  C   UNL d   1      24.993 -16.198  -1.629  0.00  0.00     0.068 C 
ATOM     24  H   UNL d   1      28.236 -11.643  -3.243  0.00  0.00     0.162 HD
ENDBRANCH   1   7
BRANCH   5  25
ATOM     25  O   UNL d   1      28.861 -13.823  -7.762  0.00  0.00    -0.308 OA
BRANCH  25  26
ATOM     26  C   UNL d   1      29.714 -14.510  -6.920  0.00  0.00     0.109 A 
ATOM     27  C   UNL d   1      31.075 -14.396  -7.265  0.00  0.00     0.042 A 
ATOM     28  C   UNL d   1      32.067 -15.065  -6.536  0.00  0.00     0.039 A 
ATOM     29  C   UNL d   1      31.711 -15.780  -5.391  0.00  0.00     0.105 A 
ATOM     30  C   UNL d   1      30.365 -15.911  -5.030  0.00  0.00     0.075 A 
ATOM     31  C   UNL d   1      29.356 -15.312  -5.817  0.00  0.00     0.139 A 
BRANCH  29  32
ATOM     32  N   UNL d   1      32.756 -16.329  -4.513  0.00  0.00    -0.116 N 
ATOM     33  O   UNL d   1      32.923 -17.556  -4.510  0.00  0.00    -0.532 OA
ATOM     34  O   UNL d   1      33.463 -15.523  -3.888  0.00  0.00    -0.532 OA
ENDBRANCH  29  32
BRANCH  31  35
ATOM     35  N   UNL d   1      27.964 -15.526  -5.369  0.00  0.00    -0.113 N 
ATOM     36  O   UNL d   1      27.814 -15.914  -4.203  0.00  0.00    -0.532 OA
ATOM     37  O   UNL d   1      27.028 -15.316  -6.145  0.00  0.00    -0.532 OA
ENDBRANCH  31  35
ENDBRANCH  25  26
ENDBRANCH   5  25
TORSDOF 5
ENDMDL
MODEL 8
REMARK VINA RESULT:    -7.087      6.933     10.264
REMARK INTER + INTRA:         -10.393
REMARK INTER:                  -8.579
REMARK INTRA:                  -1.814
REMARK CONF_INDEPENDENT:        1.492
REMARK UNBOUND:                -1.814
REMARK  5 active torsions:
REMARK  status: ('A' for Active; 'I' for Inactive)
REMARK    1  A    between atoms: C_13  and  C_14 
REMARK    2  A    between atoms: C_18  and  O_19 
REMARK    3  A    between atoms: O_19  and  C_20 
REMARK    4  A    between atoms: C_23  and  N_24 
REMARK    5  A    between atoms: C_28  and  N_29 
ROOT
ATOM      1  C   UNL d   1      28.241 -16.489  -1.438  0.00  0.00    -0.014 A 
ATOM      2  C   UNL d   1      27.637 -17.331  -0.502  0.00  0.00     0.011 A 
ATOM      3  C   UNL d   1      26.247 -17.329  -0.355  0.00  0.00     0.003 A 
ATOM      4  C   UNL d   1      25.455 -16.442  -1.093  0.00  0.00     0.037 A 
ATOM      5  C   UNL d   1      26.054 -15.572  -2.003  0.00  0.00     0.076 A 
ATOM      6  C   UNL d   1      27.440 -15.577  -2.135  0.00  0.00     0.048 A 
ENDROOT
BRANCH   1   7
ATOM      7  C   UNL d   1      29.695 -16.620  -1.825  0.00  0.00     0.219 A 
ATOM      8  N   UNL d   1      30.229 -17.841  -1.269  0.00  0.00    -0.332 N 
ATOM      9  C   UNL d   1      30.780 -18.872  -1.954  0.00  0.00     0.256 A 
ATOM     10  H   UNL d   1      30.177 -17.979  -0.267  0.00  0.00     0.165 HD
ATOM     11  C   UNL d   1      30.791 -18.742  -3.393  0.00  0.00     0.073 A 
ATOM     12  O   UNL d   1      31.242 -19.860  -1.382  0.00  0.00    -0.267 OA
ATOM     13  C   UNL d   1      30.305 -17.601  -3.980  0.00  0.00     0.088 A 
ATOM     14  C   UNL d   1      31.274 -19.675  -4.353  0.00  0.00    -0.023 A 
ATOM     15  S   UNL d   1      30.405 -17.668  -5.686  0.00  0.00    -0.074 SA
ATOM     16  N   UNL d   1      29.814 -16.567  -3.270  0.00  0.00    -0.358 N 
ATOM     17  C   UNL d   1      31.155 -19.204  -5.646  0.00  0.00     0.018 A 
ATOM     18  C   UNL d   1      31.594 -19.961  -6.867  0.00  0.00     0.281 C 
ATOM     19  N   UNL d   1      32.483 -21.148  -6.468  0.00  0.00    -0.070 N 
ATOM     20  C   UNL d   1      32.766 -22.082  -7.602  0.00  0.00     0.270 C 
ATOM     21  C   UNL d   1      31.893 -21.901  -5.280  0.00  0.00     0.239 C 
ATOM     22  H   UNL d   1      33.380 -20.746  -6.163  0.00  0.00     0.279 HD
ATOM     23  C   UNL d   1      31.883 -21.003  -4.043  0.00  0.00     0.068 C 
ATOM     24  H   UNL d   1      29.368 -15.765  -3.706  0.00  0.00     0.162 HD
ENDBRANCH   1   7
BRANCH   5  25
ATOM     25  O   UNL d   1      25.224 -14.833  -2.819  0.00  0.00    -0.308 OA
BRANCH  25  26
ATOM     26  C   UNL d   1      25.762 -13.815  -3.582  0.00  0.00     0.109 A 
ATOM     27  C   UNL d   1      25.455 -12.522  -3.113  0.00  0.00     0.042 A 
ATOM     28  C   UNL d   1      25.891 -11.380  -3.797  0.00  0.00     0.039 A 
ATOM     29  C   UNL d   1      26.725 -11.522  -4.908  0.00  0.00     0.105 A 
ATOM     30  C   UNL d   1      27.041 -12.796  -5.395  0.00  0.00     0.075 A 
ATOM     31  C   UNL d   1      26.526 -13.948  -4.760  0.00  0.00     0.139 A 
BRANCH  29  32
ATOM     32  N   UNL d   1      27.341 -10.336  -5.521  0.00  0.00    -0.116 N 
ATOM     33  O   UNL d   1      27.071 -10.089  -6.704  0.00  0.00    -0.532 OA
ATOM     34  O   UNL d   1      28.031  -9.605  -4.792  0.00  0.00    -0.532 OA
ENDBRANCH  29  32
BRANCH  31  35
ATOM     35  N   UNL d   1      26.896 -15.246  -5.361  0.00  0.00    -0.113 N 
ATOM     36  O   UNL d   1      25.962 -15.950  -5.770  0.00  0.00    -0.532 OA
ATOM     37  O   UNL d   1      28.082 -15.575  -5.436  0.00  0.00    -0.532 OA
ENDBRANCH  31  35
ENDBRANCH  25  26
ENDBRANCH   5  25
TORSDOF 5
ENDMDL
MODEL 9
REMARK VINA RESULT:    -6.972      4.442      7.547
REMARK INTER + INTRA:         -10.453
REMARK INTER:                  -8.464
REMARK INTRA:                  -1.989
REMARK CONF_INDEPENDENT:        1.492
REMARK UNBOUND:                -1.989
REMARK  5 active torsions:
REMARK  status: ('A' for Active; 'I' for Inactive)
REMARK    1  A    between atoms: C_13  and  C_14 
REMARK    2  A    between atoms: C_18  and  O_19 
REMARK    3  A    between atoms: O_19  and  C_20 
REMARK    4  A    between atoms: C_23  and  N_24 
REMARK    5  A    between atoms: C_28  and  N_29 
ROOT
ATOM      1  C   UNL d   1      26.387 -12.643  -3.762  0.00  0.00    -0.014 A 
ATOM      2  C   UNL d   1      26.323 -12.646  -5.157  0.00  0.00     0.011 A 
ATOM      3  C   UNL d   1      26.415 -11.444  -5.863  0.00  0.00     0.003 A 
ATOM      4  C   UNL d   1      26.508 -10.225  -5.182  0.00  0.00     0.037 A 
ATOM      5  C   UNL d   1      26.535 -10.210  -3.788  0.00  0.00     0.076 A 
ATOM      6  C   UNL d   1      26.434 -11.413  -3.095  0.00  0.00     0.048 A 
ENDROOT
BRANCH   1   7
ATOM      7  C   UNL d   1      26.548 -13.911  -2.957  0.00  0.00     0.219 A 
ATOM      8  N   UNL d   1      27.940 -14.296  -2.945  0.00  0.00    -0.332 N 
ATOM      9  C   UNL d   1      28.729 -14.451  -1.854  0.00  0.00     0.256 A 
ATOM     10  H   UNL d   1      28.406 -14.448  -3.830  0.00  0.00     0.165 HD
ATOM     11  C   UNL d   1      28.115 -14.158  -0.581  0.00  0.00     0.073 A 
ATOM     12  O   UNL d   1      29.901 -14.820  -1.947  0.00  0.00    -0.267 OA
ATOM     13  C   UNL d   1      26.792 -13.794  -0.527  0.00  0.00     0.088 A 
ATOM     14  C   UNL d   1      28.710 -14.206   0.711  0.00  0.00    -0.023 A 
ATOM     15  S   UNL d   1      26.280 -13.483   1.076  0.00  0.00    -0.074 SA
ATOM     16  N   UNL d   1      26.016 -13.703  -1.623  0.00  0.00    -0.358 N 
ATOM     17  C   UNL d   1      27.813 -13.892   1.714  0.00  0.00     0.018 A 
ATOM     18  C   UNL d   1      28.150 -13.873   3.177  0.00  0.00     0.281 C 
ATOM     19  N   UNL d   1      29.498 -14.567   3.423  0.00  0.00    -0.070 N 
ATOM     20  C   UNL d   1      30.011 -14.383   4.817  0.00  0.00     0.270 C 
ATOM     21  C   UNL d   1      30.538 -14.124   2.399  0.00  0.00     0.239 C 
ATOM     22  H   UNL d   1      29.334 -15.573   3.280  0.00  0.00     0.279 HD
ATOM     23  C   UNL d   1      30.126 -14.583   1.001  0.00  0.00     0.068 C 
ATOM     24  H   UNL d   1      25.066 -13.342  -1.593  0.00  0.00     0.162 HD
ENDBRANCH   1   7
BRANCH   5  25
ATOM     25  O   UNL d   1      26.787  -9.004  -3.168  0.00  0.00    -0.308 OA
BRANCH  25  26
ATOM     26  C   UNL d   1      26.710  -8.927  -1.791  0.00  0.00     0.109 A 
ATOM     27  C   UNL d   1      25.690  -8.076  -1.321  0.00  0.00     0.042 A 
ATOM     28  C   UNL d   1      25.504  -7.855   0.050  0.00  0.00     0.039 A 
ATOM     29  C   UNL d   1      26.279  -8.564   0.970  0.00  0.00     0.105 A 
ATOM     30  C   UNL d   1      27.301  -9.412   0.527  0.00  0.00     0.075 A 
ATOM     31  C   UNL d   1      27.549  -9.565  -0.855  0.00  0.00     0.139 A 
BRANCH  29  32
ATOM     32  N   UNL d   1      25.970  -8.485   2.406  0.00  0.00    -0.116 N 
ATOM     33  O   UNL d   1      25.106  -9.249   2.855  0.00  0.00    -0.532 OA
ATOM     34  O   UNL d   1      26.653  -7.713   3.098  0.00  0.00    -0.532 OA
ENDBRANCH  29  32
BRANCH  31  35
ATOM     35  N   UNL d   1      28.663 -10.463  -1.224  0.00  0.00    -0.113 N 
ATOM     36  O   UNL d   1      29.074 -11.224  -0.337  0.00  0.00    -0.532 OA
ATOM     37  O   UNL d   1      29.130 -10.430  -2.364  0.00  0.00    -0.532 OA
ENDBRANCH  31  35
ENDBRANCH  25  26
ENDBRANCH   5  25
TORSDOF 5
ENDMDL
