MODEL 1
REMARK VINA RESULT:    -8.555      0.000      0.000
REMARK INTER + INTRA:         -11.239
REMARK INTER:                 -10.046
REMARK INTRA:                  -1.193
REMARK CONF_INDEPENDENT:        1.492
REMARK UNBOUND:                -1.193
REMARK  5 active torsions:
REMARK  status: ('A' for Active; 'I' for Inactive)
REMARK    1  A    between atoms: C_2  and  C_3 
REMARK    2  A    between atoms: C_3  and  N_4 
REMARK       I    between atoms: N_4  and  C_5 
REMARK       I    between atoms: C_5  and  N_7 
REMARK    3  A    between atoms: N_7  and  N_8 
REMARK       I    between atoms: N_8  and  C_9 
REMARK    4  A    between atoms: C_9  and  C_11 
REMARK    5  A    between atoms: C_13  and  N_14 
ROOT
ATOM      1  N   UNL d   1      23.493 -17.978  -0.754  0.00  0.00    -0.262 N 
ATOM      2  C   UNL d   1      24.844 -17.836  -0.440  0.00  0.00     0.271 C 
ATOM      3  O   UNL d   1      25.423 -18.565   0.370  0.00  0.00    -0.266 OA
ATOM      4  H   UNL d   1      22.997 -17.350  -1.388  0.00  0.00     0.190 HD
ENDROOT
BRANCH   2   5
ATOM      5  C   UNL d   1      25.637 -16.758  -1.145  0.00  0.00     0.057 A 
ATOM      6  C   UNL d   1      25.276 -16.380  -2.466  0.00  0.00     0.054 A 
ATOM      7  C   UNL d   1      26.019 -15.398  -3.167  0.00  0.00     0.103 A 
ATOM      8  C   UNL d   1      27.131 -14.794  -2.571  0.00  0.00     0.038 A 
ATOM      9  C   UNL d   1      27.505 -15.186  -1.285  0.00  0.00     0.027 A 
ATOM     10  C   UNL d   1      26.776 -16.162  -0.579  0.00  0.00     0.050 A 
ATOM     11 CL   UNL d   1      27.405 -16.610   0.965  0.00  0.00    -0.083 Cl
BRANCH   7  12
ATOM     12  N   UNL d   1      25.644 -14.987  -4.534  0.00  0.00    -0.116 N 
ATOM     13  O   UNL d   1      26.208 -15.550  -5.481  0.00  0.00    -0.532 OA
ATOM     14  O   UNL d   1      24.780 -14.103  -4.656  0.00  0.00    -0.532 OA
ENDBRANCH   7  12
ENDBRANCH   2   5
BRANCH   1  15
ATOM     15  N   UNL d   1      22.656 -18.928  -0.071  0.00  0.00    -0.249 N 
ATOM     16  C   UNL d   1      21.298 -18.963  -0.367  0.00  0.00     0.334 C 
ATOM     17  N   UNL d   1      20.569 -19.920   0.318  0.00  0.00    -0.342 N 
ATOM     18  O   UNL d   1      20.789 -18.200  -1.188  0.00  0.00    -0.246 OA
ATOM     19  H   UNL d   1      21.033 -20.525   0.980  0.00  0.00     0.164 HD
ATOM     20  H   UNL d   1      23.107 -19.522   0.616  0.00  0.00     0.192 HD
BRANCH  17  21
ATOM     21  C   UNL d   1      19.128 -20.092   0.095  0.00  0.00     0.124 C 
BRANCH  21  22
ATOM     22  C   UNL d   1      18.366 -20.692   1.287  0.00  0.00     0.015 C 
ATOM     23  C   UNL d   1      19.087 -20.450   2.613  0.00  0.00     0.006 C 
ENDBRANCH  21  22
ENDBRANCH  17  21
ENDBRANCH   1  15
TORSDOF 5
ENDMDL
MODEL 2
REMARK VINA RESULT:    -6.950      1.224      1.417
REMARK INTER + INTRA:          -9.675
REMARK INTER:                  -8.441
REMARK INTRA:                  -1.234
REMARK CONF_INDEPENDENT:        1.492
REMARK UNBOUND:                -1.234
REMARK  5 active torsions:
REMARK  status: ('A' for Active; 'I' for Inactive)
REMARK    1  A    between atoms: C_2  and  C_3 
REMARK    2  A    between atoms: C_3  and  N_4 
REMARK       I    between atoms: N_4  and  C_5 
REMARK       I    between atoms: C_5  and  N_7 
REMARK    3  A    between atoms: N_7  and  N_8 
REMARK       I    between atoms: N_8  and  C_9 
REMARK    4  A    between atoms: C_9  and  C_11 
REMARK    5  A    between atoms: C_13  and  N_14 
ROOT
ATOM      1  N   UNL d   1      23.802 -17.132  -1.002  0.00  0.00    -0.262 N 
ATOM      2  C   UNL d   1      25.186 -16.978  -0.958  0.00  0.00     0.271 C 
ATOM      3  O   UNL d   1      25.926 -17.743  -0.335  0.00  0.00    -0.266 OA
ATOM      4  H   UNL d   1      23.180 -16.478  -1.478  0.00  0.00     0.190 HD
ENDROOT
BRANCH   2   5
ATOM      5  C   UNL d   1      25.807 -15.836  -1.733  0.00  0.00     0.057 A 
ATOM      6  C   UNL d   1      25.969 -15.956  -3.140  0.00  0.00     0.054 A 
ATOM      7  C   UNL d   1      26.576 -14.919  -3.889  0.00  0.00     0.103 A 
ATOM      8  C   UNL d   1      27.041 -13.764  -3.251  0.00  0.00     0.038 A 
ATOM      9  C   UNL d   1      26.912 -13.658  -1.866  0.00  0.00     0.027 A 
ATOM     10  C   UNL d   1      26.310 -14.682  -1.110  0.00  0.00     0.050 A 
ATOM     11 CL   UNL d   1      26.297 -14.454   0.601  0.00  0.00    -0.083 Cl
BRANCH   7  12
ATOM     12  N   UNL d   1      26.736 -15.026  -5.353  0.00  0.00    -0.116 N 
ATOM     13  O   UNL d   1      27.591 -14.313  -5.894  0.00  0.00    -0.532 OA
ATOM     14  O   UNL d   1      26.006 -15.829  -5.956  0.00  0.00    -0.532 OA
ENDBRANCH   7  12
ENDBRANCH   2   5
BRANCH   1  15
ATOM     15  N   UNL d   1      23.131 -18.146  -0.232  0.00  0.00    -0.249 N 
ATOM     16  C   UNL d   1      21.775 -18.366  -0.444  0.00  0.00     0.334 C 
ATOM     17  N   UNL d   1      21.214 -19.374   0.323  0.00  0.00    -0.342 N 
ATOM     18  O   UNL d   1      21.129 -17.715  -1.264  0.00  0.00    -0.246 OA
ATOM     19  H   UNL d   1      21.787 -19.882   0.980  0.00  0.00     0.164 HD
ATOM     20  H   UNL d   1      23.692 -18.645   0.451  0.00  0.00     0.192 HD
BRANCH  17  21
ATOM     21  C   UNL d   1      19.796 -19.736   0.193  0.00  0.00     0.124 C 
BRANCH  21  22
ATOM     22  C   UNL d   1      19.221 -20.496   1.398  0.00  0.00     0.015 C 
ATOM     23  C   UNL d   1      18.025 -21.367   1.013  0.00  0.00     0.006 C 
ENDBRANCH  21  22
ENDBRANCH  17  21
ENDBRANCH   1  15
TORSDOF 5
ENDMDL
MODEL 3
REMARK VINA RESULT:    -6.498      2.691      7.844
REMARK INTER + INTRA:          -9.273
REMARK INTER:                  -7.989
REMARK INTRA:                  -1.284
REMARK CONF_INDEPENDENT:        1.492
REMARK UNBOUND:                -1.284
REMARK  5 active torsions:
REMARK  status: ('A' for Active; 'I' for Inactive)
REMARK    1  A    between atoms: C_2  and  C_3 
REMARK    2  A    between atoms: C_3  and  N_4 
REMARK       I    between atoms: N_4  and  C_5 
REMARK       I    between atoms: C_5  and  N_7 
REMARK    3  A    between atoms: N_7  and  N_8 
REMARK       I    between atoms: N_8  and  C_9 
REMARK    4  A    between atoms: C_9  and  C_11 
REMARK    5  A    between atoms: C_13  and  N_14 
ROOT
ATOM      1  N   UNL d   1      25.835 -15.348  -3.156  0.00  0.00    -0.262 N 
ATOM      2  C   UNL d   1      25.608 -15.387  -1.781  0.00  0.00     0.271 C 
ATOM      3  O   UNL d   1      25.931 -14.469  -1.023  0.00  0.00    -0.266 OA
ATOM      4  H   UNL d   1      25.612 -16.122  -3.782  0.00  0.00     0.190 HD
ENDROOT
BRANCH   2   5
ATOM      5  C   UNL d   1      24.909 -16.597  -1.201  0.00  0.00     0.057 A 
ATOM      6  C   UNL d   1      23.538 -16.819  -1.501  0.00  0.00     0.054 A 
ATOM      7  C   UNL d   1      22.845 -17.924  -0.948  0.00  0.00     0.103 A 
ATOM      8  C   UNL d   1      23.501 -18.808  -0.084  0.00  0.00     0.038 A 
ATOM      9  C   UNL d   1      24.838 -18.575   0.235  0.00  0.00     0.027 A 
ATOM     10  C   UNL d   1      25.537 -17.479  -0.307  0.00  0.00     0.050 A 
ATOM     11 CL   UNL d   1      27.158 -17.264   0.245  0.00  0.00    -0.083 Cl
BRANCH   7  12
ATOM     12  N   UNL d   1      21.425 -18.173  -1.265  0.00  0.00    -0.116 N 
ATOM     13  O   UNL d   1      21.082 -19.339  -1.501  0.00  0.00    -0.532 OA
ATOM     14  O   UNL d   1      20.655 -17.200  -1.270  0.00  0.00    -0.532 OA
ENDBRANCH   7  12
ENDBRANCH   2   5
BRANCH   1  15
ATOM     15  N   UNL d   1      26.561 -14.268  -3.769  0.00  0.00    -0.249 N 
ATOM     16  C   UNL d   1      27.010 -14.416  -5.077  0.00  0.00     0.334 C 
ATOM     17  N   UNL d   1      27.679 -13.321  -5.598  0.00  0.00    -0.342 N 
ATOM     18  O   UNL d   1      26.813 -15.445  -5.722  0.00  0.00    -0.246 OA
ATOM     19  H   UNL d   1      27.813 -12.498  -5.030  0.00  0.00     0.164 HD
ATOM     20  H   UNL d   1      26.724 -13.446  -3.198  0.00  0.00     0.192 HD
BRANCH  17  21
ATOM     21  C   UNL d   1      28.192 -13.321  -6.975  0.00  0.00     0.124 C 
BRANCH  21  22
ATOM     22  C   UNL d   1      29.623 -13.862  -7.120  0.00  0.00     0.015 C 
ATOM     23  C   UNL d   1      29.838 -15.147  -6.319  0.00  0.00     0.006 C 
ENDBRANCH  21  22
ENDBRANCH  17  21
ENDBRANCH   1  15
TORSDOF 5
ENDMDL
MODEL 4
REMARK VINA RESULT:    -6.445      2.883      7.773
REMARK INTER + INTRA:          -8.665
REMARK INTER:                  -7.937
REMARK INTRA:                  -0.728
REMARK CONF_INDEPENDENT:        1.492
REMARK UNBOUND:                -0.728
REMARK  5 active torsions:
REMARK  status: ('A' for Active; 'I' for Inactive)
REMARK    1  A    between atoms: C_2  and  C_3 
REMARK    2  A    between atoms: C_3  and  N_4 
REMARK       I    between atoms: N_4  and  C_5 
REMARK       I    between atoms: C_5  and  N_7 
REMARK    3  A    between atoms: N_7  and  N_8 
REMARK       I    between atoms: N_8  and  C_9 
REMARK    4  A    between atoms: C_9  and  C_11 
REMARK    5  A    between atoms: C_13  and  N_14 
ROOT
ATOM      1  N   UNL d   1      24.274 -14.501  -2.904  0.00  0.00    -0.262 N 
ATOM      2  C   UNL d   1      25.200 -15.537  -2.779  0.00  0.00     0.271 C 
ATOM      3  O   UNL d   1      26.224 -15.605  -3.462  0.00  0.00    -0.266 OA
ATOM      4  H   UNL d   1      23.403 -14.462  -2.375  0.00  0.00     0.190 HD
ENDROOT
BRANCH   2   5
ATOM      5  C   UNL d   1      24.946 -16.606  -1.740  0.00  0.00     0.057 A 
ATOM      6  C   UNL d   1      23.655 -17.192  -1.645  0.00  0.00     0.054 A 
ATOM      7  C   UNL d   1      23.375 -18.172  -0.661  0.00  0.00     0.103 A 
ATOM      8  C   UNL d   1      24.365 -18.568   0.244  0.00  0.00     0.038 A 
ATOM      9  C   UNL d   1      25.625 -17.972   0.172  0.00  0.00     0.027 A 
ATOM     10  C   UNL d   1      25.915 -16.996  -0.801  0.00  0.00     0.050 A 
ATOM     11 CL   UNL d   1      27.484 -16.282  -0.715  0.00  0.00    -0.083 Cl
BRANCH   7  12
ATOM     12  N   UNL d   1      22.041 -18.798  -0.563  0.00  0.00    -0.116 N 
ATOM     13  O   UNL d   1      21.576 -19.325  -1.581  0.00  0.00    -0.532 OA
ATOM     14  O   UNL d   1      21.467 -18.765   0.537  0.00  0.00    -0.532 OA
ENDBRANCH   7  12
ENDBRANCH   2   5
BRANCH   1  15
ATOM     15  N   UNL d   1      24.407 -13.491  -3.920  0.00  0.00    -0.249 N 
ATOM     16  C   UNL d   1      25.464 -12.592  -3.841  0.00  0.00     0.334 C 
ATOM     17  N   UNL d   1      25.530 -11.667  -4.870  0.00  0.00    -0.342 N 
ATOM     18  O   UNL d   1      26.286 -12.629  -2.925  0.00  0.00    -0.246 OA
ATOM     19  H   UNL d   1      24.834 -11.679  -5.601  0.00  0.00     0.164 HD
ATOM     20  H   UNL d   1      23.697 -13.477  -4.645  0.00  0.00     0.192 HD
BRANCH  17  21
ATOM     21  C   UNL d   1      26.605 -10.668  -4.934  0.00  0.00     0.124 C 
BRANCH  21  22
ATOM     22  C   UNL d   1      26.152  -9.227  -4.649  0.00  0.00     0.015 C 
ATOM     23  C   UNL d   1      24.835  -8.888  -5.349  0.00  0.00     0.006 C 
ENDBRANCH  21  22
ENDBRANCH  17  21
ENDBRANCH   1  15
TORSDOF 5
ENDMDL
MODEL 5
REMARK VINA RESULT:    -6.227      1.806      2.144
REMARK INTER + INTRA:          -8.987
REMARK INTER:                  -7.719
REMARK INTRA:                  -1.268
REMARK CONF_INDEPENDENT:        1.492
REMARK UNBOUND:                -1.268
REMARK  5 active torsions:
REMARK  status: ('A' for Active; 'I' for Inactive)
REMARK    1  A    between atoms: C_2  and  C_3 
REMARK    2  A    between atoms: C_3  and  N_4 
REMARK       I    between atoms: N_4  and  C_5 
REMARK       I    between atoms: C_5  and  N_7 
REMARK    3  A    between atoms: N_7  and  N_8 
REMARK       I    between atoms: N_8  and  C_9 
REMARK    4  A    between atoms: C_9  and  C_11 
REMARK    5  A    between atoms: C_13  and  N_14 
ROOT
ATOM      1  N   UNL d   1      23.409 -17.390  -1.195  0.00  0.00    -0.262 N 
ATOM      2  C   UNL d   1      24.093 -16.261  -1.646  0.00  0.00     0.271 C 
ATOM      3  O   UNL d   1      23.526 -15.202  -1.924  0.00  0.00    -0.266 OA
ATOM      4  H   UNL d   1      23.866 -18.283  -1.007  0.00  0.00     0.190 HD
ENDROOT
BRANCH   2   5
ATOM      5  C   UNL d   1      25.599 -16.335  -1.771  0.00  0.00     0.057 A 
ATOM      6  C   UNL d   1      26.230 -15.783  -2.918  0.00  0.00     0.054 A 
ATOM      7  C   UNL d   1      27.634 -15.865  -3.082  0.00  0.00     0.103 A 
ATOM      8  C   UNL d   1      28.422 -16.507  -2.120  0.00  0.00     0.038 A 
ATOM      9  C   UNL d   1      27.801 -17.076  -1.008  0.00  0.00     0.027 A 
ATOM     10  C   UNL d   1      26.405 -17.001  -0.834  0.00  0.00     0.050 A 
ATOM     11 CL   UNL d   1      25.767 -17.826   0.541  0.00  0.00    -0.083 Cl
BRANCH   7  12
ATOM     12  N   UNL d   1      28.302 -15.282  -4.263  0.00  0.00    -0.116 N 
ATOM     13  O   UNL d   1      29.333 -14.623  -4.075  0.00  0.00    -0.532 OA
ATOM     14  O   UNL d   1      27.794 -15.491  -5.375  0.00  0.00    -0.532 OA
ENDBRANCH   7  12
ENDBRANCH   2   5
BRANCH   1  15
ATOM     15  N   UNL d   1      21.973 -17.422  -1.123  0.00  0.00    -0.249 N 
ATOM     16  C   UNL d   1      21.338 -18.636  -0.886  0.00  0.00     0.334 C 
ATOM     17  N   UNL d   1      19.957 -18.574  -0.809  0.00  0.00    -0.342 N 
ATOM     18  O   UNL d   1      21.966 -19.685  -0.744  0.00  0.00    -0.246 OA
ATOM     19  H   UNL d   1      19.487 -17.689  -0.928  0.00  0.00     0.164 HD
ATOM     20  H   UNL d   1      21.489 -16.542  -1.268  0.00  0.00     0.192 HD
BRANCH  17  21
ATOM     21  C   UNL d   1      19.150 -19.772  -0.541  0.00  0.00     0.124 C 
BRANCH  21  22
ATOM     22  C   UNL d   1      18.973 -20.100   0.950  0.00  0.00     0.015 C 
ATOM     23  C   UNL d   1      18.054 -21.302   1.171  0.00  0.00     0.006 C 
ENDBRANCH  21  22
ENDBRANCH  17  21
ENDBRANCH   1  15
TORSDOF 5
ENDMDL
MODEL 6
REMARK VINA RESULT:    -6.122      6.564      8.102
REMARK INTER + INTRA:          -8.378
REMARK INTER:                  -7.614
REMARK INTRA:                  -0.764
REMARK CONF_INDEPENDENT:        1.492
REMARK UNBOUND:                -0.764
REMARK  5 active torsions:
REMARK  status: ('A' for Active; 'I' for Inactive)
REMARK    1  A    between atoms: C_2  and  C_3 
REMARK    2  A    between atoms: C_3  and  N_4 
REMARK       I    between atoms: N_4  and  C_5 
REMARK       I    between atoms: C_5  and  N_7 
REMARK    3  A    between atoms: N_7  and  N_8 
REMARK       I    between atoms: N_8  and  C_9 
REMARK    4  A    between atoms: C_9  and  C_11 
REMARK    5  A    between atoms: C_13  and  N_14 
ROOT
ATOM      1  N   UNL d   1      28.589 -13.408   2.438  0.00  0.00    -0.262 N 
ATOM      2  C   UNL d   1      27.591 -12.987   3.316  0.00  0.00     0.271 C 
ATOM      3  O   UNL d   1      26.758 -13.756   3.801  0.00  0.00    -0.266 OA
ATOM      4  H   UNL d   1      29.253 -12.770   1.997  0.00  0.00     0.190 HD
ENDROOT
BRANCH   2   5
ATOM      5  C   UNL d   1      27.548 -11.526   3.708  0.00  0.00     0.057 A 
ATOM      6  C   UNL d   1      26.764 -10.623   2.941  0.00  0.00     0.054 A 
ATOM      7  C   UNL d   1      26.728  -9.243   3.261  0.00  0.00     0.103 A 
ATOM      8  C   UNL d   1      27.479  -8.747   4.332  0.00  0.00     0.038 A 
ATOM      9  C   UNL d   1      28.273  -9.627   5.067  0.00  0.00     0.027 A 
ATOM     10  C   UNL d   1      28.317 -11.001   4.758  0.00  0.00     0.050 A 
ATOM     11 CL   UNL d   1      29.410 -11.955   5.695  0.00  0.00    -0.083 Cl
BRANCH   7  12
ATOM     12  N   UNL d   1      25.906  -8.298   2.481  0.00  0.00    -0.116 N 
ATOM     13  O   UNL d   1      25.999  -7.094   2.751  0.00  0.00    -0.532 OA
ATOM     14  O   UNL d   1      25.172  -8.765   1.596  0.00  0.00    -0.532 OA
ENDBRANCH   7  12
ENDBRANCH   2   5
BRANCH   1  15
ATOM     15  N   UNL d   1      28.649 -14.764   1.960  0.00  0.00    -0.249 N 
ATOM     16  C   UNL d   1      27.697 -15.197   1.044  0.00  0.00     0.334 C 
ATOM     17  N   UNL d   1      27.841 -16.507   0.618  0.00  0.00    -0.342 N 
ATOM     18  O   UNL d   1      26.800 -14.459   0.637  0.00  0.00    -0.246 OA
ATOM     19  H   UNL d   1      28.596 -17.071   0.979  0.00  0.00     0.164 HD
ATOM     20  H   UNL d   1      29.388 -15.348   2.336  0.00  0.00     0.192 HD
BRANCH  17  21
ATOM     21  C   UNL d   1      26.924 -17.098  -0.365  0.00  0.00     0.124 C 
BRANCH  21  22
ATOM     22  C   UNL d   1      25.833 -17.995   0.242  0.00  0.00     0.015 C 
ATOM     23  C   UNL d   1      24.484 -17.813  -0.454  0.00  0.00     0.006 C 
ENDBRANCH  21  22
ENDBRANCH  17  21
ENDBRANCH   1  15
TORSDOF 5
ENDMDL
MODEL 7
REMARK VINA RESULT:    -5.961      3.041      3.500
REMARK INTER + INTRA:          -8.784
REMARK INTER:                  -7.453
REMARK INTRA:                  -1.331
REMARK CONF_INDEPENDENT:        1.492
REMARK UNBOUND:                -1.331
REMARK  5 active torsions:
REMARK  status: ('A' for Active; 'I' for Inactive)
REMARK    1  A    between atoms: C_2  and  C_3 
REMARK    2  A    between atoms: C_3  and  N_4 
REMARK       I    between atoms: N_4  and  C_5 
REMARK       I    between atoms: C_5  and  N_7 
REMARK    3  A    between atoms: N_7  and  N_8 
REMARK       I    between atoms: N_8  and  C_9 
REMARK    4  A    between atoms: C_9  and  C_11 
REMARK    5  A    between atoms: C_13  and  N_14 
ROOT
ATOM      1  N   UNL d   1      23.959 -17.078  -0.508  0.00  0.00    -0.262 N 
ATOM      2  C   UNL d   1      25.296 -16.860  -0.176  0.00  0.00     0.271 C 
ATOM      3  O   UNL d   1      26.004 -17.721   0.351  0.00  0.00    -0.266 OA
ATOM      4  H   UNL d   1      23.355 -16.356  -0.902  0.00  0.00     0.190 HD
ENDROOT
BRANCH   2   5
ATOM      5  C   UNL d   1      25.907 -15.516  -0.505  0.00  0.00     0.057 A 
ATOM      6  C   UNL d   1      26.280 -14.643   0.552  0.00  0.00     0.054 A 
ATOM      7  C   UNL d   1      26.825 -13.364   0.278  0.00  0.00     0.103 A 
ATOM      8  C   UNL d   1      26.990 -12.936  -1.043  0.00  0.00     0.038 A 
ATOM      9  C   UNL d   1      26.597 -13.779  -2.083  0.00  0.00     0.027 A 
ATOM     10  C   UNL d   1      26.054 -15.052  -1.823  0.00  0.00     0.050 A 
ATOM     11 CL   UNL d   1      25.530 -15.949  -3.201  0.00  0.00    -0.083 Cl
BRANCH   7  12
ATOM     12  N   UNL d   1      27.229 -12.455   1.368  0.00  0.00    -0.116 N 
ATOM     13  O   UNL d   1      26.737 -12.644   2.488  0.00  0.00    -0.532 OA
ATOM     14  O   UNL d   1      28.043 -11.558   1.100  0.00  0.00    -0.532 OA
ENDBRANCH   7  12
ENDBRANCH   2   5
BRANCH   1  15
ATOM     15  N   UNL d   1      23.286 -18.301  -0.159  0.00  0.00    -0.249 N 
ATOM     16  C   UNL d   1      21.921 -18.411  -0.400  0.00  0.00     0.334 C 
ATOM     17  N   UNL d   1      21.357 -19.627  -0.055  0.00  0.00    -0.342 N 
ATOM     18  O   UNL d   1      21.270 -17.491  -0.895  0.00  0.00    -0.246 OA
ATOM     19  H   UNL d   1      21.934 -20.352   0.345  0.00  0.00     0.164 HD
ATOM     20  H   UNL d   1      23.852 -19.027   0.269  0.00  0.00     0.192 HD
BRANCH  17  21
ATOM     21  C   UNL d   1      19.930 -19.899  -0.272  0.00  0.00     0.124 C 
BRANCH  21  22
ATOM     22  C   UNL d   1      19.136 -20.192   1.011  0.00  0.00     0.015 C 
ATOM     23  C   UNL d   1      18.200 -21.390   0.849  0.00  0.00     0.006 C 
ENDBRANCH  21  22
ENDBRANCH  17  21
ENDBRANCH   1  15
TORSDOF 5
ENDMDL
MODEL 8
REMARK VINA RESULT:    -5.955      3.640      8.148
REMARK INTER + INTRA:          -8.645
REMARK INTER:                  -7.447
REMARK INTRA:                  -1.198
REMARK CONF_INDEPENDENT:        1.492
REMARK UNBOUND:                -1.198
REMARK  5 active torsions:
REMARK  status: ('A' for Active; 'I' for Inactive)
REMARK    1  A    between atoms: C_2  and  C_3 
REMARK    2  A    between atoms: C_3  and  N_4 
REMARK       I    between atoms: N_4  and  C_5 
REMARK       I    between atoms: C_5  and  N_7 
REMARK    3  A    between atoms: N_7  and  N_8 
REMARK       I    between atoms: N_8  and  C_9 
REMARK    4  A    between atoms: C_9  and  C_11 
REMARK    5  A    between atoms: C_13  and  N_14 
ROOT
ATOM      1  N   UNL d   1      25.401 -13.429  -2.910  0.00  0.00    -0.262 N 
ATOM      2  C   UNL d   1      25.333 -14.762  -3.313  0.00  0.00     0.271 C 
ATOM      3  O   UNL d   1      25.156 -15.098  -4.487  0.00  0.00    -0.266 OA
ATOM      4  H   UNL d   1      25.502 -13.144  -1.935  0.00  0.00     0.190 HD
ENDROOT
BRANCH   2   5
ATOM      5  C   UNL d   1      25.514 -15.840  -2.267  0.00  0.00     0.057 A 
ATOM      6  C   UNL d   1      24.413 -16.671  -1.927  0.00  0.00     0.054 A 
ATOM      7  C   UNL d   1      24.539 -17.668  -0.928  0.00  0.00     0.103 A 
ATOM      8  C   UNL d   1      25.750 -17.838  -0.249  0.00  0.00     0.038 A 
ATOM      9  C   UNL d   1      26.823 -17.003  -0.559  0.00  0.00     0.027 A 
ATOM     10  C   UNL d   1      26.710 -16.008  -1.550  0.00  0.00     0.050 A 
ATOM     11 CL   UNL d   1      28.088 -14.992  -1.767  0.00  0.00    -0.083 Cl
BRANCH   7  12
ATOM     12  N   UNL d   1      23.406 -18.547  -0.577  0.00  0.00    -0.116 N 
ATOM     13  O   UNL d   1      23.039 -18.570   0.605  0.00  0.00    -0.532 OA
ATOM     14  O   UNL d   1      22.884 -19.208  -1.488  0.00  0.00    -0.532 OA
ENDBRANCH   7  12
ENDBRANCH   2   5
BRANCH   1  15
ATOM     15  N   UNL d   1      25.164 -12.350  -3.831  0.00  0.00    -0.249 N 
ATOM     16  C   UNL d   1      25.651 -11.084  -3.526  0.00  0.00     0.334 C 
ATOM     17  N   UNL d   1      25.399 -10.110  -4.476  0.00  0.00    -0.342 N 
ATOM     18  O   UNL d   1      26.272 -10.857  -2.487  0.00  0.00    -0.246 OA
ATOM     19  H   UNL d   1      24.888 -10.346  -5.314  0.00  0.00     0.164 HD
ATOM     20  H   UNL d   1      24.628 -12.571  -4.664  0.00  0.00     0.192 HD
BRANCH  17  21
ATOM     21  C   UNL d   1      25.871  -8.730  -4.302  0.00  0.00     0.124 C 
BRANCH  21  22
ATOM     22  C   UNL d   1      24.866  -7.653  -4.739  0.00  0.00     0.015 C 
ATOM     23  C   UNL d   1      23.838  -8.193  -5.734  0.00  0.00     0.006 C 
ENDBRANCH  21  22
ENDBRANCH  17  21
ENDBRANCH   1  15
TORSDOF 5
ENDMDL
