MODEL 1
REMARK VINA RESULT:   -10.199      0.000      0.000
REMARK INTER + INTRA:         -14.720
REMARK INTER:                 -13.182
REMARK INTRA:                  -1.539
REMARK CONF_INDEPENDENT:        2.983
REMARK UNBOUND:                -1.539
REMARK  10 active torsions:
REMARK  status: ('A' for Active; 'I' for Inactive)
REMARK    1  A    between atoms: C_2  and  N_5 
REMARK       I    between atoms: N_5  and  C_6 
REMARK    2  A    between atoms: C_6  and  C_8 
REMARK    3  A    between atoms: C_11  and  N_12 
REMARK    4  A    between atoms: N_12  and  C_13 
REMARK    5  A    between atoms: C_13  and  N_15 
REMARK       I    between atoms: N_15  and  C_16 
REMARK    6  A    between atoms: C_16  and  C_18 
REMARK    7  A    between atoms: C_18  and  C_19 
REMARK    8  A    between atoms: C_19  and  C_20 
REMARK    9  A    between atoms: C_20  and  O_21 
REMARK   10  A    between atoms: O_21  and  C_22 
ROOT
ATOM      1  C   UNL d   1      27.502 -15.914  -1.601  0.00  0.00     0.178 C 
ATOM      2  S   UNL d   1      28.951 -16.387  -2.344  0.00  0.00    -0.040 SA
ENDROOT
BRANCH   1   3
ATOM      3  N   UNL d   1      26.901 -16.577  -0.483  0.00  0.00    -0.333 N 
ATOM      4  H   UNL d   1      27.474 -16.823   0.319  0.00  0.00     0.168 HD
BRANCH   3   5
ATOM      5  C   UNL d   1      25.530 -17.104  -0.425  0.00  0.00     0.034 C 
ATOM      6  C   UNL d   1      25.220 -18.429  -0.080  0.00  0.00     0.030 C 
ATOM      7  C   UNL d   1      23.874 -18.903  -0.173  0.00  0.00     0.019 C 
ATOM      8  C   UNL d   1      22.826 -18.059  -0.578  0.00  0.00     0.032 C 
ATOM      9  C   UNL d   1      23.108 -16.752  -0.856  0.00  0.00     0.019 C 
ATOM     10  C   UNL d   1      24.412 -16.318  -0.721  0.00  0.00     0.030 C 
BRANCH   8  11
ATOM     11  C   UNL d   1      21.404 -18.425  -0.500  0.00  0.00     0.252 C 
ATOM     12  N   UNL d   1      21.064 -19.539   0.254  0.00  0.00    -0.349 N 
ATOM     13  H   UNL d   1      21.786 -20.029   0.774  0.00  0.00     0.163 HD
ATOM     14  O   UNL d   1      20.611 -17.742  -1.156  0.00  0.00    -0.268 OA
BRANCH  12  15
ATOM     15  C   UNL d   1      19.675 -20.005   0.388  0.00  0.00     0.022 C 
ATOM     16  C   UNL d   1      18.869 -19.706  -0.893  0.00  0.00     0.037 C 
ATOM     17  C   UNL d   1      18.980 -19.288   1.556  0.00  0.00     0.037 C 
ATOM     18  C   UNL d   1      19.665 -21.525   0.604  0.00  0.00     0.037 C 
ENDBRANCH  12  15
ENDBRANCH   8  11
ENDBRANCH   3   5
ENDBRANCH   1   3
BRANCH   1  19
ATOM     19  N   UNL d   1      26.825 -14.772  -2.100  0.00  0.00    -0.304 N 
ATOM     20  C   UNL d   1      25.827 -14.874  -3.090  0.00  0.00     0.223 C 
ATOM     21  O   UNL d   1      25.415 -15.934  -3.564  0.00  0.00    -0.273 OA
ATOM     22  H   UNL d   1      27.085 -13.850  -1.779  0.00  0.00     0.171 HD
BRANCH  20  23
ATOM     23  C   UNL d   1      25.150 -13.651  -3.646  0.00  0.00     0.105 C 
BRANCH  23  24
ATOM     24  C   UNL d   1      25.995 -13.206  -4.886  0.00  0.00     0.036 C 
BRANCH  24  25
ATOM     25  C   UNL d   1      27.384 -13.791  -4.856  0.00  0.00     0.176 C 
BRANCH  25  26
ATOM     26  O   UNL d   1      27.503 -14.849  -5.805  0.00  0.00    -0.349 OA
BRANCH  26  27
ATOM     27  C   UNL d   1      28.780 -15.175  -6.195  0.00  0.00     0.090 A 
ATOM     28  C   UNL d   1      29.297 -16.329  -5.571  0.00  0.00     0.040 A 
ATOM     29  C   UNL d   1      30.627 -16.719  -5.766  0.00  0.00     0.026 A 
ATOM     30  C   UNL d   1      31.432 -15.998  -6.639  0.00  0.00     0.035 A 
ATOM     31 CL   UNL d   1      33.034 -16.518  -6.983  0.00  0.00    -0.084 Cl
ATOM     32  C   UNL d   1      30.941 -14.861  -7.264  0.00  0.00     0.050 A 
ATOM     33  C   UNL d   1      29.630 -14.434  -7.036  0.00  0.00     0.069 A 
ATOM     34 CL   UNL d   1      29.250 -12.942  -7.823  0.00  0.00    -0.081 Cl
ENDBRANCH  26  27
ENDBRANCH  25  26
ENDBRANCH  24  25
ENDBRANCH  23  24
ENDBRANCH  20  23
ENDBRANCH   1  19
TORSDOF 10
ENDMDL
MODEL 2
REMARK VINA RESULT:   -10.106      2.405      3.728
REMARK INTER + INTRA:         -15.359
REMARK INTER:                 -13.089
REMARK INTRA:                  -2.270
REMARK CONF_INDEPENDENT:        2.983
REMARK UNBOUND:                -2.270
REMARK  10 active torsions:
REMARK  status: ('A' for Active; 'I' for Inactive)
REMARK    1  A    between atoms: C_2  and  N_5 
REMARK       I    between atoms: N_5  and  C_6 
REMARK    2  A    between atoms: C_6  and  C_8 
REMARK    3  A    between atoms: C_11  and  N_12 
REMARK    4  A    between atoms: N_12  and  C_13 
REMARK    5  A    between atoms: C_13  and  N_15 
REMARK       I    between atoms: N_15  and  C_16 
REMARK    6  A    between atoms: C_16  and  C_18 
REMARK    7  A    between atoms: C_18  and  C_19 
REMARK    8  A    between atoms: C_19  and  C_20 
REMARK    9  A    between atoms: C_20  and  O_21 
REMARK   10  A    between atoms: O_21  and  C_22 
ROOT
ATOM      1  C   UNL d   1      27.295 -15.262  -0.418  0.00  0.00     0.178 C 
ATOM      2  S   UNL d   1      26.628 -14.115   0.638  0.00  0.00    -0.040 SA
ENDROOT
BRANCH   1   3
ATOM      3  N   UNL d   1      26.914 -16.641  -0.476  0.00  0.00    -0.333 N 
ATOM      4  H   UNL d   1      27.619 -17.346  -0.678  0.00  0.00     0.168 HD
BRANCH   3   5
ATOM      5  C   UNL d   1      25.541 -17.162  -0.431  0.00  0.00     0.034 C 
ATOM      6  C   UNL d   1      25.225 -18.496  -0.132  0.00  0.00     0.030 C 
ATOM      7  C   UNL d   1      23.876 -18.959  -0.236  0.00  0.00     0.019 C 
ATOM      8  C   UNL d   1      22.831 -18.096  -0.607  0.00  0.00     0.032 C 
ATOM      9  C   UNL d   1      23.119 -16.781  -0.840  0.00  0.00     0.019 C 
ATOM     10  C   UNL d   1      24.427 -16.360  -0.695  0.00  0.00     0.030 C 
BRANCH   8  11
ATOM     11  C   UNL d   1      21.407 -18.456  -0.537  0.00  0.00     0.252 C 
ATOM     12  N   UNL d   1      21.052 -19.531   0.264  0.00  0.00    -0.349 N 
ATOM     13  H   UNL d   1      21.763 -19.996   0.820  0.00  0.00     0.163 HD
ATOM     14  O   UNL d   1      20.628 -17.805  -1.240  0.00  0.00    -0.268 OA
BRANCH  12  15
ATOM     15  C   UNL d   1      19.660 -19.990   0.396  0.00  0.00     0.022 C 
ATOM     16  C   UNL d   1      19.601 -21.518   0.605  0.00  0.00     0.037 C 
ATOM     17  C   UNL d   1      18.866 -19.661  -0.879  0.00  0.00     0.037 C 
ATOM     18  C   UNL d   1      19.016 -19.323   1.620  0.00  0.00     0.037 C 
ENDBRANCH  12  15
ENDBRANCH   8  11
ENDBRANCH   3   5
ENDBRANCH   1   3
BRANCH   1  19
ATOM     19  N   UNL d   1      28.299 -14.843  -1.329  0.00  0.00    -0.304 N 
ATOM     20  C   UNL d   1      29.082 -15.767  -2.048  0.00  0.00     0.223 C 
ATOM     21  O   UNL d   1      28.939 -16.991  -2.004  0.00  0.00    -0.273 OA
ATOM     22  H   UNL d   1      28.500 -13.859  -1.442  0.00  0.00     0.171 HD
BRANCH  20  23
ATOM     23  C   UNL d   1      30.176 -15.311  -2.974  0.00  0.00     0.105 C 
BRANCH  23  24
ATOM     24  C   UNL d   1      29.466 -14.715  -4.235  0.00  0.00     0.036 C 
BRANCH  24  25
ATOM     25  C   UNL d   1      28.774 -15.783  -5.043  0.00  0.00     0.176 C 
BRANCH  25  26
ATOM     26  O   UNL d   1      27.837 -15.200  -5.947  0.00  0.00    -0.349 OA
BRANCH  26  27
ATOM     27  C   UNL d   1      27.194 -14.067  -5.509  0.00  0.00     0.090 A 
ATOM     28  C   UNL d   1      27.626 -12.881  -6.135  0.00  0.00     0.040 A 
ATOM     29  C   UNL d   1      27.159 -11.631  -5.710  0.00  0.00     0.026 A 
ATOM     30  C   UNL d   1      26.204 -11.561  -4.703  0.00  0.00     0.035 A 
ATOM     31 CL   UNL d   1      25.531 -10.051  -4.238  0.00  0.00    -0.084 Cl
ATOM     32  C   UNL d   1      25.764 -12.719  -4.078  0.00  0.00     0.050 A 
ATOM     33  C   UNL d   1      26.264 -13.968  -4.459  0.00  0.00     0.069 A 
ATOM     34 CL   UNL d   1      25.670 -15.268  -3.486  0.00  0.00    -0.081 Cl
ENDBRANCH  26  27
ENDBRANCH  25  26
ENDBRANCH  24  25
ENDBRANCH  23  24
ENDBRANCH  20  23
ENDBRANCH   1  19
TORSDOF 10
ENDMDL
MODEL 3
REMARK VINA RESULT:    -9.758      6.926      8.796
REMARK INTER + INTRA:         -14.396
REMARK INTER:                 -12.741
REMARK INTRA:                  -1.655
REMARK CONF_INDEPENDENT:        2.983
REMARK UNBOUND:                -1.655
REMARK  10 active torsions:
REMARK  status: ('A' for Active; 'I' for Inactive)
REMARK    1  A    between atoms: C_2  and  N_5 
REMARK       I    between atoms: N_5  and  C_6 
REMARK    2  A    between atoms: C_6  and  C_8 
REMARK    3  A    between atoms: C_11  and  N_12 
REMARK    4  A    between atoms: N_12  and  C_13 
REMARK    5  A    between atoms: C_13  and  N_15 
REMARK       I    between atoms: N_15  and  C_16 
REMARK    6  A    between atoms: C_16  and  C_18 
REMARK    7  A    between atoms: C_18  and  C_19 
REMARK    8  A    between atoms: C_19  and  C_20 
REMARK    9  A    between atoms: C_20  and  O_21 
REMARK   10  A    between atoms: O_21  and  C_22 
ROOT
ATOM      1  C   UNL d   1      27.817 -15.997   0.240  0.00  0.00     0.178 C 
ATOM      2  S   UNL d   1      28.934 -17.061  -0.464  0.00  0.00    -0.040 SA
ENDROOT
BRANCH   1   3
ATOM      3  N   UNL d   1      26.549 -15.646  -0.327  0.00  0.00    -0.333 N 
ATOM      4  H   UNL d   1      26.386 -14.691  -0.633  0.00  0.00     0.168 HD
BRANCH   3   5
ATOM      5  C   UNL d   1      25.357 -16.503  -0.377  0.00  0.00     0.034 C 
ATOM      6  C   UNL d   1      25.335 -17.833   0.071  0.00  0.00     0.030 C 
ATOM      7  C   UNL d   1      24.174 -18.643  -0.130  0.00  0.00     0.019 C 
ATOM      8  C   UNL d   1      23.021 -18.132  -0.749  0.00  0.00     0.032 C 
ATOM      9  C   UNL d   1      23.010 -16.821  -1.133  0.00  0.00     0.019 C 
ATOM     10  C   UNL d   1      24.134 -16.057  -0.890  0.00  0.00     0.030 C 
BRANCH   8  11
ATOM     11  C   UNL d   1      21.736 -18.845  -0.803  0.00  0.00     0.252 C 
ATOM     12  N   UNL d   1      21.021 -18.978   0.378  0.00  0.00    -0.349 N 
ATOM     13  H   UNL d   1      21.367 -18.535   1.224  0.00  0.00     0.163 HD
ATOM     14  O   UNL d   1      21.404 -19.323  -1.892  0.00  0.00    -0.268 OA
BRANCH  12  15
ATOM     15  C   UNL d   1      19.732 -19.686   0.444  0.00  0.00     0.022 C 
ATOM     16  C   UNL d   1      18.835 -19.306  -0.753  0.00  0.00     0.037 C 
ATOM     17  C   UNL d   1      18.980 -19.311   1.730  0.00  0.00     0.037 C 
ATOM     18  C   UNL d   1      19.978 -21.200   0.384  0.00  0.00     0.037 C 
ENDBRANCH  12  15
ENDBRANCH   8  11
ENDBRANCH   3   5
ENDBRANCH   1   3
BRANCH   1  19
ATOM     19  N   UNL d   1      28.135 -15.409   1.492  0.00  0.00    -0.304 N 
ATOM     20  C   UNL d   1      27.506 -14.231   1.940  0.00  0.00     0.223 C 
ATOM     21  O   UNL d   1      26.605 -13.645   1.338  0.00  0.00    -0.273 OA
ATOM     22  H   UNL d   1      28.862 -15.810   2.069  0.00  0.00     0.171 HD
BRANCH  20  23
ATOM     23  C   UNL d   1      27.887 -13.590   3.247  0.00  0.00     0.105 C 
BRANCH  23  24
ATOM     24  C   UNL d   1      29.439 -13.740   3.375  0.00  0.00     0.036 C 
BRANCH  24  25
ATOM     25  C   UNL d   1      29.896 -13.623   4.807  0.00  0.00     0.176 C 
BRANCH  25  26
ATOM     26  O   UNL d   1      28.856 -14.020   5.699  0.00  0.00    -0.349 OA
BRANCH  26  27
ATOM     27  C   UNL d   1      28.904 -13.488   6.965  0.00  0.00     0.090 A 
ATOM     28  C   UNL d   1      28.997 -14.449   7.991  0.00  0.00     0.040 A 
ATOM     29  C   UNL d   1      28.928 -14.074   9.338  0.00  0.00     0.026 A 
ATOM     30  C   UNL d   1      28.835 -12.728   9.672  0.00  0.00     0.035 A 
ATOM     31 CL   UNL d   1      28.861 -12.231  11.316  0.00  0.00    -0.084 Cl
ATOM     32  C   UNL d   1      28.746 -11.767   8.675  0.00  0.00     0.050 A 
ATOM     33  C   UNL d   1      28.761 -12.136   7.327  0.00  0.00     0.069 A 
ATOM     34 CL   UNL d   1      28.530 -10.803   6.251  0.00  0.00    -0.081 Cl
ENDBRANCH  26  27
ENDBRANCH  25  26
ENDBRANCH  24  25
ENDBRANCH  23  24
ENDBRANCH  20  23
ENDBRANCH   1  19
TORSDOF 10
ENDMDL
MODEL 4
REMARK VINA RESULT:    -9.226      1.924      3.693
REMARK INTER + INTRA:         -14.672
REMARK INTER:                 -12.209
REMARK INTRA:                  -2.463
REMARK CONF_INDEPENDENT:        2.983
REMARK UNBOUND:                -2.463
REMARK  10 active torsions:
REMARK  status: ('A' for Active; 'I' for Inactive)
REMARK    1  A    between atoms: C_2  and  N_5 
REMARK       I    between atoms: N_5  and  C_6 
REMARK    2  A    between atoms: C_6  and  C_8 
REMARK    3  A    between atoms: C_11  and  N_12 
REMARK    4  A    between atoms: N_12  and  C_13 
REMARK    5  A    between atoms: C_13  and  N_15 
REMARK       I    between atoms: N_15  and  C_16 
REMARK    6  A    between atoms: C_16  and  C_18 
REMARK    7  A    between atoms: C_18  and  C_19 
REMARK    8  A    between atoms: C_19  and  C_20 
REMARK    9  A    between atoms: C_20  and  O_21 
REMARK   10  A    between atoms: O_21  and  C_22 
ROOT
ATOM      1  C   UNL d   1      27.423 -15.030  -0.543  0.00  0.00     0.178 C 
ATOM      2  S   UNL d   1      26.706 -13.805   0.385  0.00  0.00    -0.040 SA
ENDROOT
BRANCH   1   3
ATOM      3  N   UNL d   1      27.075 -16.418  -0.476  0.00  0.00    -0.333 N 
ATOM      4  H   UNL d   1      27.811 -17.118  -0.464  0.00  0.00     0.168 HD
BRANCH   3   5
ATOM      5  C   UNL d   1      25.720 -16.976  -0.585  0.00  0.00     0.034 C 
ATOM      6  C   UNL d   1      24.603 -16.232  -0.997  0.00  0.00     0.030 C 
ATOM      7  C   UNL d   1      23.295 -16.809  -0.953  0.00  0.00     0.019 C 
ATOM      8  C   UNL d   1      23.092 -18.134  -0.530  0.00  0.00     0.032 C 
ATOM      9  C   UNL d   1      24.180 -18.886  -0.187  0.00  0.00     0.019 C 
ATOM     10  C   UNL d   1      25.431 -18.309  -0.277  0.00  0.00     0.030 C 
BRANCH   8  11
ATOM     11  C   UNL d   1      21.812 -18.845  -0.653  0.00  0.00     0.252 C 
ATOM     12  N   UNL d   1      21.034 -18.976   0.489  0.00  0.00    -0.349 N 
ATOM     13  H   UNL d   1      21.334 -18.532   1.351  0.00  0.00     0.163 HD
ATOM     14  O   UNL d   1      21.538 -19.325  -1.757  0.00  0.00    -0.268 OA
BRANCH  12  15
ATOM     15  C   UNL d   1      19.742 -19.682   0.486  0.00  0.00     0.022 C 
ATOM     16  C   UNL d   1      18.870 -19.239   1.680  0.00  0.00     0.037 C 
ATOM     17  C   UNL d   1      19.962 -21.198   0.605  0.00  0.00     0.037 C 
ATOM     18  C   UNL d   1      18.980 -19.346  -0.803  0.00  0.00     0.037 C 
ENDBRANCH  12  15
ENDBRANCH   8  11
ENDBRANCH   3   5
ENDBRANCH   1   3
BRANCH   1  19
ATOM     19  N   UNL d   1      28.437 -14.675  -1.469  0.00  0.00    -0.304 N 
ATOM     20  C   UNL d   1      29.137 -15.646  -2.212  0.00  0.00     0.223 C 
ATOM     21  O   UNL d   1      28.907 -16.857  -2.176  0.00  0.00    -0.273 OA
ATOM     22  H   UNL d   1      28.707 -13.707  -1.578  0.00  0.00     0.171 HD
BRANCH  20  23
ATOM     23  C   UNL d   1      30.244 -15.261  -3.155  0.00  0.00     0.105 C 
BRANCH  23  24
ATOM     24  C   UNL d   1      29.563 -14.945  -4.528  0.00  0.00     0.036 C 
BRANCH  24  25
ATOM     25  C   UNL d   1      28.488 -15.947  -4.862  0.00  0.00     0.176 C 
BRANCH  25  26
ATOM     26  O   UNL d   1      27.352 -15.294  -5.426  0.00  0.00    -0.349 OA
BRANCH  26  27
ATOM     27  C   UNL d   1      27.090 -14.025  -4.970  0.00  0.00     0.090 A 
ATOM     28  C   UNL d   1      26.193 -13.977  -3.884  0.00  0.00     0.040 A 
ATOM     29  C   UNL d   1      25.728 -12.753  -3.387  0.00  0.00     0.026 A 
ATOM     30  C   UNL d   1      26.209 -11.566  -3.926  0.00  0.00     0.035 A 
ATOM     31 CL   UNL d   1      25.742 -10.051  -3.264  0.00  0.00    -0.084 Cl
ATOM     32  C   UNL d   1      27.095 -11.594  -4.994  0.00  0.00     0.050 A 
ATOM     33  C   UNL d   1      27.525 -12.811  -5.531  0.00  0.00     0.069 A 
ATOM     34 CL   UNL d   1      28.538 -12.625  -6.920  0.00  0.00    -0.081 Cl
ENDBRANCH  26  27
ENDBRANCH  25  26
ENDBRANCH  24  25
ENDBRANCH  23  24
ENDBRANCH  20  23
ENDBRANCH   1  19
TORSDOF 10
ENDMDL
MODEL 5
REMARK VINA RESULT:    -9.142      7.262      9.666
REMARK INTER + INTRA:         -14.885
REMARK INTER:                 -12.125
REMARK INTRA:                  -2.760
REMARK CONF_INDEPENDENT:        2.983
REMARK UNBOUND:                -2.760
REMARK  10 active torsions:
REMARK  status: ('A' for Active; 'I' for Inactive)
REMARK    1  A    between atoms: C_2  and  N_5 
REMARK       I    between atoms: N_5  and  C_6 
REMARK    2  A    between atoms: C_6  and  C_8 
REMARK    3  A    between atoms: C_11  and  N_12 
REMARK    4  A    between atoms: N_12  and  C_13 
REMARK    5  A    between atoms: C_13  and  N_15 
REMARK       I    between atoms: N_15  and  C_16 
REMARK    6  A    between atoms: C_16  and  C_18 
REMARK    7  A    between atoms: C_18  and  C_19 
REMARK    8  A    between atoms: C_19  and  C_20 
REMARK    9  A    between atoms: C_20  and  O_21 
REMARK   10  A    between atoms: O_21  and  C_22 
ROOT
ATOM      1  C   UNL d   1      28.026 -13.922   1.276  0.00  0.00     0.178 C 
ATOM      2  S   UNL d   1      27.503 -12.313   1.390  0.00  0.00    -0.040 SA
ENDROOT
BRANCH   1   3
ATOM      3  N   UNL d   1      28.850 -14.585   2.241  0.00  0.00    -0.333 N 
ATOM      4  H   UNL d   1      29.379 -15.408   1.965  0.00  0.00     0.168 HD
BRANCH   3   5
ATOM      5  C   UNL d   1      28.900 -14.297   3.681  0.00  0.00     0.034 C 
ATOM      6  C   UNL d   1      29.923 -14.747   4.530  0.00  0.00     0.030 C 
ATOM      7  C   UNL d   1      29.834 -14.537   5.941  0.00  0.00     0.019 C 
ATOM      8  C   UNL d   1      28.748 -13.854   6.515  0.00  0.00     0.032 C 
ATOM      9  C   UNL d   1      27.778 -13.357   5.690  0.00  0.00     0.019 C 
ATOM     10  C   UNL d   1      27.914 -13.546   4.329  0.00  0.00     0.030 C 
BRANCH   8  11
ATOM     11  C   UNL d   1      28.697 -13.431   7.922  0.00  0.00     0.252 C 
ATOM     12  N   UNL d   1      29.206 -14.301   8.876  0.00  0.00    -0.349 N 
ATOM     13  H   UNL d   1      29.649 -15.164   8.579  0.00  0.00     0.163 HD
ATOM     14  O   UNL d   1      28.155 -12.349   8.165  0.00  0.00    -0.268 OA
BRANCH  12  15
ATOM     15  C   UNL d   1      29.192 -13.988  10.314  0.00  0.00     0.022 C 
ATOM     16  C   UNL d   1      30.135 -12.808  10.629  0.00  0.00     0.037 C 
ATOM     17  C   UNL d   1      29.670 -15.199  11.129  0.00  0.00     0.037 C 
ATOM     18  C   UNL d   1      27.773 -13.581  10.734  0.00  0.00     0.037 C 
ENDBRANCH  12  15
ENDBRANCH   8  11
ENDBRANCH   3   5
ENDBRANCH   1   3
BRANCH   1  19
ATOM     19  N   UNL d   1      27.618 -14.691   0.156  0.00  0.00    -0.304 N 
ATOM     20  C   UNL d   1      28.502 -15.566  -0.505  0.00  0.00     0.223 C 
ATOM     21  O   UNL d   1      29.662 -15.790  -0.153  0.00  0.00    -0.273 OA
ATOM     22  H   UNL d   1      26.685 -14.585  -0.218  0.00  0.00     0.171 HD
BRANCH  20  23
ATOM     23  C   UNL d   1      28.072 -16.339  -1.722  0.00  0.00     0.105 C 
BRANCH  23  24
ATOM     24  C   UNL d   1      27.350 -15.316  -2.662  0.00  0.00     0.036 C 
BRANCH  24  25
ATOM     25  C   UNL d   1      25.852 -15.376  -2.507  0.00  0.00     0.176 C 
BRANCH  25  26
ATOM     26  O   UNL d   1      25.495 -15.534  -1.135  0.00  0.00    -0.349 OA
BRANCH  26  27
ATOM     27  C   UNL d   1      24.574 -16.515  -0.855  0.00  0.00     0.090 A 
ATOM     28  C   UNL d   1      23.254 -16.189  -1.227  0.00  0.00     0.040 A 
ATOM     29  C   UNL d   1      22.184 -17.029  -0.894  0.00  0.00     0.026 A 
ATOM     30  C   UNL d   1      22.432 -18.234  -0.248  0.00  0.00     0.035 A 
ATOM     31 CL   UNL d   1      21.153 -19.335   0.073  0.00  0.00    -0.084 Cl
ATOM     32  C   UNL d   1      23.726 -18.572   0.124  0.00  0.00     0.050 A 
ATOM     33  C   UNL d   1      24.794 -17.716  -0.158  0.00  0.00     0.069 A 
ATOM     34 CL   UNL d   1      26.302 -18.272   0.483  0.00  0.00    -0.081 Cl
ENDBRANCH  26  27
ENDBRANCH  25  26
ENDBRANCH  24  25
ENDBRANCH  23  24
ENDBRANCH  20  23
ENDBRANCH   1  19
TORSDOF 10
ENDMDL
MODEL 6
REMARK VINA RESULT:    -8.722      7.399      9.664
REMARK INTER + INTRA:         -14.153
REMARK INTER:                 -11.705
REMARK INTRA:                  -2.448
REMARK CONF_INDEPENDENT:        2.983
REMARK UNBOUND:                -2.448
REMARK  10 active torsions:
REMARK  status: ('A' for Active; 'I' for Inactive)
REMARK    1  A    between atoms: C_2  and  N_5 
REMARK       I    between atoms: N_5  and  C_6 
REMARK    2  A    between atoms: C_6  and  C_8 
REMARK    3  A    between atoms: C_11  and  N_12 
REMARK    4  A    between atoms: N_12  and  C_13 
REMARK    5  A    between atoms: C_13  and  N_15 
REMARK       I    between atoms: N_15  and  C_16 
REMARK    6  A    between atoms: C_16  and  C_18 
REMARK    7  A    between atoms: C_18  and  C_19 
REMARK    8  A    between atoms: C_19  and  C_20 
REMARK    9  A    between atoms: C_20  and  O_21 
REMARK   10  A    between atoms: O_21  and  C_22 
ROOT
ATOM      1  C   UNL d   1      28.169 -14.086   1.638  0.00  0.00     0.178 C 
ATOM      2  S   UNL d   1      26.950 -12.918   1.799  0.00  0.00    -0.040 SA
ENDROOT
BRANCH   1   3
ATOM      3  N   UNL d   1      28.882 -14.682   2.728  0.00  0.00    -0.333 N 
ATOM      4  H   UNL d   1      29.442 -15.514   2.562  0.00  0.00     0.168 HD
BRANCH   3   5
ATOM      5  C   UNL d   1      28.767 -14.309   4.144  0.00  0.00     0.034 C 
ATOM      6  C   UNL d   1      27.751 -13.484   4.651  0.00  0.00     0.030 C 
ATOM      7  C   UNL d   1      27.781 -13.059   6.016  0.00  0.00     0.019 C 
ATOM      8  C   UNL d   1      28.800 -13.472   6.891  0.00  0.00     0.032 C 
ATOM      9  C   UNL d   1      29.759 -14.325   6.423  0.00  0.00     0.019 C 
ATOM     10  C   UNL d   1      29.679 -14.745   5.110  0.00  0.00     0.030 C 
BRANCH   8  11
ATOM     11  C   UNL d   1      28.778 -13.237   8.342  0.00  0.00     0.252 C 
ATOM     12  N   UNL d   1      29.211 -14.264   9.169  0.00  0.00    -0.349 N 
ATOM     13  H   UNL d   1      29.584 -15.114   8.757  0.00  0.00     0.163 HD
ATOM     14  O   UNL d   1      28.325 -12.156   8.730  0.00  0.00    -0.268 OA
BRANCH  12  15
ATOM     15  C   UNL d   1      29.217 -14.145  10.636  0.00  0.00     0.022 C 
ATOM     16  C   UNL d   1      27.777 -14.091  11.189  0.00  0.00     0.037 C 
ATOM     17  C   UNL d   1      29.931 -12.853  11.065  0.00  0.00     0.037 C 
ATOM     18  C   UNL d   1      29.908 -15.372  11.246  0.00  0.00     0.037 C 
ENDBRANCH  12  15
ENDBRANCH   8  11
ENDBRANCH   3   5
ENDBRANCH   1   3
BRANCH   1  19
ATOM     19  N   UNL d   1      28.516 -14.530   0.336  0.00  0.00    -0.304 N 
ATOM     20  C   UNL d   1      29.803 -15.017   0.036  0.00  0.00     0.223 C 
ATOM     21  O   UNL d   1      30.709 -15.159   0.859  0.00  0.00    -0.273 OA
ATOM     22  H   UNL d   1      27.846 -14.458  -0.418  0.00  0.00     0.171 HD
BRANCH  20  23
ATOM     23  C   UNL d   1      30.173 -15.439  -1.360  0.00  0.00     0.105 C 
BRANCH  23  24
ATOM     24  C   UNL d   1      29.450 -16.803  -1.615  0.00  0.00     0.036 C 
BRANCH  24  25
ATOM     25  C   UNL d   1      27.967 -16.619  -1.815  0.00  0.00     0.176 C 
BRANCH  25  26
ATOM     26  O   UNL d   1      27.296 -16.551  -0.558  0.00  0.00    -0.349 OA
BRANCH  26  27
ATOM     27  C   UNL d   1      25.965 -16.895  -0.560  0.00  0.00     0.090 A 
ATOM     28  C   UNL d   1      25.660 -18.023   0.228  0.00  0.00     0.040 A 
ATOM     29  C   UNL d   1      24.373 -18.575   0.230  0.00  0.00     0.026 A 
ATOM     30  C   UNL d   1      23.364 -17.963  -0.502  0.00  0.00     0.035 A 
ATOM     31 CL   UNL d   1      21.751 -18.551  -0.431  0.00  0.00    -0.084 Cl
ATOM     32  C   UNL d   1      23.644 -16.850  -1.282  0.00  0.00     0.050 A 
ATOM     33  C   UNL d   1      24.938 -16.323  -1.332  0.00  0.00     0.069 A 
ATOM     34 CL   UNL d   1      25.098 -15.007  -2.442  0.00  0.00    -0.081 Cl
ENDBRANCH  26  27
ENDBRANCH  25  26
ENDBRANCH  24  25
ENDBRANCH  23  24
ENDBRANCH  20  23
ENDBRANCH   1  19
TORSDOF 10
ENDMDL
MODEL 7
REMARK VINA RESULT:    -8.440      2.345      3.364
REMARK INTER + INTRA:         -13.937
REMARK INTER:                 -11.423
REMARK INTRA:                  -2.514
REMARK CONF_INDEPENDENT:        2.983
REMARK UNBOUND:                -2.514
REMARK  10 active torsions:
REMARK  status: ('A' for Active; 'I' for Inactive)
REMARK    1  A    between atoms: C_2  and  N_5 
REMARK       I    between atoms: N_5  and  C_6 
REMARK    2  A    between atoms: C_6  and  C_8 
REMARK    3  A    between atoms: C_11  and  N_12 
REMARK    4  A    between atoms: N_12  and  C_13 
REMARK    5  A    between atoms: C_13  and  N_15 
REMARK       I    between atoms: N_15  and  C_16 
REMARK    6  A    between atoms: C_16  and  C_18 
REMARK    7  A    between atoms: C_18  and  C_19 
REMARK    8  A    between atoms: C_19  and  C_20 
REMARK    9  A    between atoms: C_20  and  O_21 
REMARK   10  A    between atoms: O_21  and  C_22 
ROOT
ATOM      1  C   UNL d   1      27.469 -16.208  -2.106  0.00  0.00     0.178 C 
ATOM      2  S   UNL d   1      27.164 -15.290  -3.499  0.00  0.00    -0.040 SA
ENDROOT
BRANCH   1   3
ATOM      3  N   UNL d   1      26.650 -16.211  -0.931  0.00  0.00    -0.333 N 
ATOM      4  H   UNL d   1      27.036 -15.877  -0.053  0.00  0.00     0.168 HD
BRANCH   3   5
ATOM      5  C   UNL d   1      25.314 -16.810  -0.810  0.00  0.00     0.034 C 
ATOM      6  C   UNL d   1      25.091 -18.187  -0.651  0.00  0.00     0.030 C 
ATOM      7  C   UNL d   1      23.760 -18.709  -0.671  0.00  0.00     0.019 C 
ATOM      8  C   UNL d   1      22.644 -17.868  -0.818  0.00  0.00     0.032 C 
ATOM      9  C   UNL d   1      22.848 -16.520  -0.911  0.00  0.00     0.019 C 
ATOM     10  C   UNL d   1      24.143 -16.047  -0.851  0.00  0.00     0.030 C 
BRANCH   8  11
ATOM     11  C   UNL d   1      21.254 -18.314  -0.646  0.00  0.00     0.252 C 
ATOM     12  N   UNL d   1      21.027 -19.423   0.156  0.00  0.00    -0.349 N 
ATOM     13  H   UNL d   1      21.805 -19.854   0.645  0.00  0.00     0.163 HD
ATOM     14  O   UNL d   1      20.384 -17.699  -1.271  0.00  0.00    -0.268 OA
BRANCH  12  15
ATOM     15  C   UNL d   1      19.678 -19.967   0.386  0.00  0.00     0.022 C 
ATOM     16  C   UNL d   1      19.731 -21.493   0.605  0.00  0.00     0.037 C 
ATOM     17  C   UNL d   1      18.780 -19.700  -0.832  0.00  0.00     0.037 C 
ATOM     18  C   UNL d   1      19.079 -19.331   1.648  0.00  0.00     0.037 C 
ENDBRANCH  12  15
ENDBRANCH   8  11
ENDBRANCH   3   5
ENDBRANCH   1   3
BRANCH   1  19
ATOM     19  N   UNL d   1      28.609 -17.053  -2.086  0.00  0.00    -0.304 N 
ATOM     20  C   UNL d   1      29.370 -17.245  -0.916  0.00  0.00     0.223 C 
ATOM     21  O   UNL d   1      29.097 -16.762   0.185  0.00  0.00    -0.273 OA
ATOM     22  H   UNL d   1      28.922 -17.500  -2.936  0.00  0.00     0.171 HD
BRANCH  20  23
ATOM     23  C   UNL d   1      30.605 -18.104  -0.919  0.00  0.00     0.105 C 
BRANCH  23  24
ATOM     24  C   UNL d   1      31.816 -17.134  -1.115  0.00  0.00     0.036 C 
BRANCH  24  25
ATOM     25  C   UNL d   1      32.100 -16.883  -2.575  0.00  0.00     0.176 C 
BRANCH  25  26
ATOM     26  O   UNL d   1      30.885 -16.713  -3.300  0.00  0.00    -0.349 OA
BRANCH  26  27
ATOM     27  C   UNL d   1      30.776 -17.412  -4.478  0.00  0.00     0.090 A 
ATOM     28  C   UNL d   1      31.130 -18.773  -4.375  0.00  0.00     0.040 A 
ATOM     29  C   UNL d   1      31.194 -19.589  -5.511  0.00  0.00     0.026 A 
ATOM     30  C   UNL d   1      30.839 -19.070  -6.749  0.00  0.00     0.035 A 
ATOM     31 CL   UNL d   1      30.801 -20.076  -8.142  0.00  0.00    -0.084 Cl
ATOM     32  C   UNL d   1      30.485 -17.734  -6.870  0.00  0.00     0.050 A 
ATOM     33  C   UNL d   1      30.469 -16.898  -5.750  0.00  0.00     0.069 A 
ATOM     34 CL   UNL d   1      30.107 -15.250  -6.132  0.00  0.00    -0.081 Cl
ENDBRANCH  26  27
ENDBRANCH  25  26
ENDBRANCH  24  25
ENDBRANCH  23  24
ENDBRANCH  20  23
ENDBRANCH   1  19
TORSDOF 10
ENDMDL
MODEL 8
REMARK VINA RESULT:    -8.340      3.073      4.079
REMARK INTER + INTRA:         -13.651
REMARK INTER:                 -11.323
REMARK INTRA:                  -2.328
REMARK CONF_INDEPENDENT:        2.983
REMARK UNBOUND:                -2.328
REMARK  10 active torsions:
REMARK  status: ('A' for Active; 'I' for Inactive)
REMARK    1  A    between atoms: C_2  and  N_5 
REMARK       I    between atoms: N_5  and  C_6 
REMARK    2  A    between atoms: C_6  and  C_8 
REMARK    3  A    between atoms: C_11  and  N_12 
REMARK    4  A    between atoms: N_12  and  C_13 
REMARK    5  A    between atoms: C_13  and  N_15 
REMARK       I    between atoms: N_15  and  C_16 
REMARK    6  A    between atoms: C_16  and  C_18 
REMARK    7  A    between atoms: C_18  and  C_19 
REMARK    8  A    between atoms: C_19  and  C_20 
REMARK    9  A    between atoms: C_20  and  O_21 
REMARK   10  A    between atoms: O_21  and  C_22 
ROOT
ATOM      1  C   UNL d   1      27.530 -15.380   0.321  0.00  0.00     0.178 C 
ATOM      2  S   UNL d   1      26.642 -14.070   0.931  0.00  0.00    -0.040 SA
ENDROOT
BRANCH   1   3
ATOM      3  N   UNL d   1      27.066 -16.287  -0.685  0.00  0.00    -0.333 N 
ATOM      4  H   UNL d   1      27.649 -16.475  -1.496  0.00  0.00     0.168 HD
BRANCH   3   5
ATOM      5  C   UNL d   1      25.724 -16.881  -0.762  0.00  0.00     0.034 C 
ATOM      6  C   UNL d   1      24.611 -16.220  -1.303  0.00  0.00     0.030 C 
ATOM      7  C   UNL d   1      23.311 -16.811  -1.225  0.00  0.00     0.019 C 
ATOM      8  C   UNL d   1      23.114 -18.072  -0.636  0.00  0.00     0.032 C 
ATOM      9  C   UNL d   1      24.200 -18.751  -0.162  0.00  0.00     0.019 C 
ATOM     10  C   UNL d   1      25.445 -18.167  -0.288  0.00  0.00     0.030 C 
BRANCH   8  11
ATOM     11  C   UNL d   1      21.849 -18.818  -0.704  0.00  0.00     0.252 C 
ATOM     12  N   UNL d   1      21.115 -18.953   0.467  0.00  0.00    -0.349 N 
ATOM     13  H   UNL d   1      21.434 -18.489   1.312  0.00  0.00     0.163 HD
ATOM     14  O   UNL d   1      21.549 -19.320  -1.791  0.00  0.00    -0.268 OA
BRANCH  12  15
ATOM     15  C   UNL d   1      19.844 -19.692   0.519  0.00  0.00     0.022 C 
ATOM     16  C   UNL d   1      19.012 -19.446  -0.757  0.00  0.00     0.037 C 
ATOM     17  C   UNL d   1      19.005 -19.229   1.721  0.00  0.00     0.037 C 
ATOM     18  C   UNL d   1      20.132 -21.197   0.609  0.00  0.00     0.037 C 
ENDBRANCH  12  15
ENDBRANCH   8  11
ENDBRANCH   3   5
ENDBRANCH   1   3
BRANCH   1  19
ATOM     19  N   UNL d   1      28.838 -15.605   0.823  0.00  0.00    -0.304 N 
ATOM     20  C   UNL d   1      29.778 -14.563   0.940  0.00  0.00     0.223 C 
ATOM     21  O   UNL d   1      29.549 -13.380   0.682  0.00  0.00    -0.273 OA
ATOM     22  H   UNL d   1      29.132 -16.542   1.065  0.00  0.00     0.171 HD
BRANCH  20  23
ATOM     23  C   UNL d   1      31.178 -14.824   1.427  0.00  0.00     0.105 C 
BRANCH  23  24
ATOM     24  C   UNL d   1      31.926 -15.541   0.254  0.00  0.00     0.036 C 
BRANCH  24  25
ATOM     25  C   UNL d   1      31.485 -16.976   0.105  0.00  0.00     0.176 C 
BRANCH  25  26
ATOM     26  O   UNL d   1      30.254 -17.050  -0.612  0.00  0.00    -0.349 OA
BRANCH  26  27
ATOM     27  C   UNL d   1      30.327 -17.537  -1.895  0.00  0.00     0.090 A 
ATOM     28  C   UNL d   1      31.071 -18.728  -2.018  0.00  0.00     0.040 A 
ATOM     29  C   UNL d   1      31.344 -19.279  -3.276  0.00  0.00     0.026 A 
ATOM     30  C   UNL d   1      30.817 -18.684  -4.416  0.00  0.00     0.035 A 
ATOM     31 CL   UNL d   1      31.042 -19.400  -5.961  0.00  0.00    -0.084 Cl
ATOM     32  C   UNL d   1      30.080 -17.513  -4.313  0.00  0.00     0.050 A 
ATOM     33  C   UNL d   1      29.846 -16.925  -3.067  0.00  0.00     0.069 A 
ATOM     34 CL   UNL d   1      29.002 -15.420  -3.168  0.00  0.00    -0.081 Cl
ENDBRANCH  26  27
ENDBRANCH  25  26
ENDBRANCH  24  25
ENDBRANCH  23  24
ENDBRANCH  20  23
ENDBRANCH   1  19
TORSDOF 10
ENDMDL
MODEL 9
REMARK VINA RESULT:    -8.129      6.588      8.424
REMARK INTER + INTRA:         -13.809
REMARK INTER:                 -11.112
REMARK INTRA:                  -2.697
REMARK CONF_INDEPENDENT:        2.983
REMARK UNBOUND:                -2.697
REMARK  10 active torsions:
REMARK  status: ('A' for Active; 'I' for Inactive)
REMARK    1  A    between atoms: C_2  and  N_5 
REMARK       I    between atoms: N_5  and  C_6 
REMARK    2  A    between atoms: C_6  and  C_8 
REMARK    3  A    between atoms: C_11  and  N_12 
REMARK    4  A    between atoms: N_12  and  C_13 
REMARK    5  A    between atoms: C_13  and  N_15 
REMARK       I    between atoms: N_15  and  C_16 
REMARK    6  A    between atoms: C_16  and  C_18 
REMARK    7  A    between atoms: C_18  and  C_19 
REMARK    8  A    between atoms: C_19  and  C_20 
REMARK    9  A    between atoms: C_20  and  O_21 
REMARK   10  A    between atoms: O_21  and  C_22 
ROOT
ATOM      1  C   UNL d   1      27.461 -14.403   1.206  0.00  0.00     0.178 C 
ATOM      2  S   UNL d   1      27.260 -12.801   0.688  0.00  0.00    -0.040 SA
ENDROOT
BRANCH   1   3
ATOM      3  N   UNL d   1      28.389 -14.828   2.211  0.00  0.00    -0.333 N 
ATOM      4  H   UNL d   1      29.076 -15.543   1.987  0.00  0.00     0.168 HD
BRANCH   3   5
ATOM      5  C   UNL d   1      28.361 -14.448   3.631  0.00  0.00     0.034 C 
ATOM      6  C   UNL d   1      27.341 -13.677   4.210  0.00  0.00     0.030 C 
ATOM      7  C   UNL d   1      27.450 -13.239   5.566  0.00  0.00     0.019 C 
ATOM      8  C   UNL d   1      28.553 -13.587   6.364  0.00  0.00     0.032 C 
ATOM      9  C   UNL d   1      29.521 -14.390   5.828  0.00  0.00     0.019 C 
ATOM     10  C   UNL d   1      29.366 -14.825   4.527  0.00  0.00     0.030 C 
BRANCH   8  11
ATOM     11  C   UNL d   1      28.628 -13.341   7.811  0.00  0.00     0.252 C 
ATOM     12  N   UNL d   1      29.150 -14.348   8.611  0.00  0.00    -0.349 N 
ATOM     13  H   UNL d   1      29.518 -15.189   8.179  0.00  0.00     0.163 HD
ATOM     14  O   UNL d   1      28.171 -12.271   8.224  0.00  0.00    -0.268 OA
BRANCH  12  15
ATOM     15  C   UNL d   1      29.257 -14.216  10.073  0.00  0.00     0.022 C 
ATOM     16  C   UNL d   1      30.060 -12.955  10.455  0.00  0.00     0.037 C 
ATOM     17  C   UNL d   1      29.985 -15.432  10.668  0.00  0.00     0.037 C 
ATOM     18  C   UNL d   1      27.852 -14.079  10.677  0.00  0.00     0.037 C 
ENDBRANCH  12  15
ENDBRANCH   8  11
ENDBRANCH   3   5
ENDBRANCH   1   3
BRANCH   1  19
ATOM     19  N   UNL d   1      26.652 -15.412   0.624  0.00  0.00    -0.304 N 
ATOM     20  C   UNL d   1      27.157 -16.695   0.337  0.00  0.00     0.223 C 
ATOM     21  O   UNL d   1      28.298 -17.076   0.607  0.00  0.00    -0.273 OA
ATOM     22  H   UNL d   1      25.698 -15.206   0.361  0.00  0.00     0.171 HD
BRANCH  20  23
ATOM     23  C   UNL d   1      26.303 -17.741  -0.326  0.00  0.00     0.105 C 
BRANCH  23  24
ATOM     24  C   UNL d   1      24.855 -17.152  -0.390  0.00  0.00     0.036 C 
BRANCH  24  25
ATOM     25  C   UNL d   1      24.636 -16.342  -1.642  0.00  0.00     0.176 C 
BRANCH  25  26
ATOM     26  O   UNL d   1      25.573 -15.269  -1.717  0.00  0.00    -0.349 OA
BRANCH  26  27
ATOM     27  C   UNL d   1      26.346 -15.214  -2.852  0.00  0.00     0.090 A 
ATOM     28  C   UNL d   1      27.543 -15.953  -2.770  0.00  0.00     0.040 A 
ATOM     29  C   UNL d   1      28.497 -15.895  -3.794  0.00  0.00     0.026 A 
ATOM     30  C   UNL d   1      28.231 -15.154  -4.938  0.00  0.00     0.035 A 
ATOM     31 CL   UNL d   1      29.332 -15.154  -6.257  0.00  0.00    -0.084 Cl
ATOM     32  C   UNL d   1      27.056 -14.422  -5.037  0.00  0.00     0.050 A 
ATOM     33  C   UNL d   1      26.121 -14.431  -3.998  0.00  0.00     0.069 A 
ATOM     34 CL   UNL d   1      24.782 -13.372  -4.274  0.00  0.00    -0.081 Cl
ENDBRANCH  26  27
ENDBRANCH  25  26
ENDBRANCH  24  25
ENDBRANCH  23  24
ENDBRANCH  20  23
ENDBRANCH   1  19
TORSDOF 10
ENDMDL
