MODEL 1
REMARK VINA RESULT:    -8.146      0.000      0.000
REMARK INTER + INTRA:         -11.806
REMARK INTER:                 -10.234
REMARK INTRA:                  -1.572
REMARK CONF_INDEPENDENT:        2.088
REMARK UNBOUND:                -1.572
REMARK  7 active torsions:
REMARK  status: ('A' for Active; 'I' for Inactive)
REMARK    1  A    between atoms: C_2  and  S_6 
REMARK    2  A    between atoms: C_2  and  C_3 
REMARK    3  A    between atoms: S_6  and  C_7 
REMARK    4  A    between atoms: C_12  and  N_13 
REMARK       I    between atoms: N_13  and  C_14 
REMARK       I    between atoms: C_14  and  N_16 
REMARK    5  A    between atoms: N_16  and  C_17 
REMARK    6  A    between atoms: C_17  and  C_18 
REMARK    7  A    between atoms: C_23  and  O_24 
ROOT
ATOM      1  C   UNL d   1      20.853 -18.355  -0.902  0.00  0.00     0.123 C 
ATOM      2  C   UNL d   1      19.956 -19.503  -0.468  0.00  0.00    -0.019 C 
ATOM      3  N   UNL d   1      19.213 -20.456  -0.108  0.00  0.00    -0.102 N 
ENDROOT
BRANCH   1   4
ATOM      4  C   UNL d   1      22.316 -18.189  -0.311  0.00  0.00     0.060 C 
ATOM      5  C   UNL d   1      23.044 -19.325  -0.896  0.00  0.00     0.022 C 
BRANCH   4   6
ATOM      6  S   UNL d   1      22.879 -16.448  -0.579  0.00  0.00    -0.122 SA
BRANCH   6   7
ATOM      7  C   UNL d   1      24.644 -16.365  -0.906  0.00  0.00     0.027 C 
ATOM      8  C   UNL d   1      25.350 -17.222   0.001  0.00  0.00     0.021 C 
ATOM      9  C   UNL d   1      26.722 -17.443  -0.093  0.00  0.00     0.002 C 
ATOM     10  C   UNL d   1      27.396 -16.911  -1.177  0.00  0.00     0.002 C 
ATOM     11  C   UNL d   1      26.729 -16.037  -2.064  0.00  0.00     0.031 C 
ATOM     12  C   UNL d   1      25.380 -15.637  -1.876  0.00  0.00     0.053 C 
BRANCH  12  13
ATOM     13  N   UNL d   1      24.912 -14.532  -2.731  0.00  0.00    -0.308 N 
ATOM     14  C   UNL d   1      25.145 -14.414  -4.149  0.00  0.00     0.321 C 
ATOM     15  O   UNL d   1      25.492 -15.344  -4.814  0.00  0.00    -0.247 OA
ATOM     16  N   UNL d   1      25.243 -12.998  -4.583  0.00  0.00    -0.339 N 
ATOM     17  H   UNL d   1      25.042 -12.355  -3.835  0.00  0.00     0.164 HD
ATOM     18  H   UNL d   1      24.264 -13.902  -2.287  0.00  0.00     0.170 HD
BRANCH  16  19
ATOM     19  C   UNL d   1      26.441 -12.413  -5.510  0.00  0.00     0.165 C 
BRANCH  19  20
ATOM     20  C   UNL d   1      27.837 -12.915  -5.321  0.00  0.00    -0.007 A 
ATOM     21  C   UNL d   1      28.648 -11.950  -4.779  0.00  0.00     0.011 A 
ATOM     22  C   UNL d   1      29.998 -12.142  -4.743  0.00  0.00     0.001 A 
ATOM     23  C   UNL d   1      30.542 -13.361  -5.146  0.00  0.00     0.003 A 
ATOM     24  C   UNL d   1      29.736 -14.402  -5.618  0.00  0.00     0.037 A 
ATOM     25  C   UNL d   1      28.365 -14.183  -5.716  0.00  0.00     0.073 A 
BRANCH  25  26
ATOM     26  O   UNL d   1      27.564 -15.198  -6.186  0.00  0.00    -0.360 OA
ATOM     27  H   UNL d   1      27.423 -15.871  -5.486  0.00  0.00     0.217 HD
ENDBRANCH  25  26
ENDBRANCH  19  20
ENDBRANCH  16  19
ENDBRANCH  12  13
ENDBRANCH   6   7
ENDBRANCH   4   6
ENDBRANCH   1   4
TORSDOF 7
ENDMDL
MODEL 2
REMARK VINA RESULT:    -7.884      5.124      7.498
REMARK INTER + INTRA:         -11.095
REMARK INTER:                  -9.972
REMARK INTRA:                  -1.123
REMARK CONF_INDEPENDENT:        2.088
REMARK UNBOUND:                -1.123
REMARK  7 active torsions:
REMARK  status: ('A' for Active; 'I' for Inactive)
REMARK    1  A    between atoms: C_2  and  S_6 
REMARK    2  A    between atoms: C_2  and  C_3 
REMARK    3  A    between atoms: S_6  and  C_7 
REMARK    4  A    between atoms: C_12  and  N_13 
REMARK       I    between atoms: N_13  and  C_14 
REMARK       I    between atoms: C_14  and  N_16 
REMARK    5  A    between atoms: N_16  and  C_17 
REMARK    6  A    between atoms: C_17  and  C_18 
REMARK    7  A    between atoms: C_23  and  O_24 
ROOT
ATOM      1  C   UNL d   1      23.105 -18.761   0.085  0.00  0.00     0.123 C 
ATOM      2  C   UNL d   1      21.674 -19.047  -0.341  0.00  0.00    -0.019 C 
ATOM      3  N   UNL d   1      20.487 -19.285  -0.694  0.00  0.00    -0.102 N 
ENDROOT
BRANCH   1   4
ATOM      4  C   UNL d   1      24.024 -17.769  -0.746  0.00  0.00     0.060 C 
ATOM      5  C   UNL d   1      23.336 -16.477  -0.605  0.00  0.00     0.022 C 
BRANCH   4   6
ATOM      6  S   UNL d   1      25.780 -17.983  -0.207  0.00  0.00    -0.122 SA
BRANCH   6   7
ATOM      7  C   UNL d   1      26.912 -17.060  -1.253  0.00  0.00     0.027 C 
ATOM      8  C   UNL d   1      26.175 -16.305  -2.224  0.00  0.00     0.021 C 
ATOM      9  C   UNL d   1      26.787 -15.409  -3.097  0.00  0.00     0.002 C 
ATOM     10  C   UNL d   1      28.136 -15.153  -2.929  0.00  0.00     0.002 C 
ATOM     11  C   UNL d   1      28.888 -15.908  -2.003  0.00  0.00     0.031 C 
ATOM     12  C   UNL d   1      28.328 -16.967  -1.241  0.00  0.00     0.053 C 
BRANCH  12  13
ATOM     13  N   UNL d   1      29.288 -17.818  -0.518  0.00  0.00    -0.308 N 
ATOM     14  C   UNL d   1      30.507 -18.359  -1.067  0.00  0.00     0.321 C 
ATOM     15  O   UNL d   1      30.995 -17.930  -2.070  0.00  0.00    -0.247 OA
ATOM     16  N   UNL d   1      30.859 -19.668  -0.464  0.00  0.00    -0.339 N 
ATOM     17  H   UNL d   1      30.240 -19.920   0.290  0.00  0.00     0.164 HD
ATOM     18  H   UNL d   1      29.121 -17.893   0.472  0.00  0.00     0.170 HD
BRANCH  16  19
ATOM     19  C   UNL d   1      31.251 -20.989  -1.324  0.00  0.00     0.165 C 
BRANCH  19  20
ATOM     20  C   UNL d   1      30.780 -22.334  -0.871  0.00  0.00    -0.007 A 
ATOM     21  C   UNL d   1      30.781 -23.239  -1.902  0.00  0.00     0.011 A 
ATOM     22  C   UNL d   1      30.174 -24.451  -1.740  0.00  0.00     0.001 A 
ATOM     23  C   UNL d   1      29.660 -24.815  -0.497  0.00  0.00     0.003 A 
ATOM     24  C   UNL d   1      29.724 -23.953   0.603  0.00  0.00     0.037 A 
ATOM     25  C   UNL d   1      30.285 -22.692   0.421  0.00  0.00     0.073 A 
BRANCH  25  26
ATOM     26  O   UNL d   1      30.347 -21.833   1.495  0.00  0.00    -0.360 OA
ATOM     27  H   UNL d   1      29.600 -21.199   1.467  0.00  0.00     0.217 HD
ENDBRANCH  25  26
ENDBRANCH  19  20
ENDBRANCH  16  19
ENDBRANCH  12  13
ENDBRANCH   6   7
ENDBRANCH   4   6
ENDBRANCH   1   4
TORSDOF 7
ENDMDL
MODEL 3
REMARK VINA RESULT:    -7.554      2.402      3.362
REMARK INTER + INTRA:         -10.731
REMARK INTER:                  -9.642
REMARK INTRA:                  -1.089
REMARK CONF_INDEPENDENT:        2.088
REMARK UNBOUND:                -1.089
REMARK  7 active torsions:
REMARK  status: ('A' for Active; 'I' for Inactive)
REMARK    1  A    between atoms: C_2  and  S_6 
REMARK    2  A    between atoms: C_2  and  C_3 
REMARK    3  A    between atoms: S_6  and  C_7 
REMARK    4  A    between atoms: C_12  and  N_13 
REMARK       I    between atoms: N_13  and  C_14 
REMARK       I    between atoms: C_14  and  N_16 
REMARK    5  A    between atoms: N_16  and  C_17 
REMARK    6  A    between atoms: C_17  and  C_18 
REMARK    7  A    between atoms: C_23  and  O_24 
ROOT
ATOM      1  C   UNL d   1      22.175 -18.935  -1.276  0.00  0.00     0.123 C 
ATOM      2  C   UNL d   1      20.727 -19.040  -0.825  0.00  0.00    -0.019 C 
ATOM      3  N   UNL d   1      19.526 -19.128  -0.450  0.00  0.00    -0.102 N 
ENDROOT
BRANCH   1   4
ATOM      4  C   UNL d   1      23.127 -17.797  -0.714  0.00  0.00     0.060 C 
ATOM      5  C   UNL d   1      23.551 -18.328   0.591  0.00  0.00     0.022 C 
BRANCH   4   6
ATOM      6  S   UNL d   1      24.364 -17.353  -2.015  0.00  0.00    -0.122 SA
BRANCH   6   7
ATOM      7  C   UNL d   1      25.786 -16.505  -1.316  0.00  0.00     0.027 C 
ATOM      8  C   UNL d   1      26.533 -17.406  -0.488  0.00  0.00     0.021 C 
ATOM      9  C   UNL d   1      27.748 -17.053   0.095  0.00  0.00     0.002 C 
ATOM     10  C   UNL d   1      28.305 -15.834  -0.245  0.00  0.00     0.002 C 
ATOM     11  C   UNL d   1      27.573 -14.917  -1.032  0.00  0.00     0.031 C 
ATOM     12  C   UNL d   1      26.248 -15.172  -1.473  0.00  0.00     0.053 C 
BRANCH  12  13
ATOM     13  N   UNL d   1      25.532 -14.026  -2.058  0.00  0.00    -0.308 N 
ATOM     14  C   UNL d   1      25.167 -13.887  -3.447  0.00  0.00     0.321 C 
ATOM     15  O   UNL d   1      25.158 -14.817  -4.196  0.00  0.00    -0.247 OA
ATOM     16  N   UNL d   1      25.157 -12.468  -3.881  0.00  0.00    -0.339 N 
ATOM     17  H   UNL d   1      25.318 -11.833  -3.117  0.00  0.00     0.164 HD
ATOM     18  H   UNL d   1      25.161 -13.374  -1.386  0.00  0.00     0.170 HD
BRANCH  16  19
ATOM     19  C   UNL d   1      25.898 -11.923  -5.220  0.00  0.00     0.165 C 
BRANCH  19  20
ATOM     20  C   UNL d   1      25.785 -10.479  -5.593  0.00  0.00    -0.007 A 
ATOM     21  C   UNL d   1      26.251 -10.252  -6.864  0.00  0.00     0.011 A 
ATOM     22  C   UNL d   1      26.440  -8.972  -7.297  0.00  0.00     0.001 A 
ATOM     23  C   UNL d   1      26.051  -7.898  -6.498  0.00  0.00     0.003 A 
ATOM     24  C   UNL d   1      25.486  -8.094  -5.232  0.00  0.00     0.037 A 
ATOM     25  C   UNL d   1      25.354  -9.399  -4.764  0.00  0.00     0.073 A 
BRANCH  25  26
ATOM     26  O   UNL d   1      24.806  -9.602  -3.518  0.00  0.00    -0.360 OA
ATOM     27  H   UNL d   1      24.421  -8.768  -3.175  0.00  0.00     0.217 HD
ENDBRANCH  25  26
ENDBRANCH  19  20
ENDBRANCH  16  19
ENDBRANCH  12  13
ENDBRANCH   6   7
ENDBRANCH   4   6
ENDBRANCH   1   4
TORSDOF 7
ENDMDL
MODEL 4
REMARK VINA RESULT:    -7.462      2.646      4.528
REMARK INTER + INTRA:         -11.014
REMARK INTER:                  -9.550
REMARK INTRA:                  -1.463
REMARK CONF_INDEPENDENT:        2.088
REMARK UNBOUND:                -1.463
REMARK  7 active torsions:
REMARK  status: ('A' for Active; 'I' for Inactive)
REMARK    1  A    between atoms: C_2  and  S_6 
REMARK    2  A    between atoms: C_2  and  C_3 
REMARK    3  A    between atoms: S_6  and  C_7 
REMARK    4  A    between atoms: C_12  and  N_13 
REMARK       I    between atoms: N_13  and  C_14 
REMARK       I    between atoms: C_14  and  N_16 
REMARK    5  A    between atoms: N_16  and  C_17 
REMARK    6  A    between atoms: C_17  and  C_18 
REMARK    7  A    between atoms: C_23  and  O_24 
ROOT
ATOM      1  C   UNL d   1      28.724 -15.561   0.265  0.00  0.00     0.123 C 
ATOM      2  C   UNL d   1      27.661 -14.587   0.746  0.00  0.00    -0.019 C 
ATOM      3  N   UNL d   1      26.780 -13.778   1.145  0.00  0.00    -0.102 N 
ENDROOT
BRANCH   1   4
ATOM      4  C   UNL d   1      28.343 -16.804  -0.646  0.00  0.00     0.060 C 
ATOM      5  C   UNL d   1      29.651 -17.384  -0.985  0.00  0.00     0.022 C 
BRANCH   4   6
ATOM      6  S   UNL d   1      27.046 -17.803   0.213  0.00  0.00    -0.122 SA
BRANCH   6   7
ATOM      7  C   UNL d   1      25.404 -17.442  -0.419  0.00  0.00     0.027 C 
ATOM      8  C   UNL d   1      24.545 -18.574  -0.224  0.00  0.00     0.021 C 
ATOM      9  C   UNL d   1      23.184 -18.540  -0.518  0.00  0.00     0.002 C 
ATOM     10  C   UNL d   1      22.627 -17.330  -0.892  0.00  0.00     0.002 C 
ATOM     11  C   UNL d   1      23.458 -16.212  -1.123  0.00  0.00     0.031 C 
ATOM     12  C   UNL d   1      24.873 -16.273  -1.024  0.00  0.00     0.053 C 
BRANCH  12  13
ATOM     13  N   UNL d   1      25.605 -15.104  -1.540  0.00  0.00    -0.308 N 
ATOM     14  C   UNL d   1      25.347 -14.441  -2.795  0.00  0.00     0.321 C 
ATOM     15  O   UNL d   1      24.328 -14.600  -3.397  0.00  0.00    -0.247 OA
ATOM     16  N   UNL d   1      26.579 -13.856  -3.380  0.00  0.00    -0.339 N 
ATOM     17  H   UNL d   1      27.372 -13.941  -2.765  0.00  0.00     0.164 HD
ATOM     18  H   UNL d   1      26.233 -14.676  -0.879  0.00  0.00     0.170 HD
BRANCH  16  19
ATOM     19  C   UNL d   1      27.046 -14.078  -4.920  0.00  0.00     0.165 C 
BRANCH  19  20
ATOM     20  C   UNL d   1      28.180 -15.005  -5.224  0.00  0.00    -0.007 A 
ATOM     21  C   UNL d   1      28.537 -15.739  -4.122  0.00  0.00     0.011 A 
ATOM     22  C   UNL d   1      29.689 -16.469  -4.140  0.00  0.00     0.001 A 
ATOM     23  C   UNL d   1      30.440 -16.565  -5.310  0.00  0.00     0.003 A 
ATOM     24  C   UNL d   1      30.056 -15.903  -6.482  0.00  0.00     0.037 A 
ATOM     25  C   UNL d   1      28.915 -15.105  -6.446  0.00  0.00     0.073 A 
BRANCH  25  26
ATOM     26  O   UNL d   1      28.533 -14.444  -7.590  0.00  0.00    -0.360 OA
ATOM     27  H   UNL d   1      29.114 -14.696  -8.339  0.00  0.00     0.217 HD
ENDBRANCH  25  26
ENDBRANCH  19  20
ENDBRANCH  16  19
ENDBRANCH  12  13
ENDBRANCH   6   7
ENDBRANCH   4   6
ENDBRANCH   1   4
TORSDOF 7
ENDMDL
MODEL 5
REMARK VINA RESULT:    -7.111      4.045      5.508
REMARK INTER + INTRA:         -10.695
REMARK INTER:                  -9.199
REMARK INTRA:                  -1.496
REMARK CONF_INDEPENDENT:        2.088
REMARK UNBOUND:                -1.496
REMARK  7 active torsions:
REMARK  status: ('A' for Active; 'I' for Inactive)
REMARK    1  A    between atoms: C_2  and  S_6 
REMARK    2  A    between atoms: C_2  and  C_3 
REMARK    3  A    between atoms: S_6  and  C_7 
REMARK    4  A    between atoms: C_12  and  N_13 
REMARK       I    between atoms: N_13  and  C_14 
REMARK       I    between atoms: C_14  and  N_16 
REMARK    5  A    between atoms: N_16  and  C_17 
REMARK    6  A    between atoms: C_17  and  C_18 
REMARK    7  A    between atoms: C_23  and  O_24 
ROOT
ATOM      1  C   UNL d   1      22.706 -18.922  -0.127  0.00  0.00     0.123 C 
ATOM      2  C   UNL d   1      21.226 -19.129  -0.409  0.00  0.00    -0.019 C 
ATOM      3  N   UNL d   1      19.999 -19.302  -0.642  0.00  0.00    -0.102 N 
ENDROOT
BRANCH   1   4
ATOM      4  C   UNL d   1      23.517 -17.753  -0.830  0.00  0.00     0.060 C 
ATOM      5  C   UNL d   1      22.717 -16.558  -0.524  0.00  0.00     0.022 C 
BRANCH   4   6
ATOM      6  S   UNL d   1      25.294 -17.870  -0.331  0.00  0.00    -0.122 SA
BRANCH   6   7
ATOM      7  C   UNL d   1      26.323 -16.738  -1.271  0.00  0.00     0.027 C 
ATOM      8  C   UNL d   1      25.520 -16.017  -2.216  0.00  0.00     0.021 C 
ATOM      9  C   UNL d   1      26.034 -14.990  -3.005  0.00  0.00     0.002 C 
ATOM     10  C   UNL d   1      27.332 -14.575  -2.771  0.00  0.00     0.002 C 
ATOM     11  C   UNL d   1      28.151 -15.291  -1.871  0.00  0.00     0.031 C 
ATOM     12  C   UNL d   1      27.714 -16.464  -1.203  0.00  0.00     0.053 C 
BRANCH  12  13
ATOM     13  N   UNL d   1      28.757 -17.234  -0.504  0.00  0.00    -0.308 N 
ATOM     14  C   UNL d   1      30.167 -17.204  -0.809  0.00  0.00     0.321 C 
ATOM     15  O   UNL d   1      30.654 -16.334  -1.468  0.00  0.00    -0.247 OA
ATOM     16  N   UNL d   1      30.828 -18.501  -0.522  0.00  0.00    -0.339 N 
ATOM     17  H   UNL d   1      30.205 -19.157  -0.079  0.00  0.00     0.164 HD
ATOM     18  H   UNL d   1      28.447 -17.697   0.336  0.00  0.00     0.170 HD
BRANCH  16  19
ATOM     19  C   UNL d   1      31.798 -19.277  -1.568  0.00  0.00     0.165 C 
BRANCH  19  20
ATOM     20  C   UNL d   1      31.272 -19.678  -2.909  0.00  0.00    -0.007 A 
ATOM     21  C   UNL d   1      31.158 -21.041  -3.016  0.00  0.00     0.011 A 
ATOM     22  C   UNL d   1      30.912 -21.606  -4.234  0.00  0.00     0.001 A 
ATOM     23  C   UNL d   1      30.662 -20.799  -5.342  0.00  0.00     0.003 A 
ATOM     24  C   UNL d   1      30.679 -19.403  -5.251  0.00  0.00     0.037 A 
ATOM     25  C   UNL d   1      30.993 -18.826  -4.023  0.00  0.00     0.073 A 
BRANCH  25  26
ATOM     26  O   UNL d   1      31.019 -17.454  -3.923  0.00  0.00    -0.360 OA
ATOM     27  H   UNL d   1      30.666 -17.169  -3.054  0.00  0.00     0.217 HD
ENDBRANCH  25  26
ENDBRANCH  19  20
ENDBRANCH  16  19
ENDBRANCH  12  13
ENDBRANCH   6   7
ENDBRANCH   4   6
ENDBRANCH   1   4
TORSDOF 7
ENDMDL
MODEL 6
REMARK VINA RESULT:    -6.510      3.192      5.929
REMARK INTER + INTRA:         -10.975
REMARK INTER:                  -8.598
REMARK INTRA:                  -2.377
REMARK CONF_INDEPENDENT:        2.088
REMARK UNBOUND:                -2.377
REMARK  7 active torsions:
REMARK  status: ('A' for Active; 'I' for Inactive)
REMARK    1  A    between atoms: C_2  and  S_6 
REMARK    2  A    between atoms: C_2  and  C_3 
REMARK    3  A    between atoms: S_6  and  C_7 
REMARK    4  A    between atoms: C_12  and  N_13 
REMARK       I    between atoms: N_13  and  C_14 
REMARK       I    between atoms: C_14  and  N_16 
REMARK    5  A    between atoms: N_16  and  C_17 
REMARK    6  A    between atoms: C_17  and  C_18 
REMARK    7  A    between atoms: C_23  and  O_24 
ROOT
ATOM      1  C   UNL d   1      26.807 -13.475  -4.050  0.00  0.00     0.123 C 
ATOM      2  C   UNL d   1      27.339 -14.178  -5.288  0.00  0.00    -0.019 C 
ATOM      3  N   UNL d   1      27.781 -14.762  -6.315  0.00  0.00    -0.102 N 
ENDROOT
BRANCH   1   4
ATOM      4  C   UNL d   1      25.870 -14.231  -3.017  0.00  0.00     0.060 C 
ATOM      5  C   UNL d   1      24.520 -13.988  -3.548  0.00  0.00     0.022 C 
BRANCH   4   6
ATOM      6  S   UNL d   1      26.508 -15.949  -2.772  0.00  0.00    -0.122 SA
BRANCH   6   7
ATOM      7  C   UNL d   1      25.681 -16.777  -1.409  0.00  0.00     0.027 C 
ATOM      8  C   UNL d   1      24.260 -16.699  -1.580  0.00  0.00     0.021 C 
ATOM      9  C   UNL d   1      23.368 -17.351  -0.732  0.00  0.00     0.002 C 
ATOM     10  C   UNL d   1      23.883 -18.200   0.230  0.00  0.00     0.002 C 
ATOM     11  C   UNL d   1      25.279 -18.266   0.439  0.00  0.00     0.031 C 
ATOM     12  C   UNL d   1      26.201 -17.460  -0.279  0.00  0.00     0.053 C 
BRANCH  12  13
ATOM     13  N   UNL d   1      27.584 -17.457   0.228  0.00  0.00    -0.308 N 
ATOM     14  C   UNL d   1      28.596 -16.485  -0.105  0.00  0.00     0.321 C 
ATOM     15  O   UNL d   1      28.324 -15.431  -0.597  0.00  0.00    -0.247 OA
ATOM     16  N   UNL d   1      29.959 -17.073  -0.095  0.00  0.00    -0.339 N 
ATOM     17  H   UNL d   1      29.961 -18.026   0.230  0.00  0.00     0.164 HD
ATOM     18  H   UNL d   1      27.761 -18.115   0.970  0.00  0.00     0.170 HD
BRANCH  16  19
ATOM     19  C   UNL d   1      31.034 -16.894  -1.298  0.00  0.00     0.165 C 
BRANCH  19  20
ATOM     20  C   UNL d   1      30.626 -17.188  -2.706  0.00  0.00    -0.007 A 
ATOM     21  C   UNL d   1      31.070 -18.421  -3.111  0.00  0.00     0.011 A 
ATOM     22  C   UNL d   1      30.993 -18.771  -4.427  0.00  0.00     0.001 A 
ATOM     23  C   UNL d   1      30.359 -17.928  -5.339  0.00  0.00     0.003 A 
ATOM     24  C   UNL d   1      29.811 -16.703  -4.945  0.00  0.00     0.037 A 
ATOM     25  C   UNL d   1      29.948 -16.316  -3.614  0.00  0.00     0.073 A 
BRANCH  25  26
ATOM     26  O   UNL d   1      29.419 -15.110  -3.217  0.00  0.00    -0.360 OA
ATOM     27  H   UNL d   1      29.105 -15.164  -2.289  0.00  0.00     0.217 HD
ENDBRANCH  25  26
ENDBRANCH  19  20
ENDBRANCH  16  19
ENDBRANCH  12  13
ENDBRANCH   6   7
ENDBRANCH   4   6
ENDBRANCH   1   4
TORSDOF 7
ENDMDL
MODEL 7
REMARK VINA RESULT:    -6.204      2.412      4.715
REMARK INTER + INTRA:         -10.712
REMARK INTER:                  -8.292
REMARK INTRA:                  -2.419
REMARK CONF_INDEPENDENT:        2.088
REMARK UNBOUND:                -2.419
REMARK  7 active torsions:
REMARK  status: ('A' for Active; 'I' for Inactive)
REMARK    1  A    between atoms: C_2  and  S_6 
REMARK    2  A    between atoms: C_2  and  C_3 
REMARK    3  A    between atoms: S_6  and  C_7 
REMARK    4  A    between atoms: C_12  and  N_13 
REMARK       I    between atoms: N_13  and  C_14 
REMARK       I    between atoms: C_14  and  N_16 
REMARK    5  A    between atoms: N_16  and  C_17 
REMARK    6  A    between atoms: C_17  and  C_18 
REMARK    7  A    between atoms: C_23  and  O_24 
ROOT
ATOM      1  C   UNL d   1      28.961 -14.983   0.084  0.00  0.00     0.123 C 
ATOM      2  C   UNL d   1      30.058 -16.006  -0.158  0.00  0.00    -0.019 C 
ATOM      3  N   UNL d   1      30.969 -16.855  -0.359  0.00  0.00    -0.102 N 
ENDROOT
BRANCH   1   4
ATOM      4  C   UNL d   1      27.469 -15.436   0.378  0.00  0.00     0.060 C 
ATOM      5  C   UNL d   1      26.736 -14.162   0.433  0.00  0.00     0.022 C 
BRANCH   4   6
ATOM      6  S   UNL d   1      26.996 -16.762  -0.821  0.00  0.00    -0.122 SA
BRANCH   6   7
ATOM      7  C   UNL d   1      25.215 -16.985  -0.896  0.00  0.00     0.027 C 
ATOM      8  C   UNL d   1      24.857 -18.248  -0.320  0.00  0.00     0.021 C 
ATOM      9  C   UNL d   1      23.531 -18.639  -0.141  0.00  0.00     0.002 C 
ATOM     10  C   UNL d   1      22.537 -17.719  -0.417  0.00  0.00     0.002 C 
ATOM     11  C   UNL d   1      22.864 -16.483  -1.016  0.00  0.00     0.031 C 
ATOM     12  C   UNL d   1      24.189 -16.140  -1.393  0.00  0.00     0.053 C 
BRANCH  12  13
ATOM     13  N   UNL d   1      24.329 -14.938  -2.232  0.00  0.00    -0.308 N 
ATOM     14  C   UNL d   1      25.154 -14.829  -3.410  0.00  0.00     0.321 C 
ATOM     15  O   UNL d   1      25.577 -15.792  -3.978  0.00  0.00    -0.247 OA
ATOM     16  N   UNL d   1      25.676 -13.453  -3.601  0.00  0.00    -0.339 N 
ATOM     17  H   UNL d   1      25.297 -12.804  -2.931  0.00  0.00     0.164 HD
ATOM     18  H   UNL d   1      23.678 -14.199  -2.020  0.00  0.00     0.170 HD
BRANCH  16  19
ATOM     19  C   UNL d   1      27.236 -13.105  -3.888  0.00  0.00     0.165 C 
BRANCH  19  20
ATOM     20  C   UNL d   1      28.206 -14.213  -4.153  0.00  0.00    -0.007 A 
ATOM     21  C   UNL d   1      29.224 -14.219  -3.233  0.00  0.00     0.011 A 
ATOM     22  C   UNL d   1      30.318 -15.006  -3.440  0.00  0.00     0.001 A 
ATOM     23  C   UNL d   1      30.352 -15.889  -4.519  0.00  0.00     0.003 A 
ATOM     24  C   UNL d   1      29.290 -15.977  -5.426  0.00  0.00     0.037 A 
ATOM     25  C   UNL d   1      28.201 -15.127  -5.252  0.00  0.00     0.073 A 
BRANCH  25  26
ATOM     26  O   UNL d   1      27.155 -15.200  -6.142  0.00  0.00    -0.360 OA
ATOM     27  H   UNL d   1      26.303 -15.049  -5.680  0.00  0.00     0.217 HD
ENDBRANCH  25  26
ENDBRANCH  19  20
ENDBRANCH  16  19
ENDBRANCH  12  13
ENDBRANCH   6   7
ENDBRANCH   4   6
ENDBRANCH   1   4
TORSDOF 7
ENDMDL
MODEL 8
REMARK VINA RESULT:    -6.194      2.381      4.232
REMARK INTER + INTRA:         -10.887
REMARK INTER:                  -8.282
REMARK INTRA:                  -2.604
REMARK CONF_INDEPENDENT:        2.088
REMARK UNBOUND:                -2.604
REMARK  7 active torsions:
REMARK  status: ('A' for Active; 'I' for Inactive)
REMARK    1  A    between atoms: C_2  and  S_6 
REMARK    2  A    between atoms: C_2  and  C_3 
REMARK    3  A    between atoms: S_6  and  C_7 
REMARK    4  A    between atoms: C_12  and  N_13 
REMARK       I    between atoms: N_13  and  C_14 
REMARK       I    between atoms: C_14  and  N_16 
REMARK    5  A    between atoms: N_16  and  C_17 
REMARK    6  A    between atoms: C_17  and  C_18 
REMARK    7  A    between atoms: C_23  and  O_24 
ROOT
ATOM      1  C   UNL d   1      27.167 -13.681  -0.610  0.00  0.00     0.123 C 
ATOM      2  C   UNL d   1      26.678 -13.020   0.668  0.00  0.00    -0.019 C 
ATOM      3  N   UNL d   1      26.272 -12.472   1.729  0.00  0.00    -0.102 N 
ENDROOT
BRANCH   1   4
ATOM      4  C   UNL d   1      28.057 -14.994  -0.565  0.00  0.00     0.060 C 
ATOM      5  C   UNL d   1      28.111 -15.314   0.869  0.00  0.00     0.022 C 
BRANCH   4   6
ATOM      6  S   UNL d   1      27.397 -16.209  -1.793  0.00  0.00    -0.122 SA
BRANCH   6   7
ATOM      7  C   UNL d   1      25.656 -16.552  -1.518  0.00  0.00     0.027 C 
ATOM      8  C   UNL d   1      25.505 -17.821  -0.866  0.00  0.00     0.021 C 
ATOM      9  C   UNL d   1      24.270 -18.294  -0.428  0.00  0.00     0.002 C 
ATOM     10  C   UNL d   1      23.178 -17.450  -0.517  0.00  0.00     0.002 C 
ATOM     11  C   UNL d   1      23.295 -16.212  -1.186  0.00  0.00     0.031 C 
ATOM     12  C   UNL d   1      24.495 -15.792  -1.818  0.00  0.00     0.053 C 
BRANCH  12  13
ATOM     13  N   UNL d   1      24.386 -14.606  -2.684  0.00  0.00    -0.308 N 
ATOM     14  C   UNL d   1      25.022 -14.445  -3.969  0.00  0.00     0.321 C 
ATOM     15  O   UNL d   1      25.463 -15.373  -4.578  0.00  0.00    -0.247 OA
ATOM     16  N   UNL d   1      25.360 -13.028  -4.251  0.00  0.00    -0.339 N 
ATOM     17  H   UNL d   1      25.011 -12.403  -3.542  0.00  0.00     0.164 HD
ATOM     18  H   UNL d   1      23.695 -13.934  -2.392  0.00  0.00     0.170 HD
BRANCH  16  19
ATOM     19  C   UNL d   1      26.818 -12.526  -4.761  0.00  0.00     0.165 C 
BRANCH  19  20
ATOM     20  C   UNL d   1      28.015 -13.397  -4.555  0.00  0.00    -0.007 A 
ATOM     21  C   UNL d   1      28.870 -12.862  -3.624  0.00  0.00     0.011 A 
ATOM     22  C   UNL d   1      30.118 -13.392  -3.467  0.00  0.00     0.001 A 
ATOM     23  C   UNL d   1      30.481 -14.545  -4.163  0.00  0.00     0.003 A 
ATOM     24  C   UNL d   1      29.601 -15.172  -5.051  0.00  0.00     0.037 A 
ATOM     25  C   UNL d   1      28.352 -14.594  -5.261  0.00  0.00     0.073 A 
BRANCH  25  26
ATOM     26  O   UNL d   1      27.481 -15.198  -6.138  0.00  0.00    -0.360 OA
ATOM     27  H   UNL d   1      26.823 -15.736  -5.648  0.00  0.00     0.217 HD
ENDBRANCH  25  26
ENDBRANCH  19  20
ENDBRANCH  16  19
ENDBRANCH  12  13
ENDBRANCH   6   7
ENDBRANCH   4   6
ENDBRANCH   1   4
TORSDOF 7
ENDMDL
MODEL 9
REMARK VINA RESULT:    -6.145      3.243      5.561
REMARK INTER + INTRA:         -10.910
REMARK INTER:                  -8.233
REMARK INTRA:                  -2.676
REMARK CONF_INDEPENDENT:        2.088
REMARK UNBOUND:                -2.676
REMARK  7 active torsions:
REMARK  status: ('A' for Active; 'I' for Inactive)
REMARK    1  A    between atoms: C_2  and  S_6 
REMARK    2  A    between atoms: C_2  and  C_3 
REMARK    3  A    between atoms: S_6  and  C_7 
REMARK    4  A    between atoms: C_12  and  N_13 
REMARK       I    between atoms: N_13  and  C_14 
REMARK       I    between atoms: C_14  and  N_16 
REMARK    5  A    between atoms: N_16  and  C_17 
REMARK    6  A    between atoms: C_17  and  C_18 
REMARK    7  A    between atoms: C_23  and  O_24 
ROOT
ATOM      1  C   UNL d   1      26.463 -13.148  -2.289  0.00  0.00     0.123 C 
ATOM      2  C   UNL d   1      26.658 -13.126  -0.781  0.00  0.00    -0.019 C 
ATOM      3  N   UNL d   1      26.820 -13.108   0.469  0.00  0.00    -0.102 N 
ENDROOT
BRANCH   1   4
ATOM      4  C   UNL d   1      25.515 -14.218  -2.977  0.00  0.00     0.060 C 
ATOM      5  C   UNL d   1      25.313 -13.669  -4.326  0.00  0.00     0.022 C 
BRANCH   4   6
ATOM      6  S   UNL d   1      26.230 -15.904  -2.726  0.00  0.00    -0.122 SA
BRANCH   6   7
ATOM      7  C   UNL d   1      25.410 -16.781  -1.389  0.00  0.00     0.027 C 
ATOM      8  C   UNL d   1      23.993 -16.584  -1.473  0.00  0.00     0.021 C 
ATOM      9  C   UNL d   1      23.096 -17.237  -0.631  0.00  0.00     0.002 C 
ATOM     10  C   UNL d   1      23.591 -18.200   0.229  0.00  0.00     0.002 C 
ATOM     11  C   UNL d   1      24.985 -18.387   0.353  0.00  0.00     0.031 C 
ATOM     12  C   UNL d   1      25.931 -17.594  -0.348  0.00  0.00     0.053 C 
BRANCH  12  13
ATOM     13  N   UNL d   1      27.333 -17.736   0.078  0.00  0.00    -0.308 N 
ATOM     14  C   UNL d   1      28.374 -16.758  -0.125  0.00  0.00     0.321 C 
ATOM     15  O   UNL d   1      28.130 -15.622  -0.402  0.00  0.00    -0.247 OA
ATOM     16  N   UNL d   1      29.707 -17.389  -0.292  0.00  0.00    -0.339 N 
ATOM     17  H   UNL d   1      29.679 -18.385  -0.146  0.00  0.00     0.164 HD
ATOM     18  H   UNL d   1      27.512 -18.525   0.678  0.00  0.00     0.170 HD
BRANCH  16  19
ATOM     19  C   UNL d   1      30.736 -17.033  -1.497  0.00  0.00     0.165 C 
BRANCH  19  20
ATOM     20  C   UNL d   1      30.201 -16.701  -2.853  0.00  0.00    -0.007 A 
ATOM     21  C   UNL d   1      30.404 -17.730  -3.738  0.00  0.00     0.011 A 
ATOM     22  C   UNL d   1      30.191 -17.528  -5.071  0.00  0.00     0.001 A 
ATOM     23  C   UNL d   1      29.657 -16.321  -5.520  0.00  0.00     0.003 A 
ATOM     24  C   UNL d   1      29.352 -15.282  -4.635  0.00  0.00     0.037 A 
ATOM     25  C   UNL d   1      29.630 -15.463  -3.283  0.00  0.00     0.073 A 
BRANCH  25  26
ATOM     26  O   UNL d   1      29.339 -14.444  -2.404  0.00  0.00    -0.360 OA
ATOM     27  H   UNL d   1      28.529 -14.656  -1.894  0.00  0.00     0.217 HD
ENDBRANCH  25  26
ENDBRANCH  19  20
ENDBRANCH  16  19
ENDBRANCH  12  13
ENDBRANCH   6   7
ENDBRANCH   4   6
ENDBRANCH   1   4
TORSDOF 7
ENDMDL
