MODEL 1
REMARK VINA RESULT:   -32.258      0.000      0.000
REMARK INTER + INTRA:         -33.727
REMARK INTER:                 -33.153
REMARK INTRA:                  -0.574
REMARK CONF_INDEPENDENT:        0.895
REMARK UNBOUND:                -0.574
REMARK  3 active torsions:
REMARK  status: ('A' for Active; 'I' for Inactive)
REMARK    1  A    between atoms: C_2  and  C_4 
REMARK    2  A    between atoms: C_6  and  C_7 
REMARK       I    between atoms: C_7  and  N_9 
REMARK    3  A    between atoms: N_9  and  C_10 
ROOT
ATOM      1  C   UNL d   1      23.054 -18.530  -1.100  0.00  0.00     0.282 C 
ATOM      2  O   UNL d   1      23.462 -18.717  -2.249  0.00  0.00    -0.265 OA
ATOM      3  N   UNL d   1      23.853 -17.982  -0.088  0.00  0.00    -0.320 N 
ATOM      4  H   UNL d   1      23.577 -18.096   0.878  0.00  0.00     0.169 HD
ENDROOT
BRANCH   3   5
ATOM      5  C   UNL d   1      25.189 -17.581  -0.326  0.00  0.00     0.047 A 
ATOM      6  C   UNL d   1      26.229 -18.198   0.384  0.00  0.00     0.030 A 
ATOM      7  C   UNL d   1      27.548 -17.781   0.249  0.00  0.00     0.005 A 
ATOM      8  C   UNL d   1      27.880 -16.721  -0.594  0.00  0.00     0.030 A 
ATOM      9  C   UNL d   1      26.851 -16.148  -1.351  0.00  0.00     0.044 A 
ATOM     10  N   UNL d   1      26.902 -15.113  -2.260  0.00  0.00    -0.365 N 
ATOM     11  C   UNL d   1      25.518 -16.573  -1.266  0.00  0.00     0.019 A 
ATOM     12  C   UNL d   1      25.663 -14.900  -2.799  0.00  0.00     0.089 A 
ATOM     13  H   UNL d   1      27.741 -14.597  -2.495  0.00  0.00     0.165 HD
ATOM     14  C   UNL d   1      24.784 -15.765  -2.186  0.00  0.00     0.033 A 
ENDBRANCH   3   5
BRANCH   1  15
ATOM     15  C   UNL d   1      21.720 -18.912  -0.701  0.00  0.00     0.171 A 
ATOM     16  C   UNL d   1      21.169 -19.284   0.499  0.00  0.00     0.075 A 
ATOM     17  C   UNL d   1      19.809 -19.559   0.222  0.00  0.00     0.068 A 
ATOM     18  N   UNL d   1      19.530 -19.325  -1.066  0.00  0.00    -0.132 NA
ATOM     19  O   UNL d   1      20.732 -18.938  -1.647  0.00  0.00    -0.207 OA
BRANCH  17  20
ATOM     20  C   UNL d   1      18.765 -20.070   1.179  0.00  0.00     0.032 C 
ATOM     21  C   UNL d   1      18.026 -21.288   0.618  0.00  0.00     0.016 C 
ATOM     22  C   UNL d   1      19.399 -20.456   2.524  0.00  0.00     0.016 C 
ENDBRANCH  17  20
ENDBRANCH   1  15
TORSDOF 3
ENDMDL
MODEL 2
REMARK VINA RESULT:   -32.047      0.923      2.156
REMARK INTER + INTRA:         -33.415
REMARK INTER:                 -32.942
REMARK INTRA:                  -0.473
REMARK CONF_INDEPENDENT:        0.895
REMARK UNBOUND:                -0.473
REMARK  3 active torsions:
REMARK  status: ('A' for Active; 'I' for Inactive)
REMARK    1  A    between atoms: C_2  and  C_4 
REMARK    2  A    between atoms: C_6  and  C_7 
REMARK       I    between atoms: C_7  and  N_9 
REMARK    3  A    between atoms: N_9  and  C_10 
ROOT
ATOM      1  C   UNL d   1      23.039 -18.498  -0.837  0.00  0.00     0.282 C 
ATOM      2  O   UNL d   1      23.956 -19.322  -0.900  0.00  0.00    -0.265 OA
ATOM      3  N   UNL d   1      23.240 -17.121  -0.998  0.00  0.00    -0.320 N 
ATOM      4  H   UNL d   1      22.531 -16.476  -0.676  0.00  0.00     0.169 HD
ENDROOT
BRANCH   3   5
ATOM      5  C   UNL d   1      24.519 -16.579  -1.268  0.00  0.00     0.047 A 
ATOM      6  C   UNL d   1      24.646 -15.555  -2.217  0.00  0.00     0.030 A 
ATOM      7  C   UNL d   1      25.890 -15.050  -2.579  0.00  0.00     0.005 A 
ATOM      8  C   UNL d   1      27.059 -15.558  -2.015  0.00  0.00     0.030 A 
ATOM      9  C   UNL d   1      26.929 -16.535  -1.020  0.00  0.00     0.044 A 
ATOM     10  N   UNL d   1      27.904 -17.187  -0.297  0.00  0.00    -0.365 N 
ATOM     11  C   UNL d   1      25.686 -17.036  -0.605  0.00  0.00     0.019 A 
ATOM     12  C   UNL d   1      27.329 -18.043   0.603  0.00  0.00     0.089 A 
ATOM     13  H   UNL d   1      28.899 -17.042  -0.414  0.00  0.00     0.165 HD
ATOM     14  C   UNL d   1      25.964 -17.992   0.417  0.00  0.00     0.033 A 
ENDBRANCH   3   5
BRANCH   1  15
ATOM     15  C   UNL d   1      21.684 -18.899  -0.542  0.00  0.00     0.171 A 
ATOM     16  C   UNL d   1      21.051 -19.294   0.609  0.00  0.00     0.075 A 
ATOM     17  C   UNL d   1      19.718 -19.578   0.229  0.00  0.00     0.068 A 
ATOM     18  N   UNL d   1      19.530 -19.325  -1.072  0.00  0.00    -0.132 NA
ATOM     19  O   UNL d   1      20.767 -18.918  -1.558  0.00  0.00    -0.207 OA
BRANCH  17  20
ATOM     20  C   UNL d   1      18.612 -20.113   1.099  0.00  0.00     0.032 C 
ATOM     21  C   UNL d   1      17.974 -21.370   0.500  0.00  0.00     0.016 C 
ATOM     22  C   UNL d   1      19.137 -20.449   2.503  0.00  0.00     0.016 C 
ENDBRANCH  17  20
ENDBRANCH   1  15
TORSDOF 3
ENDMDL
MODEL 3
REMARK VINA RESULT:   -29.940      1.386      1.680
REMARK INTER + INTRA:         -31.434
REMARK INTER:                 -30.835
REMARK INTRA:                  -0.599
REMARK CONF_INDEPENDENT:        0.895
REMARK UNBOUND:                -0.599
REMARK  3 active torsions:
REMARK  status: ('A' for Active; 'I' for Inactive)
REMARK    1  A    between atoms: C_2  and  C_4 
REMARK    2  A    between atoms: C_6  and  C_7 
REMARK       I    between atoms: C_7  and  N_9 
REMARK    3  A    between atoms: N_9  and  C_10 
ROOT
ATOM      1  C   UNL d   1      22.980 -16.814  -0.625  0.00  0.00     0.282 C 
ATOM      2  O   UNL d   1      22.776 -15.607  -0.785  0.00  0.00    -0.265 OA
ATOM      3  N   UNL d   1      24.262 -17.379  -0.647  0.00  0.00    -0.320 N 
ATOM      4  H   UNL d   1      24.361 -18.375  -0.781  0.00  0.00     0.169 HD
ENDROOT
BRANCH   3   5
ATOM      5  C   UNL d   1      25.422 -16.591  -0.835  0.00  0.00     0.047 A 
ATOM      6  C   UNL d   1      26.301 -16.393   0.239  0.00  0.00     0.030 A 
ATOM      7  C   UNL d   1      27.407 -15.559   0.128  0.00  0.00     0.005 A 
ATOM      8  C   UNL d   1      27.674 -14.879  -1.059  0.00  0.00     0.030 A 
ATOM      9  C   UNL d   1      26.833 -15.126  -2.151  0.00  0.00     0.044 A 
ATOM     10  N   UNL d   1      26.876 -14.609  -3.427  0.00  0.00    -0.365 N 
ATOM     11  C   UNL d   1      25.733 -15.993  -2.082  0.00  0.00     0.019 A 
ATOM     12  C   UNL d   1      25.880 -15.154  -4.191  0.00  0.00     0.089 A 
ATOM     13  H   UNL d   1      27.555 -13.930  -3.749  0.00  0.00     0.165 HD
ATOM     14  C   UNL d   1      25.142 -15.990  -3.381  0.00  0.00     0.033 A 
ENDBRANCH   3   5
BRANCH   1  15
ATOM     15  C   UNL d   1      21.892 -17.746  -0.447  0.00  0.00     0.171 A 
ATOM     16  C   UNL d   1      21.642 -18.735   0.470  0.00  0.00     0.075 A 
ATOM     17  C   UNL d   1      20.409 -19.309   0.082  0.00  0.00     0.068 A 
ATOM     18  N   UNL d   1      19.906 -18.677  -0.985  0.00  0.00    -0.132 NA
ATOM     19  O   UNL d   1      20.845 -17.711  -1.327  0.00  0.00    -0.207 OA
BRANCH  17  20
ATOM     20  C   UNL d   1      19.706 -20.481   0.713  0.00  0.00     0.032 C 
ATOM     21  C   UNL d   1      19.450 -20.257   2.205  0.00  0.00     0.016 C 
ATOM     22  C   UNL d   1      18.363 -20.750   0.018  0.00  0.00     0.016 C 
ENDBRANCH  17  20
ENDBRANCH   1  15
TORSDOF 3
ENDMDL
