MODEL 1
REMARK VINA RESULT:    -9.654      0.000      0.000
REMARK INTER + INTRA:         -14.467
REMARK INTER:                 -11.742
REMARK INTRA:                  -2.724
REMARK CONF_INDEPENDENT:        2.088
REMARK UNBOUND:                -2.724
REMARK  7 active torsions:
REMARK  status: ('A' for Active; 'I' for Inactive)
REMARK    1  A    between atoms: C_3  and  C_4 
REMARK       I    between atoms: C_4  and  N_6 
REMARK    2  A    between atoms: N_6  and  C_7 
REMARK    3  A    between atoms: C_14  and  C_15 
REMARK    4  A    between atoms: C_23  and  S_24 
REMARK    5  A    between atoms: S_24  and  C_25 
REMARK    6  A    between atoms: C_25  and  C_26 
REMARK       I    between atoms: C_26  and  N_28 
REMARK    7  A    between atoms: N_28  and  C_29 
ROOT
ATOM      1  C   UNL d   1      24.377 -13.702  -4.266  0.00  0.00     0.069 C 
ATOM      2  C   UNL d   1      25.146 -14.326  -3.119  0.00  0.00     0.019 C 
ATOM      3  C   UNL d   1      26.486 -14.166  -2.931  0.00  0.00     0.048 C 
ATOM      4  C   UNL d   1      27.202 -14.938  -1.829  0.00  0.00     0.129 C 
ATOM      5  C   UNL d   1      26.298 -15.904  -1.107  0.00  0.00     0.057 C 
ATOM      6  C   UNL d   1      27.044 -16.845  -0.176  0.00  0.00     0.019 C 
ATOM      7  N   UNL d   1      27.664 -17.625   0.597  0.00  0.00    -0.096 N 
ATOM      8  C   UNL d   1      24.967 -16.033  -1.348  0.00  0.00     0.087 C 
ATOM      9  N   UNL d   1      24.407 -15.161  -2.270  0.00  0.00    -0.353 N 
ATOM     10  H   UNL d   1      23.402 -15.205  -2.392  0.00  0.00     0.166 HD
ENDROOT
BRANCH   4  11
ATOM     11  C   UNL d   1      28.457 -15.647  -2.331  0.00  0.00     0.066 C 
ATOM     12  C   UNL d   1      29.730 -15.788  -1.842  0.00  0.00     0.035 C 
ATOM     13  C   UNL d   1      30.537 -16.327  -2.844  0.00  0.00     0.027 C 
ATOM     14  C   UNL d   1      29.654 -16.796  -3.772  0.00  0.00     0.142 C 
ATOM     15  O   UNL d   1      28.406 -16.322  -3.522  0.00  0.00    -0.326 OA
ENDBRANCH   4  11
BRANCH   8  16
ATOM     16  S   UNL d   1      24.135 -17.314  -0.481  0.00  0.00    -0.102 SA
BRANCH  16  17
ATOM     17  C   UNL d   1      23.146 -18.354  -1.590  0.00  0.00     0.184 C 
BRANCH  17  18
ATOM     18  C   UNL d   1      21.745 -18.581  -0.958  0.00  0.00     0.231 C 
ATOM     19  O   UNL d   1      20.795 -17.828  -1.179  0.00  0.00    -0.272 OA
ATOM     20  N   UNL d   1      21.637 -19.671  -0.091  0.00  0.00    -0.327 N 
ATOM     21  H   UNL d   1      22.469 -20.136   0.246  0.00  0.00     0.169 HD
BRANCH  20  22
ATOM     22  C   UNL d   1      20.404 -20.028   0.525  0.00  0.00     0.034 A 
ATOM     23  C   UNL d   1      20.280 -20.033   1.919  0.00  0.00     0.029 A 
ATOM     24  C   UNL d   1      19.081 -20.448   2.522  0.00  0.00     0.002 A 
ATOM     25  C   UNL d   1      17.992 -20.829   1.738  0.00  0.00     0.000 A 
ATOM     26  C   UNL d   1      18.110 -20.828   0.353  0.00  0.00     0.002 A 
ATOM     27  C   UNL d   1      19.308 -20.429  -0.246  0.00  0.00     0.029 A 
ENDBRANCH  20  22
ENDBRANCH  17  18
ENDBRANCH  16  17
ENDBRANCH   8  16
BRANCH   3  28
ATOM     28  C   UNL d   1      27.353 -13.388  -3.885  0.00  0.00     0.255 C 
ATOM     29  O   UNL d   1      27.289 -12.150  -3.923  0.00  0.00    -0.268 OA
ATOM     30  N   UNL d   1      28.141 -14.100  -4.771  0.00  0.00    -0.323 N 
ATOM     31  H   UNL d   1      28.130 -15.111  -4.780  0.00  0.00     0.169 HD
BRANCH  30  32
ATOM     32  C   UNL d   1      28.850 -13.436  -5.813  0.00  0.00     0.041 A 
ATOM     33  C   UNL d   1      28.396 -13.282  -7.144  0.00  0.00     0.030 A 
ATOM     34  C   UNL d   1      29.180 -12.640  -8.105  0.00  0.00     0.002 A 
ATOM     35  C   UNL d   1      30.429 -12.164  -7.745  0.00  0.00     0.001 A 
ATOM     36  C   UNL d   1      30.886 -12.324  -6.435  0.00  0.00     0.009 A 
ATOM     37  C   UNL d   1      30.108 -12.962  -5.465  0.00  0.00    -0.035 A 
ATOM     38  C   UNL d   1      30.621 -13.202  -4.076  0.00  0.00     0.050 C 
ENDBRANCH  30  32
ENDBRANCH   3  28
TORSDOF 7
ENDMDL
MODEL 2
REMARK VINA RESULT:    -9.186      2.134      2.603
REMARK INTER + INTRA:         -13.928
REMARK INTER:                 -11.274
REMARK INTRA:                  -2.654
REMARK CONF_INDEPENDENT:        2.088
REMARK UNBOUND:                -2.654
REMARK  7 active torsions:
REMARK  status: ('A' for Active; 'I' for Inactive)
REMARK    1  A    between atoms: C_3  and  C_4 
REMARK       I    between atoms: C_4  and  N_6 
REMARK    2  A    between atoms: N_6  and  C_7 
REMARK    3  A    between atoms: C_14  and  C_15 
REMARK    4  A    between atoms: C_23  and  S_24 
REMARK    5  A    between atoms: S_24  and  C_25 
REMARK    6  A    between atoms: C_25  and  C_26 
REMARK       I    between atoms: C_26  and  N_28 
REMARK    7  A    between atoms: N_28  and  C_29 
ROOT
ATOM      1  C   UNL d   1      26.032 -15.317  -5.415  0.00  0.00     0.069 C 
ATOM      2  C   UNL d   1      26.474 -15.259  -3.967  0.00  0.00     0.019 C 
ATOM      3  C   UNL d   1      27.773 -15.122  -3.577  0.00  0.00     0.048 C 
ATOM      4  C   UNL d   1      28.142 -15.208  -2.101  0.00  0.00     0.129 C 
ATOM      5  C   UNL d   1      26.965 -15.544  -1.220  0.00  0.00     0.057 C 
ATOM      6  C   UNL d   1      27.358 -15.867   0.212  0.00  0.00     0.019 C 
ATOM      7  N   UNL d   1      27.685 -16.134   1.400  0.00  0.00    -0.096 N 
ATOM      8  C   UNL d   1      25.690 -15.686  -1.667  0.00  0.00     0.087 C 
ATOM      9  N   UNL d   1      25.462 -15.429  -3.011  0.00  0.00    -0.353 N 
ATOM     10  H   UNL d   1      24.500 -15.458  -3.329  0.00  0.00     0.166 HD
ENDROOT
BRANCH   4  11
ATOM     11  C   UNL d   1      29.300 -16.168  -1.841  0.00  0.00     0.066 C 
ATOM     12  C   UNL d   1      30.478 -16.071  -1.147  0.00  0.00     0.035 C 
ATOM     13  C   UNL d   1      31.274 -17.174  -1.460  0.00  0.00     0.027 C 
ATOM     14  C   UNL d   1      30.416 -18.048  -2.060  0.00  0.00     0.142 C 
ATOM     15  O   UNL d   1      29.248 -17.429  -2.373  0.00  0.00    -0.326 OA
ENDBRANCH   4  11
BRANCH   8  16
ATOM     16  S   UNL d   1      24.500 -16.208  -0.487  0.00  0.00    -0.102 SA
BRANCH  16  17
ATOM     17  C   UNL d   1      24.713 -17.952  -0.033  0.00  0.00     0.184 C 
BRANCH  17  18
ATOM     18  C   UNL d   1      23.390 -18.716  -0.316  0.00  0.00     0.231 C 
ATOM     19  O   UNL d   1      23.310 -19.593  -1.177  0.00  0.00    -0.272 OA
ATOM     20  N   UNL d   1      22.283 -18.318   0.438  0.00  0.00    -0.327 N 
ATOM     21  H   UNL d   1      22.314 -17.459   0.970  0.00  0.00     0.169 HD
BRANCH  20  22
ATOM     22  C   UNL d   1      21.018 -18.959   0.319  0.00  0.00     0.034 A 
ATOM     23  C   UNL d   1      20.426 -19.575   1.427  0.00  0.00     0.029 A 
ATOM     24  C   UNL d   1      19.207 -20.262   1.290  0.00  0.00     0.002 A 
ATOM     25  C   UNL d   1      18.560 -20.308   0.055  0.00  0.00     0.000 A 
ATOM     26  C   UNL d   1      19.145 -19.700  -1.050  0.00  0.00     0.002 A 
ATOM     27  C   UNL d   1      20.363 -19.030  -0.915  0.00  0.00     0.029 A 
ENDBRANCH  20  22
ENDBRANCH  17  18
ENDBRANCH  16  17
ENDBRANCH   8  16
BRANCH   3  28
ATOM     28  C   UNL d   1      28.914 -15.068  -4.557  0.00  0.00     0.255 C 
ATOM     29  O   UNL d   1      29.251 -13.989  -5.067  0.00  0.00    -0.268 OA
ATOM     30  N   UNL d   1      29.499 -16.262  -4.937  0.00  0.00    -0.323 N 
ATOM     31  H   UNL d   1      29.166 -17.144  -4.569  0.00  0.00     0.169 HD
BRANCH  30  32
ATOM     32  C   UNL d   1      30.462 -16.302  -5.985  0.00  0.00     0.041 A 
ATOM     33  C   UNL d   1      30.904 -15.186  -6.734  0.00  0.00     0.030 A 
ATOM     34  C   UNL d   1      31.832 -15.331  -7.767  0.00  0.00     0.002 A 
ATOM     35  C   UNL d   1      32.311 -16.594  -8.068  0.00  0.00     0.001 A 
ATOM     36  C   UNL d   1      31.868 -17.701  -7.339  0.00  0.00     0.009 A 
ATOM     37  C   UNL d   1      30.942 -17.566  -6.302  0.00  0.00    -0.035 A 
ATOM     38  C   UNL d   1      30.408 -18.757  -5.563  0.00  0.00     0.050 C 
ENDBRANCH  30  32
ENDBRANCH   3  28
TORSDOF 7
ENDMDL
MODEL 3
REMARK VINA RESULT:    -9.110      2.162      3.719
REMARK INTER + INTRA:         -13.567
REMARK INTER:                 -11.198
REMARK INTRA:                  -2.369
REMARK CONF_INDEPENDENT:        2.088
REMARK UNBOUND:                -2.369
REMARK  7 active torsions:
REMARK  status: ('A' for Active; 'I' for Inactive)
REMARK    1  A    between atoms: C_3  and  C_4 
REMARK       I    between atoms: C_4  and  N_6 
REMARK    2  A    between atoms: N_6  and  C_7 
REMARK    3  A    between atoms: C_14  and  C_15 
REMARK    4  A    between atoms: C_23  and  S_24 
REMARK    5  A    between atoms: S_24  and  C_25 
REMARK    6  A    between atoms: C_25  and  C_26 
REMARK       I    between atoms: C_26  and  N_28 
REMARK    7  A    between atoms: N_28  and  C_29 
ROOT
ATOM      1  C   UNL d   1      30.177 -16.766  -1.880  0.00  0.00     0.069 C 
ATOM      2  C   UNL d   1      28.891 -16.332  -2.554  0.00  0.00     0.019 C 
ATOM      3  C   UNL d   1      28.832 -15.818  -3.814  0.00  0.00     0.048 C 
ATOM      4  C   UNL d   1      27.514 -15.282  -4.362  0.00  0.00     0.129 C 
ATOM      5  C   UNL d   1      26.402 -15.310  -3.345  0.00  0.00     0.057 C 
ATOM      6  C   UNL d   1      25.156 -14.565  -3.796  0.00  0.00     0.019 C 
ATOM      7  N   UNL d   1      24.123 -13.947  -4.171  0.00  0.00    -0.096 N 
ATOM      8  C   UNL d   1      26.521 -15.822  -2.092  0.00  0.00     0.087 C 
ATOM      9  N   UNL d   1      27.731 -16.420  -1.770  0.00  0.00    -0.353 N 
ATOM     10  H   UNL d   1      27.794 -16.871  -0.865  0.00  0.00     0.166 HD
ENDROOT
BRANCH   4  11
ATOM     11  C   UNL d   1      27.655 -13.889  -4.968  0.00  0.00     0.066 C 
ATOM     12  C   UNL d   1      27.839 -12.637  -4.442  0.00  0.00     0.035 C 
ATOM     13  C   UNL d   1      27.641 -11.693  -5.451  0.00  0.00     0.027 C 
ATOM     14  C   UNL d   1      27.677 -12.421  -6.604  0.00  0.00     0.142 C 
ATOM     15  O   UNL d   1      27.600 -13.749  -6.330  0.00  0.00    -0.326 OA
ENDBRANCH   4  11
BRANCH   8  16
ATOM     16  S   UNL d   1      25.135 -15.630  -1.032  0.00  0.00    -0.102 SA
BRANCH  16  17
ATOM     17  C   UNL d   1      24.733 -17.166  -0.155  0.00  0.00     0.184 C 
BRANCH  17  18
ATOM     18  C   UNL d   1      23.203 -17.423  -0.258  0.00  0.00     0.231 C 
ATOM     19  O   UNL d   1      22.418 -16.563  -0.658  0.00  0.00    -0.272 OA
ATOM     20  N   UNL d   1      22.767 -18.680   0.168  0.00  0.00    -0.327 N 
ATOM     21  H   UNL d   1      23.387 -19.281   0.694  0.00  0.00     0.169 HD
BRANCH  20  22
ATOM     22  C   UNL d   1      21.401 -19.073   0.089  0.00  0.00     0.034 A 
ATOM     23  C   UNL d   1      20.665 -19.325   1.251  0.00  0.00     0.029 A 
ATOM     24  C   UNL d   1      19.336 -19.776   1.165  0.00  0.00     0.002 A 
ATOM     25  C   UNL d   1      18.729 -19.944  -0.079  0.00  0.00     0.000 A 
ATOM     26  C   UNL d   1      19.456 -19.698  -1.237  0.00  0.00     0.002 A 
ATOM     27  C   UNL d   1      20.781 -19.264  -1.151  0.00  0.00     0.029 A 
ENDBRANCH  20  22
ENDBRANCH  17  18
ENDBRANCH  16  17
ENDBRANCH   8  16
BRANCH   3  28
ATOM     28  C   UNL d   1      30.060 -15.577  -4.651  0.00  0.00     0.255 C 
ATOM     29  O   UNL d   1      31.149 -15.336  -4.110  0.00  0.00    -0.268 OA
ATOM     30  N   UNL d   1      29.910 -15.540  -6.025  0.00  0.00    -0.323 N 
ATOM     31  H   UNL d   1      29.002 -15.667  -6.453  0.00  0.00     0.169 HD
BRANCH  30  32
ATOM     32  C   UNL d   1      30.990 -15.147  -6.867  0.00  0.00     0.041 A 
ATOM     33  C   UNL d   1      31.395 -13.813  -7.110  0.00  0.00     0.030 A 
ATOM     34  C   UNL d   1      32.449 -13.526  -7.979  0.00  0.00     0.002 A 
ATOM     35  C   UNL d   1      33.094 -14.568  -8.622  0.00  0.00     0.001 A 
ATOM     36  C   UNL d   1      32.689 -15.886  -8.394  0.00  0.00     0.009 A 
ATOM     37  C   UNL d   1      31.638 -16.185  -7.525  0.00  0.00    -0.035 A 
ATOM     38  C   UNL d   1      31.150 -17.590  -7.330  0.00  0.00     0.050 C 
ENDBRANCH  30  32
ENDBRANCH   3  28
TORSDOF 7
ENDMDL
MODEL 4
REMARK VINA RESULT:    -8.762      2.561      3.166
REMARK INTER + INTRA:         -13.003
REMARK INTER:                 -10.850
REMARK INTRA:                  -2.153
REMARK CONF_INDEPENDENT:        2.088
REMARK UNBOUND:                -2.153
REMARK  7 active torsions:
REMARK  status: ('A' for Active; 'I' for Inactive)
REMARK    1  A    between atoms: C_3  and  C_4 
REMARK       I    between atoms: C_4  and  N_6 
REMARK    2  A    between atoms: N_6  and  C_7 
REMARK    3  A    between atoms: C_14  and  C_15 
REMARK    4  A    between atoms: C_23  and  S_24 
REMARK    5  A    between atoms: S_24  and  C_25 
REMARK    6  A    between atoms: C_25  and  C_26 
REMARK       I    between atoms: C_26  and  N_28 
REMARK    7  A    between atoms: N_28  and  C_29 
ROOT
ATOM      1  C   UNL d   1      25.684 -15.683  -5.260  0.00  0.00     0.069 C 
ATOM      2  C   UNL d   1      25.698 -15.037  -3.889  0.00  0.00     0.019 C 
ATOM      3  C   UNL d   1      26.072 -13.746  -3.664  0.00  0.00     0.048 C 
ATOM      4  C   UNL d   1      26.184 -13.219  -2.238  0.00  0.00     0.129 C 
ATOM      5  C   UNL d   1      25.940 -14.283  -1.199  0.00  0.00     0.057 C 
ATOM      6  C   UNL d   1      26.282 -13.834   0.213  0.00  0.00     0.019 C 
ATOM      7  N   UNL d   1      26.564 -13.461   1.383  0.00  0.00    -0.096 N 
ATOM      8  C   UNL d   1      25.584 -15.563  -1.482  0.00  0.00     0.087 C 
ATOM      9  N   UNL d   1      25.363 -15.875  -2.815  0.00  0.00    -0.353 N 
ATOM     10  H   UNL d   1      25.022 -16.806  -3.020  0.00  0.00     0.166 HD
ENDROOT
BRANCH   4  11
ATOM     11  C   UNL d   1      27.510 -12.507  -1.979  0.00  0.00     0.066 C 
ATOM     12  C   UNL d   1      27.870 -11.194  -1.830  0.00  0.00     0.035 C 
ATOM     13  C   UNL d   1      29.262 -11.104  -1.867  0.00  0.00     0.027 C 
ATOM     14  C   UNL d   1      29.686 -12.390  -1.701  0.00  0.00     0.142 C 
ATOM     15  O   UNL d   1      28.651 -13.255  -1.851  0.00  0.00    -0.326 OA
ENDBRANCH   4  11
BRANCH   8  16
ATOM     16  S   UNL d   1      25.480 -16.666  -0.120  0.00  0.00    -0.102 SA
BRANCH  16  17
ATOM     17  C   UNL d   1      24.883 -18.306  -0.617  0.00  0.00     0.184 C 
BRANCH  17  18
ATOM     18  C   UNL d   1      23.329 -18.302  -0.617  0.00  0.00     0.231 C 
ATOM     19  O   UNL d   1      22.675 -17.322  -0.977  0.00  0.00    -0.272 OA
ATOM     20  N   UNL d   1      22.717 -19.465  -0.144  0.00  0.00    -0.327 N 
ATOM     21  H   UNL d   1      23.261 -20.161   0.349  0.00  0.00     0.169 HD
BRANCH  20  22
ATOM     22  C   UNL d   1      21.302 -19.623  -0.129  0.00  0.00     0.034 A 
ATOM     23  C   UNL d   1      20.655 -20.130   1.004  0.00  0.00     0.029 A 
ATOM     24  C   UNL d   1      19.266 -20.343   0.990  0.00  0.00     0.002 A 
ATOM     25  C   UNL d   1      18.515 -20.022  -0.140  0.00  0.00     0.000 A 
ATOM     26  C   UNL d   1      19.153 -19.521  -1.269  0.00  0.00     0.002 A 
ATOM     27  C   UNL d   1      20.535 -19.322  -1.259  0.00  0.00     0.029 A 
ENDBRANCH  20  22
ENDBRANCH  17  18
ENDBRANCH  16  17
ENDBRANCH   8  16
BRANCH   3  28
ATOM     28  C   UNL d   1      26.566 -12.841  -4.761  0.00  0.00     0.255 C 
ATOM     29  O   UNL d   1      27.746 -12.902  -5.139  0.00  0.00    -0.268 OA
ATOM     30  N   UNL d   1      25.696 -11.887  -5.254  0.00  0.00    -0.323 N 
ATOM     31  H   UNL d   1      24.758 -11.798  -4.886  0.00  0.00     0.169 HD
BRANCH  30  32
ATOM     32  C   UNL d   1      26.147 -10.888  -6.165  0.00  0.00     0.041 A 
ATOM     33  C   UNL d   1      26.653 -11.133  -7.463  0.00  0.00     0.030 A 
ATOM     34  C   UNL d   1      27.101 -10.087  -8.273  0.00  0.00     0.002 A 
ATOM     35  C   UNL d   1      27.061  -8.793  -7.783  0.00  0.00     0.001 A 
ATOM     36  C   UNL d   1      26.573  -8.549  -6.496  0.00  0.00     0.009 A 
ATOM     37  C   UNL d   1      26.119  -9.587  -5.680  0.00  0.00    -0.035 A 
ATOM     38  C   UNL d   1      25.662  -9.341  -4.273  0.00  0.00     0.050 C 
ENDBRANCH  30  32
ENDBRANCH   3  28
TORSDOF 7
ENDMDL
MODEL 5
REMARK VINA RESULT:    -8.207      6.050      8.356
REMARK INTER + INTRA:         -13.529
REMARK INTER:                 -10.295
REMARK INTRA:                  -3.234
REMARK CONF_INDEPENDENT:        2.088
REMARK UNBOUND:                -3.234
REMARK  7 active torsions:
REMARK  status: ('A' for Active; 'I' for Inactive)
REMARK    1  A    between atoms: C_3  and  C_4 
REMARK       I    between atoms: C_4  and  N_6 
REMARK    2  A    between atoms: N_6  and  C_7 
REMARK    3  A    between atoms: C_14  and  C_15 
REMARK    4  A    between atoms: C_23  and  S_24 
REMARK    5  A    between atoms: S_24  and  C_25 
REMARK    6  A    between atoms: C_25  and  C_26 
REMARK       I    between atoms: C_26  and  N_28 
REMARK    7  A    between atoms: N_28  and  C_29 
ROOT
ATOM      1  C   UNL d   1      27.779  -9.410   1.364  0.00  0.00     0.069 C 
ATOM      2  C   UNL d   1      27.491 -10.897   1.394  0.00  0.00     0.019 C 
ATOM      3  C   UNL d   1      27.353 -11.619   2.542  0.00  0.00     0.048 C 
ATOM      4  C   UNL d   1      27.199 -13.134   2.480  0.00  0.00     0.129 C 
ATOM      5  C   UNL d   1      27.316 -13.678   1.079  0.00  0.00     0.057 C 
ATOM      6  C   UNL d   1      27.404 -15.195   1.029  0.00  0.00     0.019 C 
ATOM      7  N   UNL d   1      27.475 -16.453   0.988  0.00  0.00    -0.096 N 
ATOM      8  C   UNL d   1      27.469 -12.910  -0.031  0.00  0.00     0.087 C 
ATOM      9  N   UNL d   1      27.440 -11.535   0.146  0.00  0.00    -0.353 N 
ATOM     10  H   UNL d   1      27.475 -10.962  -0.689  0.00  0.00     0.166 HD
ENDROOT
BRANCH   4  11
ATOM     11  C   UNL d   1      28.155 -13.859   3.422  0.00  0.00     0.066 C 
ATOM     12  C   UNL d   1      27.991 -14.799   4.406  0.00  0.00     0.035 C 
ATOM     13  C   UNL d   1      29.186 -14.918   5.116  0.00  0.00     0.027 C 
ATOM     14  C   UNL d   1      30.110 -14.298   4.326  0.00  0.00     0.142 C 
ATOM     15  O   UNL d   1      29.496 -13.584   3.348  0.00  0.00    -0.326 OA
ENDBRANCH   4  11
BRANCH   8  16
ATOM     16  S   UNL d   1      27.717 -13.764  -1.546  0.00  0.00    -0.102 SA
BRANCH  16  17
ATOM     17  C   UNL d   1      26.352 -13.493  -2.709  0.00  0.00     0.184 C 
BRANCH  17  18
ATOM     18  C   UNL d   1      25.292 -14.613  -2.519  0.00  0.00     0.231 C 
ATOM     19  O   UNL d   1      24.405 -14.825  -3.347  0.00  0.00    -0.272 OA
ATOM     20  N   UNL d   1      25.381 -15.340  -1.329  0.00  0.00    -0.327 N 
ATOM     21  H   UNL d   1      25.966 -15.008  -0.574  0.00  0.00     0.169 HD
BRANCH  20  22
ATOM     22  C   UNL d   1      24.506 -16.425  -1.039  0.00  0.00     0.034 A 
ATOM     23  C   UNL d   1      23.126 -16.220  -0.942  0.00  0.00     0.029 A 
ATOM     24  C   UNL d   1      22.274 -17.282  -0.592  0.00  0.00     0.002 A 
ATOM     25  C   UNL d   1      22.793 -18.557  -0.370  0.00  0.00     0.000 A 
ATOM     26  C   UNL d   1      24.164 -18.766  -0.463  0.00  0.00     0.002 A 
ATOM     27  C   UNL d   1      25.011 -17.707  -0.796  0.00  0.00     0.029 A 
ENDBRANCH  20  22
ENDBRANCH  17  18
ENDBRANCH  16  17
ENDBRANCH   8  16
BRANCH   3  28
ATOM     28  C   UNL d   1      27.529 -11.012   3.909  0.00  0.00     0.255 C 
ATOM     29  O   UNL d   1      26.697 -10.203   4.346  0.00  0.00    -0.268 OA
ATOM     30  N   UNL d   1      28.684 -11.312   4.607  0.00  0.00    -0.323 N 
ATOM     31  H   UNL d   1      29.391 -11.917   4.208  0.00  0.00     0.169 HD
BRANCH  30  32
ATOM     32  C   UNL d   1      28.997 -10.641   5.824  0.00  0.00     0.041 A 
ATOM     33  C   UNL d   1      29.670  -9.401   5.925  0.00  0.00     0.030 A 
ATOM     34  C   UNL d   1      29.960  -8.836   7.169  0.00  0.00     0.002 A 
ATOM     35  C   UNL d   1      29.593  -9.515   8.318  0.00  0.00     0.001 A 
ATOM     36  C   UNL d   1      28.938 -10.746   8.222  0.00  0.00     0.009 A 
ATOM     37  C   UNL d   1      28.641 -11.318   6.983  0.00  0.00    -0.035 A 
ATOM     38  C   UNL d   1      28.003 -12.672   6.872  0.00  0.00     0.050 C 
ENDBRANCH  30  32
ENDBRANCH   3  28
TORSDOF 7
ENDMDL
MODEL 6
REMARK VINA RESULT:    -8.014      4.466      8.756
REMARK INTER + INTRA:         -13.193
REMARK INTER:                 -10.102
REMARK INTRA:                  -3.091
REMARK CONF_INDEPENDENT:        2.088
REMARK UNBOUND:                -3.091
REMARK  7 active torsions:
REMARK  status: ('A' for Active; 'I' for Inactive)
REMARK    1  A    between atoms: C_3  and  C_4 
REMARK       I    between atoms: C_4  and  N_6 
REMARK    2  A    between atoms: N_6  and  C_7 
REMARK    3  A    between atoms: C_14  and  C_15 
REMARK    4  A    between atoms: C_23  and  S_24 
REMARK    5  A    between atoms: S_24  and  C_25 
REMARK    6  A    between atoms: C_25  and  C_26 
REMARK       I    between atoms: C_26  and  N_28 
REMARK    7  A    between atoms: N_28  and  C_29 
ROOT
ATOM      1  C   UNL d   1      28.464 -10.785  -0.329  0.00  0.00     0.069 C 
ATOM      2  C   UNL d   1      27.622 -11.829  -1.033  0.00  0.00     0.019 C 
ATOM      3  C   UNL d   1      26.995 -12.856  -0.392  0.00  0.00     0.048 C 
ATOM      4  C   UNL d   1      26.280 -13.937  -1.194  0.00  0.00     0.129 C 
ATOM      5  C   UNL d   1      26.446 -13.769  -2.683  0.00  0.00     0.057 C 
ATOM      6  C   UNL d   1      25.946 -14.961  -3.482  0.00  0.00     0.019 C 
ATOM      7  N   UNL d   1      25.530 -15.951  -4.144  0.00  0.00    -0.096 N 
ATOM      8  C   UNL d   1      27.097 -12.730  -3.269  0.00  0.00     0.087 C 
ATOM      9  N   UNL d   1      27.570 -11.731  -2.431  0.00  0.00    -0.353 N 
ATOM     10  H   UNL d   1      27.985 -10.919  -2.873  0.00  0.00     0.166 HD
ENDROOT
BRANCH   4  11
ATOM     11  C   UNL d   1      26.678 -15.346  -0.763  0.00  0.00     0.066 C 
ATOM     12  C   UNL d   1      25.987 -16.419  -0.264  0.00  0.00     0.035 C 
ATOM     13  C   UNL d   1      26.902 -17.368   0.193  0.00  0.00     0.027 C 
ATOM     14  C   UNL d   1      28.090 -16.979  -0.352  0.00  0.00     0.142 C 
ATOM     15  O   UNL d   1      27.992 -15.723  -0.858  0.00  0.00    -0.326 OA
ENDBRANCH   4  11
BRANCH   8  16
ATOM     16  S   UNL d   1      27.282 -12.806  -5.013  0.00  0.00    -0.102 SA
BRANCH  16  17
ATOM     17  C   UNL d   1      28.952 -13.325  -5.497  0.00  0.00     0.184 C 
BRANCH  17  18
ATOM     18  C   UNL d   1      28.960 -14.863  -5.721  0.00  0.00     0.231 C 
ATOM     19  O   UNL d   1      27.932 -15.497  -5.964  0.00  0.00    -0.272 OA
ATOM     20  N   UNL d   1      30.201 -15.491  -5.590  0.00  0.00    -0.327 N 
ATOM     21  H   UNL d   1      30.980 -14.995  -5.177  0.00  0.00     0.169 HD
BRANCH  20  22
ATOM     22  C   UNL d   1      30.370 -16.887  -5.813  0.00  0.00     0.034 A 
ATOM     23  C   UNL d   1      30.176 -17.802  -4.771  0.00  0.00     0.029 A 
ATOM     24  C   UNL d   1      30.407 -19.172  -4.980  0.00  0.00     0.002 A 
ATOM     25  C   UNL d   1      30.799 -19.638  -6.235  0.00  0.00     0.000 A 
ATOM     26  C   UNL d   1      30.994 -18.734  -7.272  0.00  0.00     0.002 A 
ATOM     27  C   UNL d   1      30.779 -17.370  -7.060  0.00  0.00     0.029 A 
ENDBRANCH  20  22
ENDBRANCH  17  18
ENDBRANCH  16  17
ENDBRANCH   8  16
BRANCH   3  28
ATOM     28  C   UNL d   1      27.124 -13.087   1.090  0.00  0.00     0.255 C 
ATOM     29  O   UNL d   1      26.498 -12.377   1.891  0.00  0.00    -0.268 OA
ATOM     30  N   UNL d   1      28.028 -14.041   1.520  0.00  0.00    -0.323 N 
ATOM     31  H   UNL d   1      28.587 -14.564   0.859  0.00  0.00     0.169 HD
BRANCH  30  32
ATOM     32  C   UNL d   1      28.327 -14.191   2.905  0.00  0.00     0.041 A 
ATOM     33  C   UNL d   1      27.392 -14.077   3.961  0.00  0.00     0.030 A 
ATOM     34  C   UNL d   1      27.789 -14.209   5.294  0.00  0.00     0.002 A 
ATOM     35  C   UNL d   1      29.124 -14.441   5.578  0.00  0.00     0.001 A 
ATOM     36  C   UNL d   1      30.052 -14.542   4.538  0.00  0.00     0.009 A 
ATOM     37  C   UNL d   1      29.665 -14.414   3.202  0.00  0.00    -0.035 A 
ATOM     38  C   UNL d   1      30.666 -14.450   2.085  0.00  0.00     0.050 C 
ENDBRANCH  30  32
ENDBRANCH   3  28
TORSDOF 7
ENDMDL
MODEL 7
REMARK VINA RESULT:    -7.268      4.781     10.137
REMARK INTER + INTRA:         -13.022
REMARK INTER:                  -9.356
REMARK INTRA:                  -3.666
REMARK CONF_INDEPENDENT:        2.088
REMARK UNBOUND:                -3.666
REMARK  7 active torsions:
REMARK  status: ('A' for Active; 'I' for Inactive)
REMARK    1  A    between atoms: C_3  and  C_4 
REMARK       I    between atoms: C_4  and  N_6 
REMARK    2  A    between atoms: N_6  and  C_7 
REMARK    3  A    between atoms: C_14  and  C_15 
REMARK    4  A    between atoms: C_23  and  S_24 
REMARK    5  A    between atoms: S_24  and  C_25 
REMARK    6  A    between atoms: C_25  and  C_26 
REMARK       I    between atoms: C_26  and  N_28 
REMARK    7  A    between atoms: N_28  and  C_29 
ROOT
ATOM      1  C   UNL d   1      28.629 -12.410  -5.677  0.00  0.00     0.069 C 
ATOM      2  C   UNL d   1      29.346 -13.571  -6.336  0.00  0.00     0.019 C 
ATOM      3  C   UNL d   1      29.000 -14.876  -6.154  0.00  0.00     0.048 C 
ATOM      4  C   UNL d   1      29.860 -15.985  -6.749  0.00  0.00     0.129 C 
ATOM      5  C   UNL d   1      31.104 -15.466  -7.423  0.00  0.00     0.057 C 
ATOM      6  C   UNL d   1      32.083 -16.564  -7.807  0.00  0.00     0.019 C 
ATOM      7  N   UNL d   1      32.894 -17.475  -8.126  0.00  0.00    -0.096 N 
ATOM      8  C   UNL d   1      31.407 -14.149  -7.562  0.00  0.00     0.087 C 
ATOM      9  N   UNL d   1      30.465 -13.236  -7.113  0.00  0.00    -0.353 N 
ATOM     10  H   UNL d   1      30.654 -12.256  -7.287  0.00  0.00     0.166 HD
ENDROOT
BRANCH   4  11
ATOM     11  C   UNL d   1      30.211 -17.065  -5.729  0.00  0.00     0.066 C 
ATOM     12  C   UNL d   1      30.407 -18.419  -5.806  0.00  0.00     0.035 C 
ATOM     13  C   UNL d   1      30.455 -18.940  -4.513  0.00  0.00     0.027 C 
ATOM     14  C   UNL d   1      30.622 -17.845  -3.716  0.00  0.00     0.142 C 
ATOM     15  O   UNL d   1      30.393 -16.706  -4.419  0.00  0.00    -0.326 OA
ENDBRANCH   4  11
BRANCH   8  16
ATOM     16  S   UNL d   1      32.972 -13.775  -8.264  0.00  0.00    -0.102 SA
BRANCH  16  17
ATOM     17  C   UNL d   1      32.882 -12.386  -9.426  0.00  0.00     0.184 C 
BRANCH  17  18
ATOM     18  C   UNL d   1      31.483 -11.718  -9.311  0.00  0.00     0.231 C 
ATOM     19  O   UNL d   1      31.302 -10.681  -8.670  0.00  0.00    -0.272 OA
ATOM     20  N   UNL d   1      30.434 -12.387  -9.945  0.00  0.00    -0.327 N 
ATOM     21  H   UNL d   1      30.560 -13.336 -10.270  0.00  0.00     0.169 HD
BRANCH  20  22
ATOM     22  C   UNL d   1      29.108 -11.869  -9.962  0.00  0.00     0.034 A 
ATOM     23  C   UNL d   1      28.017 -12.715 -10.190  0.00  0.00     0.029 A 
ATOM     24  C   UNL d   1      26.716 -12.189 -10.270  0.00  0.00     0.002 A 
ATOM     25  C   UNL d   1      26.497 -10.824 -10.092  0.00  0.00     0.000 A 
ATOM     26  C   UNL d   1      27.576  -9.978  -9.868  0.00  0.00     0.002 A 
ATOM     27  C   UNL d   1      28.870 -10.500  -9.802  0.00  0.00     0.029 A 
ENDBRANCH  20  22
ENDBRANCH  17  18
ENDBRANCH  16  17
ENDBRANCH   8  16
BRANCH   3  28
ATOM     28  C   UNL d   1      27.892 -15.301  -5.228  0.00  0.00     0.255 C 
ATOM     29  O   UNL d   1      26.744 -15.475  -5.664  0.00  0.00    -0.268 OA
ATOM     30  N   UNL d   1      28.177 -15.395  -3.878  0.00  0.00    -0.323 N 
ATOM     31  H   UNL d   1      29.101 -15.180  -3.525  0.00  0.00     0.169 HD
BRANCH  30  32
ATOM     32  C   UNL d   1      27.140 -15.622  -2.927  0.00  0.00     0.041 A 
ATOM     33  C   UNL d   1      25.766 -15.361  -3.138  0.00  0.00     0.030 A 
ATOM     34  C   UNL d   1      24.825 -15.588  -2.131  0.00  0.00     0.002 A 
ATOM     35  C   UNL d   1      25.256 -16.061  -0.903  0.00  0.00     0.001 A 
ATOM     36  C   UNL d   1      26.614 -16.308  -0.688  0.00  0.00     0.009 A 
ATOM     37  C   UNL d   1      27.562 -16.088  -1.689  0.00  0.00    -0.035 A 
ATOM     38  C   UNL d   1      29.029 -16.282  -1.443  0.00  0.00     0.050 C 
ENDBRANCH  30  32
ENDBRANCH   3  28
TORSDOF 7
ENDMDL
MODEL 8
REMARK VINA RESULT:    -7.154      4.602      7.816
REMARK INTER + INTRA:         -13.054
REMARK INTER:                  -9.242
REMARK INTRA:                  -3.812
REMARK CONF_INDEPENDENT:        2.088
REMARK UNBOUND:                -3.812
REMARK  7 active torsions:
REMARK  status: ('A' for Active; 'I' for Inactive)
REMARK    1  A    between atoms: C_3  and  C_4 
REMARK       I    between atoms: C_4  and  N_6 
REMARK    2  A    between atoms: N_6  and  C_7 
REMARK    3  A    between atoms: C_14  and  C_15 
REMARK    4  A    between atoms: C_23  and  S_24 
REMARK    5  A    between atoms: S_24  and  C_25 
REMARK    6  A    between atoms: C_25  and  C_26 
REMARK       I    between atoms: C_26  and  N_28 
REMARK    7  A    between atoms: N_28  and  C_29 
ROOT
ATOM      1  C   UNL d   1      28.419 -15.423  -0.118  0.00  0.00     0.069 C 
ATOM      2  C   UNL d   1      28.262 -14.002  -0.620  0.00  0.00     0.019 C 
ATOM      3  C   UNL d   1      28.502 -12.898   0.142  0.00  0.00     0.048 C 
ATOM      4  C   UNL d   1      28.190 -11.509  -0.401  0.00  0.00     0.129 C 
ATOM      5  C   UNL d   1      27.532 -11.544  -1.758  0.00  0.00     0.057 C 
ATOM      6  C   UNL d   1      27.001 -10.192  -2.203  0.00  0.00     0.019 C 
ATOM      7  N   UNL d   1      26.561  -9.069  -2.573  0.00  0.00    -0.096 N 
ATOM      8  C   UNL d   1      27.302 -12.679  -2.468  0.00  0.00     0.087 C 
ATOM      9  N   UNL d   1      27.775 -13.866  -1.928  0.00  0.00    -0.353 N 
ATOM     10  H   UNL d   1      27.674 -14.701  -2.493  0.00  0.00     0.166 HD
ENDROOT
BRANCH   4  11
ATOM     11  C   UNL d   1      27.369 -10.670   0.573  0.00  0.00     0.066 C 
ATOM     12  C   UNL d   1      27.325  -9.333   0.875  0.00  0.00     0.035 C 
ATOM     13  C   UNL d   1      26.563  -9.159   2.030  0.00  0.00     0.027 C 
ATOM     14  C   UNL d   1      25.907 -10.346   2.183  0.00  0.00     0.142 C 
ATOM     15  O   UNL d   1      26.442 -11.291   1.368  0.00  0.00    -0.326 OA
ENDBRANCH   4  11
BRANCH   8  16
ATOM     16  S   UNL d   1      26.405 -12.496  -3.966  0.00  0.00    -0.102 SA
BRANCH  16  17
ATOM     17  C   UNL d   1      24.896 -13.503  -3.981  0.00  0.00     0.184 C 
BRANCH  17  18
ATOM     18  C   UNL d   1      25.155 -14.819  -3.196  0.00  0.00     0.231 C 
ATOM     19  O   UNL d   1      26.080 -15.582  -3.480  0.00  0.00    -0.272 OA
ATOM     20  N   UNL d   1      24.250 -15.106  -2.172  0.00  0.00    -0.327 N 
ATOM     21  H   UNL d   1      23.383 -14.591  -2.102  0.00  0.00     0.169 HD
BRANCH  20  22
ATOM     22  C   UNL d   1      24.389 -16.252  -1.338  0.00  0.00     0.034 A 
ATOM     23  C   UNL d   1      25.657 -16.699  -0.950  0.00  0.00     0.029 A 
ATOM     24  C   UNL d   1      25.791 -17.868  -0.181  0.00  0.00     0.002 A 
ATOM     25  C   UNL d   1      24.661 -18.575   0.230  0.00  0.00     0.000 A 
ATOM     26  C   UNL d   1      23.400 -18.136  -0.155  0.00  0.00     0.002 A 
ATOM     27  C   UNL d   1      23.268 -16.983  -0.931  0.00  0.00     0.029 A 
ENDBRANCH  20  22
ENDBRANCH  17  18
ENDBRANCH  16  17
ENDBRANCH   8  16
BRANCH   3  28
ATOM     28  C   UNL d   1      28.900 -12.984   1.592  0.00  0.00     0.255 C 
ATOM     29  O   UNL d   1      30.097 -13.005   1.912  0.00  0.00    -0.268 OA
ATOM     30  N   UNL d   1      27.896 -13.134   2.531  0.00  0.00    -0.323 N 
ATOM     31  H   UNL d   1      26.925 -13.188   2.250  0.00  0.00     0.169 HD
BRANCH  30  32
ATOM     32  C   UNL d   1      28.206 -13.394   3.897  0.00  0.00     0.041 A 
ATOM     33  C   UNL d   1      28.232 -14.674   4.500  0.00  0.00     0.030 A 
ATOM     34  C   UNL d   1      28.518 -14.825   5.859  0.00  0.00     0.002 A 
ATOM     35  C   UNL d   1      28.765 -13.698   6.624  0.00  0.00     0.001 A 
ATOM     36  C   UNL d   1      28.729 -12.433   6.034  0.00  0.00     0.009 A 
ATOM     37  C   UNL d   1      28.446 -12.270   4.675  0.00  0.00    -0.035 A 
ATOM     38  C   UNL d   1      28.335 -10.911   4.051  0.00  0.00     0.050 C 
ENDBRANCH  30  32
ENDBRANCH   3  28
TORSDOF 7
ENDMDL
