MODEL 1
REMARK VINA RESULT:    -9.447      0.000      0.000
REMARK INTER + INTRA:         -16.152
REMARK INTER:                 -13.026
REMARK INTRA:                  -3.125
REMARK CONF_INDEPENDENT:        3.580
REMARK UNBOUND:                -3.125
REMARK  12 active torsions:
REMARK  status: ('A' for Active; 'I' for Inactive)
REMARK    1  A    between atoms: C_2  and  N_3 
REMARK    2  A    between atoms: N_3  and  C_4 
REMARK    3  A    between atoms: N_3  and  C_22 
REMARK    4  A    between atoms: C_4  and  C_5 
REMARK    5  A    between atoms: C_9  and  C_10 
REMARK    6  A    between atoms: C_10  and  O_12 
REMARK    7  A    between atoms: O_12  and  C_13 
REMARK    8  A    between atoms: C_23  and  C_22 
REMARK    9  A    between atoms: C_23  and  C_25 
REMARK   10  A    between atoms: C_23  and  O_24 
REMARK   11  A    between atoms: C_25  and  O_26 
REMARK   12  A    between atoms: O_26  and  C_27 
ROOT
ATOM      1  C   UNL d   1      28.136 -14.831   1.084  0.00  0.00     0.134 C 
ATOM      2  N   UNL d   1      27.774 -13.976   0.179  0.00  0.00    -0.225 NA
ATOM      3  C   UNL d   1      27.179 -14.528  -0.912  0.00  0.00     0.116 C 
ATOM      4  S   UNL d   1      27.283 -13.816  -2.453  0.00  0.00    -0.063 SA
ATOM      5  C   UNL d   1      26.229 -14.971  -3.143  0.00  0.00     0.089 C 
ATOM      6  C   UNL d   1      25.919 -15.969  -2.219  0.00  0.00    -0.020 C 
ATOM      7  C   UNL d   1      24.943 -17.075  -2.395  0.00  0.00     0.051 C 
ATOM      8  C   UNL d   1      26.609 -15.766  -0.971  0.00  0.00     0.075 C 
ATOM      9  C   UNL d   1      26.693 -16.568   0.242  0.00  0.00     0.260 C 
ATOM     10  O   UNL d   1      26.003 -17.532   0.489  0.00  0.00    -0.267 OA
ATOM     11  N   UNL d   1      27.645 -16.107   1.145  0.00  0.00    -0.309 N 
ATOM     12  H   UNL d   1      27.684 -16.639   2.004  0.00  0.00     0.170 HD
ENDROOT
BRANCH   1  13
ATOM     13  C   UNL d   1      29.251 -14.440   2.059  0.00  0.00     0.313 C 
BRANCH  13  14
ATOM     14  N   UNL d   1      28.809 -14.452   3.528  0.00  0.00    -0.062 N 
ATOM     15  H   UNL d   1      28.532 -15.430   3.724  0.00  0.00     0.280 HD
BRANCH  14  16
ATOM     16  C   UNL d   1      27.615 -13.570   3.886  0.00  0.00     0.231 C 
ATOM     17  C   UNL d   1      27.896 -12.354   4.687  0.00  0.00     0.034 C 
ENDBRANCH  14  16
BRANCH  14  18
ATOM     18  C   UNL d   1      29.985 -14.090   4.423  0.00  0.00     0.269 C 
BRANCH  18  19
ATOM     19  C   UNL d   1      29.909 -14.825   5.760  0.00  0.00     0.168 C 
BRANCH  19  20
ATOM     20  C   UNL d   1      29.945 -13.837   6.891  0.00  0.00     0.209 C 
BRANCH  20  21
ATOM     21  O   UNL d   1      28.664 -13.678   7.476  0.00  0.00    -0.348 OA
BRANCH  21  22
ATOM     22  C   UNL d   1      28.718 -13.498   8.836  0.00  0.00     0.074 C 
ATOM     23  C   UNL d   1      28.530 -14.649   9.605  0.00  0.00     0.037 C 
ATOM     24  C   UNL d   1      28.739 -14.604  10.984  0.00  0.00     0.003 C 
ATOM     25  C   UNL d   1      28.837 -13.375  11.625  0.00  0.00     0.001 C 
ATOM     26  C   UNL d   1      28.870 -12.208  10.874  0.00  0.00     0.009 C 
ATOM     27  C   UNL d   1      28.910 -12.261   9.475  0.00  0.00    -0.029 C 
ATOM     28  C   UNL d   1      29.193 -10.977   8.758  0.00  0.00     0.051 C 
ENDBRANCH  21  22
ENDBRANCH  20  21
ENDBRANCH  19  20
BRANCH  19  29
ATOM     29  O   UNL d   1      28.701 -15.575   5.958  0.00  0.00    -0.392 OA
ATOM     30  H   UNL d   1      28.462 -15.605   6.902  0.00  0.00     0.210 HD
ENDBRANCH  19  29
ENDBRANCH  18  19
ENDBRANCH  14  18
ENDBRANCH  13  14
ENDBRANCH   1  13
BRANCH   5  31
ATOM     31  C   UNL d   1      25.792 -14.691  -4.505  0.00  0.00     0.301 C 
ATOM     32  O   UNL d   1      24.780 -14.076  -4.809  0.00  0.00    -0.259 OA
BRANCH  31  33
ATOM     33  O   UNL d   1      26.655 -15.235  -5.405  0.00  0.00    -0.312 OA
BRANCH  33  34
ATOM     34  C   UNL d   1      28.025 -14.802  -5.347  0.00  0.00     0.124 C 
ATOM     35  C   UNL d   1      28.905 -15.917  -4.797  0.00  0.00     0.040 C 
ATOM     36  C   UNL d   1      28.474 -14.470  -6.772  0.00  0.00     0.040 C 
ENDBRANCH  33  34
ENDBRANCH  31  33
ENDBRANCH   5  31
TORSDOF 12
ENDMDL
MODEL 2
REMARK VINA RESULT:    -9.021      2.542      4.237
REMARK INTER + INTRA:         -15.712
REMARK INTER:                 -12.600
REMARK INTRA:                  -3.112
REMARK CONF_INDEPENDENT:        3.580
REMARK UNBOUND:                -3.112
REMARK  12 active torsions:
REMARK  status: ('A' for Active; 'I' for Inactive)
REMARK    1  A    between atoms: C_2  and  N_3 
REMARK    2  A    between atoms: N_3  and  C_4 
REMARK    3  A    between atoms: N_3  and  C_22 
REMARK    4  A    between atoms: C_4  and  C_5 
REMARK    5  A    between atoms: C_9  and  C_10 
REMARK    6  A    between atoms: C_10  and  O_12 
REMARK    7  A    between atoms: O_12  and  C_13 
REMARK    8  A    between atoms: C_23  and  C_22 
REMARK    9  A    between atoms: C_23  and  C_25 
REMARK   10  A    between atoms: C_23  and  O_24 
REMARK   11  A    between atoms: C_25  and  O_26 
REMARK   12  A    between atoms: O_26  and  C_27 
ROOT
ATOM      1  C   UNL d   1      28.212 -15.260   0.838  0.00  0.00     0.134 C 
ATOM      2  N   UNL d   1      27.925 -16.522   0.764  0.00  0.00    -0.225 NA
ATOM      3  C   UNL d   1      26.644 -16.787   0.391  0.00  0.00     0.116 C 
ATOM      4  S   UNL d   1      25.828 -18.190   0.903  0.00  0.00    -0.063 SA
ATOM      5  C   UNL d   1      24.458 -17.836  -0.056  0.00  0.00     0.089 C 
ATOM      6  C   UNL d   1      24.584 -16.579  -0.649  0.00  0.00    -0.020 C 
ATOM      7  C   UNL d   1      23.666 -15.968  -1.645  0.00  0.00     0.051 C 
ATOM      8  C   UNL d   1      25.803 -15.926  -0.249  0.00  0.00     0.075 C 
ATOM      9  C   UNL d   1      26.329 -14.593  -0.509  0.00  0.00     0.260 C 
ATOM     10  O   UNL d   1      25.875 -13.809  -1.313  0.00  0.00    -0.267 OA
ATOM     11  N   UNL d   1      27.456 -14.286   0.245  0.00  0.00    -0.309 N 
ATOM     12  H   UNL d   1      27.847 -13.375   0.043  0.00  0.00     0.170 HD
ENDROOT
BRANCH   1  13
ATOM     13  C   UNL d   1      29.380 -14.825   1.729  0.00  0.00     0.313 C 
BRANCH  13  14
ATOM     14  N   UNL d   1      28.980 -14.597   3.192  0.00  0.00    -0.062 N 
ATOM     15  H   UNL d   1      28.552 -15.488   3.503  0.00  0.00     0.280 HD
BRANCH  14  16
ATOM     16  C   UNL d   1      27.953 -13.496   3.453  0.00  0.00     0.231 C 
ATOM     17  C   UNL d   1      27.029 -13.699   4.596  0.00  0.00     0.034 C 
ENDBRANCH  14  16
BRANCH  14  18
ATOM     18  C   UNL d   1      30.221 -14.333   4.032  0.00  0.00     0.269 C 
BRANCH  18  19
ATOM     19  C   UNL d   1      30.055 -14.876   5.450  0.00  0.00     0.168 C 
BRANCH  19  20
ATOM     20  C   UNL d   1      30.049 -13.742   6.435  0.00  0.00     0.209 C 
BRANCH  20  21
ATOM     21  O   UNL d   1      28.781 -13.603   7.051  0.00  0.00    -0.348 OA
BRANCH  21  22
ATOM     22  C   UNL d   1      28.863 -13.468   8.416  0.00  0.00     0.074 C 
ATOM     23  C   UNL d   1      28.905 -14.663   9.139  0.00  0.00     0.037 C 
ATOM     24  C   UNL d   1      29.162 -14.635  10.509  0.00  0.00     0.003 C 
ATOM     25  C   UNL d   1      29.082 -13.432  11.201  0.00  0.00     0.001 C 
ATOM     26  C   UNL d   1      28.886 -12.249  10.502  0.00  0.00     0.009 C 
ATOM     27  C   UNL d   1      28.873 -12.241   9.102  0.00  0.00    -0.029 C 
ATOM     28  C   UNL d   1      28.905 -10.902   8.433  0.00  0.00     0.051 C 
ENDBRANCH  21  22
ENDBRANCH  20  21
ENDBRANCH  19  20
BRANCH  19  29
ATOM     29  O   UNL d   1      28.822 -15.575   5.678  0.00  0.00    -0.392 OA
ATOM     30  H   UNL d   1      28.589 -15.566   6.624  0.00  0.00     0.210 HD
ENDBRANCH  19  29
ENDBRANCH  18  19
ENDBRANCH  14  18
ENDBRANCH  13  14
ENDBRANCH   1  13
BRANCH   5  31
ATOM     31  C   UNL d   1      23.461 -18.896  -0.146  0.00  0.00     0.301 C 
ATOM     32  O   UNL d   1      23.559 -19.899  -0.836  0.00  0.00    -0.259 OA
BRANCH  31  33
ATOM     33  O   UNL d   1      22.382 -18.602   0.629  0.00  0.00    -0.312 OA
BRANCH  33  34
ATOM     34  C   UNL d   1      21.083 -18.898   0.088  0.00  0.00     0.124 C 
ATOM     35  C   UNL d   1      21.148 -18.950  -1.433  0.00  0.00     0.040 C 
ATOM     36  C   UNL d   1      20.655 -20.269   0.615  0.00  0.00     0.040 C 
ENDBRANCH  33  34
ENDBRANCH  31  33
ENDBRANCH   5  31
TORSDOF 12
ENDMDL
MODEL 3
REMARK VINA RESULT:    -8.873      5.746      6.781
REMARK INTER + INTRA:         -16.624
REMARK INTER:                 -12.453
REMARK INTRA:                  -4.172
REMARK CONF_INDEPENDENT:        3.580
REMARK UNBOUND:                -4.172
REMARK  12 active torsions:
REMARK  status: ('A' for Active; 'I' for Inactive)
REMARK    1  A    between atoms: C_2  and  N_3 
REMARK    2  A    between atoms: N_3  and  C_4 
REMARK    3  A    between atoms: N_3  and  C_22 
REMARK    4  A    between atoms: C_4  and  C_5 
REMARK    5  A    between atoms: C_9  and  C_10 
REMARK    6  A    between atoms: C_10  and  O_12 
REMARK    7  A    between atoms: O_12  and  C_13 
REMARK    8  A    between atoms: C_23  and  C_22 
REMARK    9  A    between atoms: C_23  and  C_25 
REMARK   10  A    between atoms: C_23  and  O_24 
REMARK   11  A    between atoms: C_25  and  O_26 
REMARK   12  A    between atoms: O_26  and  C_27 
ROOT
ATOM      1  C   UNL d   1      29.898 -17.424  -1.152  0.00  0.00     0.134 C 
ATOM      2  N   UNL d   1      29.663 -16.299  -1.751  0.00  0.00    -0.225 NA
ATOM      3  C   UNL d   1      28.354 -16.081  -2.047  0.00  0.00     0.116 C 
ATOM      4  S   UNL d   1      27.875 -15.147  -3.386  0.00  0.00    -0.063 SA
ATOM      5  C   UNL d   1      26.222 -15.252  -2.966  0.00  0.00     0.089 C 
ATOM      6  C   UNL d   1      26.042 -16.116  -1.886  0.00  0.00    -0.020 C 
ATOM      7  C   UNL d   1      24.776 -16.375  -1.153  0.00  0.00     0.051 C 
ATOM      8  C   UNL d   1      27.288 -16.703  -1.466  0.00  0.00     0.075 C 
ATOM      9  C   UNL d   1      27.605 -17.719  -0.472  0.00  0.00     0.260 C 
ATOM     10  O   UNL d   1      26.832 -18.150   0.355  0.00  0.00    -0.267 OA
ATOM     11  N   UNL d   1      28.924 -18.155  -0.527  0.00  0.00    -0.309 N 
ATOM     12  H   UNL d   1      29.160 -18.835   0.184  0.00  0.00     0.170 HD
ENDROOT
BRANCH   1  13
ATOM     13  C   UNL d   1      31.303 -18.027  -1.247  0.00  0.00     0.313 C 
BRANCH  13  14
ATOM     14  N   UNL d   1      31.816 -18.592   0.084  0.00  0.00    -0.062 N 
ATOM     15  H   UNL d   1      30.971 -18.754   0.659  0.00  0.00     0.280 HD
BRANCH  14  16
ATOM     16  C   UNL d   1      32.739 -17.685   0.897  0.00  0.00     0.231 C 
ATOM     17  C   UNL d   1      32.693 -17.832   2.372  0.00  0.00     0.034 C 
ENDBRANCH  14  16
BRANCH  14  18
ATOM     18  C   UNL d   1      32.508 -19.926  -0.154  0.00  0.00     0.269 C 
BRANCH  18  19
ATOM     19  C   UNL d   1      31.496 -21.067  -0.231  0.00  0.00     0.168 C 
BRANCH  19  20
ATOM     20  C   UNL d   1      31.791 -22.087   0.832  0.00  0.00     0.209 C 
BRANCH  20  21
ATOM     21  O   UNL d   1      30.944 -21.918   1.956  0.00  0.00    -0.348 OA
BRANCH  21  22
ATOM     22  C   UNL d   1      31.631 -21.570   3.094  0.00  0.00     0.074 C 
ATOM     23  C   UNL d   1      32.969 -21.216   2.905  0.00  0.00     0.037 C 
ATOM     24  C   UNL d   1      33.701 -20.683   3.966  0.00  0.00     0.003 C 
ATOM     25  C   UNL d   1      33.206 -20.779   5.261  0.00  0.00     0.001 C 
ATOM     26  C   UNL d   1      31.927 -21.276   5.473  0.00  0.00     0.009 C 
ATOM     27  C   UNL d   1      31.092 -21.583   4.392  0.00  0.00    -0.029 C 
ATOM     28  C   UNL d   1      29.658 -21.874   4.706  0.00  0.00     0.051 C 
ENDBRANCH  21  22
ENDBRANCH  20  21
ENDBRANCH  19  20
BRANCH  19  29
ATOM     29  O   UNL d   1      30.135 -20.672  -0.001  0.00  0.00    -0.392 OA
ATOM     30  H   UNL d   1      29.941 -20.634   0.953  0.00  0.00     0.210 HD
ENDBRANCH  19  29
ENDBRANCH  18  19
ENDBRANCH  14  18
ENDBRANCH  13  14
ENDBRANCH   1  13
BRANCH   5  31
ATOM     31  C   UNL d   1      25.322 -14.400  -3.734  0.00  0.00     0.301 C 
ATOM     32  O   UNL d   1      24.787 -14.707  -4.789  0.00  0.00    -0.259 OA
BRANCH  31  33
ATOM     33  O   UNL d   1      25.176 -13.191  -3.126  0.00  0.00    -0.312 OA
BRANCH  33  34
ATOM     34  C   UNL d   1      26.036 -12.126  -3.566  0.00  0.00     0.124 C 
ATOM     35  C   UNL d   1      27.177 -11.930  -2.576  0.00  0.00     0.040 C 
ATOM     36  C   UNL d   1      26.618 -12.521  -4.925  0.00  0.00     0.040 C 
ENDBRANCH  33  34
ENDBRANCH  31  33
ENDBRANCH   5  31
TORSDOF 12
ENDMDL
MODEL 4
REMARK VINA RESULT:    -8.747      6.508     11.449
REMARK INTER + INTRA:         -15.925
REMARK INTER:                 -12.326
REMARK INTRA:                  -3.599
REMARK CONF_INDEPENDENT:        3.580
REMARK UNBOUND:                -3.599
REMARK  12 active torsions:
REMARK  status: ('A' for Active; 'I' for Inactive)
REMARK    1  A    between atoms: C_2  and  N_3 
REMARK    2  A    between atoms: N_3  and  C_4 
REMARK    3  A    between atoms: N_3  and  C_22 
REMARK    4  A    between atoms: C_4  and  C_5 
REMARK    5  A    between atoms: C_9  and  C_10 
REMARK    6  A    between atoms: C_10  and  O_12 
REMARK    7  A    between atoms: O_12  and  C_13 
REMARK    8  A    between atoms: C_23  and  C_22 
REMARK    9  A    between atoms: C_23  and  C_25 
REMARK   10  A    between atoms: C_23  and  O_24 
REMARK   11  A    between atoms: C_25  and  O_26 
REMARK   12  A    between atoms: O_26  and  C_27 
ROOT
ATOM      1  C   UNL d   1      33.410 -19.019   1.319  0.00  0.00     0.134 C 
ATOM      2  N   UNL d   1      32.509 -19.193   2.235  0.00  0.00    -0.225 NA
ATOM      3  C   UNL d   1      32.953 -19.837   3.347  0.00  0.00     0.116 C 
ATOM      4  S   UNL d   1      31.926 -20.802   4.301  0.00  0.00    -0.063 SA
ATOM      5  C   UNL d   1      33.144 -21.080   5.467  0.00  0.00     0.089 C 
ATOM      6  C   UNL d   1      34.362 -20.547   5.044  0.00  0.00    -0.020 C 
ATOM      7  C   UNL d   1      35.623 -20.476   5.827  0.00  0.00     0.051 C 
ATOM      8  C   UNL d   1      34.255 -19.960   3.734  0.00  0.00     0.075 C 
ATOM      9  C   UNL d   1      35.245 -19.378   2.839  0.00  0.00     0.260 C 
ATOM     10  O   UNL d   1      36.388 -19.113   3.141  0.00  0.00    -0.267 OA
ATOM     11  N   UNL d   1      34.753 -19.112   1.566  0.00  0.00    -0.309 N 
ATOM     12  H   UNL d   1      35.427 -18.676   0.950  0.00  0.00     0.170 HD
ENDROOT
BRANCH   1  13
ATOM     13  C   UNL d   1      32.955 -18.819  -0.130  0.00  0.00     0.313 C 
BRANCH  13  14
ATOM     14  N   UNL d   1      31.433 -18.895  -0.308  0.00  0.00    -0.062 N 
ATOM     15  H   UNL d   1      31.035 -18.617   0.607  0.00  0.00     0.280 HD
BRANCH  14  16
ATOM     16  C   UNL d   1      30.856 -20.268  -0.646  0.00  0.00     0.231 C 
ATOM     17  C   UNL d   1      31.235 -20.849  -1.957  0.00  0.00     0.034 C 
ENDBRANCH  14  16
BRANCH  14  18
ATOM     18  C   UNL d   1      30.986 -17.890  -1.359  0.00  0.00     0.269 C 
BRANCH  18  19
ATOM     19  C   UNL d   1      30.004 -16.877  -0.774  0.00  0.00     0.168 C 
BRANCH  19  20
ATOM     20  C   UNL d   1      28.609 -17.433  -0.815  0.00  0.00     0.209 C 
BRANCH  20  21
ATOM     21  O   UNL d   1      27.700 -16.589  -0.128  0.00  0.00    -0.348 OA
BRANCH  21  22
ATOM     22  C   UNL d   1      26.387 -16.927  -0.352  0.00  0.00     0.074 C 
ATOM     23  C   UNL d   1      25.863 -17.904   0.498  0.00  0.00     0.037 C 
ATOM     24  C   UNL d   1      24.498 -18.190   0.467  0.00  0.00     0.003 C 
ATOM     25  C   UNL d   1      23.723 -17.732  -0.591  0.00  0.00     0.001 C 
ATOM     26  C   UNL d   1      24.280 -16.878  -1.533  0.00  0.00     0.009 C 
ATOM     27  C   UNL d   1      25.583 -16.389  -1.371  0.00  0.00    -0.029 C 
ATOM     28  C   UNL d   1      26.012 -15.289  -2.291  0.00  0.00     0.051 C 
ENDBRANCH  21  22
ENDBRANCH  20  21
ENDBRANCH  19  20
BRANCH  19  29
ATOM     29  O   UNL d   1      30.236 -16.553   0.605  0.00  0.00    -0.392 OA
ATOM     30  H   UNL d   1      29.427 -16.681   1.133  0.00  0.00     0.210 HD
ENDBRANCH  19  29
ENDBRANCH  18  19
ENDBRANCH  14  18
ENDBRANCH  13  14
ENDBRANCH   1  13
BRANCH   5  31
ATOM     31  C   UNL d   1      32.705 -21.740   6.691  0.00  0.00     0.301 C 
ATOM     32  O   UNL d   1      31.541 -21.946   7.002  0.00  0.00    -0.259 OA
BRANCH  31  33
ATOM     33  O   UNL d   1      33.774 -22.074   7.463  0.00  0.00    -0.312 OA
BRANCH  33  34
ATOM     34  C   UNL d   1      34.210 -23.444   7.427  0.00  0.00     0.124 C 
ATOM     35  C   UNL d   1      34.818 -23.765   6.068  0.00  0.00     0.040 C 
ATOM     36  C   UNL d   1      35.279 -23.626   8.506  0.00  0.00     0.040 C 
ENDBRANCH  33  34
ENDBRANCH  31  33
ENDBRANCH   5  31
TORSDOF 12
ENDMDL
MODEL 5
REMARK VINA RESULT:    -8.684      5.689      7.208
REMARK INTER + INTRA:         -16.506
REMARK INTER:                 -12.264
REMARK INTRA:                  -4.242
REMARK CONF_INDEPENDENT:        3.580
REMARK UNBOUND:                -4.242
REMARK  12 active torsions:
REMARK  status: ('A' for Active; 'I' for Inactive)
REMARK    1  A    between atoms: C_2  and  N_3 
REMARK    2  A    between atoms: N_3  and  C_4 
REMARK    3  A    between atoms: N_3  and  C_22 
REMARK    4  A    between atoms: C_4  and  C_5 
REMARK    5  A    between atoms: C_9  and  C_10 
REMARK    6  A    between atoms: C_10  and  O_12 
REMARK    7  A    between atoms: O_12  and  C_13 
REMARK    8  A    between atoms: C_23  and  C_22 
REMARK    9  A    between atoms: C_23  and  C_25 
REMARK   10  A    between atoms: C_23  and  O_24 
REMARK   11  A    between atoms: C_25  and  O_26 
REMARK   12  A    between atoms: O_26  and  C_27 
ROOT
ATOM      1  C   UNL d   1      30.492 -17.097  -0.762  0.00  0.00     0.134 C 
ATOM      2  N   UNL d   1      29.690 -18.089  -0.531  0.00  0.00    -0.225 NA
ATOM      3  C   UNL d   1      28.369 -17.772  -0.592  0.00  0.00     0.116 C 
ATOM      4  S   UNL d   1      27.200 -18.594   0.331  0.00  0.00    -0.063 SA
ATOM      5  C   UNL d   1      25.912 -17.741  -0.398  0.00  0.00     0.089 C 
ATOM      6  C   UNL d   1      26.397 -16.740  -1.239  0.00  0.00    -0.020 C 
ATOM      7  C   UNL d   1      25.600 -15.869  -2.142  0.00  0.00     0.051 C 
ATOM      8  C   UNL d   1      27.836 -16.682  -1.216  0.00  0.00     0.075 C 
ATOM      9  C   UNL d   1      28.789 -15.767  -1.829  0.00  0.00     0.260 C 
ATOM     10  O   UNL d   1      28.517 -14.938  -2.670  0.00  0.00    -0.267 OA
ATOM     11  N   UNL d   1      30.093 -15.943  -1.380  0.00  0.00    -0.309 N 
ATOM     12  H   UNL d   1      30.765 -15.333  -1.828  0.00  0.00     0.170 HD
ENDROOT
BRANCH   1  13
ATOM     13  C   UNL d   1      31.920 -17.165  -0.215  0.00  0.00     0.313 C 
BRANCH  13  14
ATOM     14  N   UNL d   1      32.108 -18.235   0.869  0.00  0.00    -0.062 N 
ATOM     15  H   UNL d   1      31.158 -18.591   1.073  0.00  0.00     0.280 HD
BRANCH  14  16
ATOM     16  C   UNL d   1      32.701 -17.762   2.195  0.00  0.00     0.231 C 
ATOM     17  C   UNL d   1      32.695 -16.301   2.448  0.00  0.00     0.034 C 
ENDBRANCH  14  16
BRANCH  14  18
ATOM     18  C   UNL d   1      32.950 -19.379   0.324  0.00  0.00     0.269 C 
BRANCH  18  19
ATOM     19  C   UNL d   1      32.177 -20.696   0.349  0.00  0.00     0.168 C 
BRANCH  19  20
ATOM     20  C   UNL d   1      32.234 -21.298   1.724  0.00  0.00     0.209 C 
BRANCH  20  21
ATOM     21  O   UNL d   1      31.767 -20.387   2.704  0.00  0.00    -0.348 OA
BRANCH  21  22
ATOM     22  C   UNL d   1      32.019 -20.808   3.987  0.00  0.00     0.074 C 
ATOM     23  C   UNL d   1      30.903 -21.229   4.714  0.00  0.00     0.037 C 
ATOM     24  C   UNL d   1      31.074 -21.835   5.958  0.00  0.00     0.003 C 
ATOM     25  C   UNL d   1      32.304 -21.753   6.600  0.00  0.00     0.001 C 
ATOM     26  C   UNL d   1      33.389 -21.193   5.939  0.00  0.00     0.009 C 
ATOM     27  C   UNL d   1      33.285 -20.807   4.597  0.00  0.00    -0.029 C 
ATOM     28  C   UNL d   1      34.558 -20.447   3.897  0.00  0.00     0.051 C 
ENDBRANCH  21  22
ENDBRANCH  20  21
ENDBRANCH  19  20
BRANCH  19  29
ATOM     29  O   UNL d   1      30.777 -20.569   0.055  0.00  0.00    -0.392 OA
ATOM     30  H   UNL d   1      30.420 -19.740   0.421  0.00  0.00     0.210 HD
ENDBRANCH  19  29
ENDBRANCH  18  19
ENDBRANCH  14  18
ENDBRANCH  13  14
ENDBRANCH   1  13
BRANCH   5  31
ATOM     31  C   UNL d   1      24.575 -18.232  -0.086  0.00  0.00     0.301 C 
ATOM     32  O   UNL d   1      24.124 -18.381   1.041  0.00  0.00    -0.259 OA
BRANCH  31  33
ATOM     33  O   UNL d   1      23.898 -18.533  -1.227  0.00  0.00    -0.312 OA
BRANCH  33  34
ATOM     34  C   UNL d   1      22.501 -18.197  -1.271  0.00  0.00     0.124 C 
ATOM     35  C   UNL d   1      21.705 -19.151  -0.389  0.00  0.00     0.040 C 
ATOM     36  C   UNL d   1      22.341 -16.773  -0.735  0.00  0.00     0.040 C 
ENDBRANCH  33  34
ENDBRANCH  31  33
ENDBRANCH   5  31
TORSDOF 12
ENDMDL
MODEL 6
REMARK VINA RESULT:    -8.165      5.773      9.374
REMARK INTER + INTRA:         -15.886
REMARK INTER:                 -11.745
REMARK INTRA:                  -4.141
REMARK CONF_INDEPENDENT:        3.580
REMARK UNBOUND:                -4.141
REMARK  12 active torsions:
REMARK  status: ('A' for Active; 'I' for Inactive)
REMARK    1  A    between atoms: C_2  and  N_3 
REMARK    2  A    between atoms: N_3  and  C_4 
REMARK    3  A    between atoms: N_3  and  C_22 
REMARK    4  A    between atoms: C_4  and  C_5 
REMARK    5  A    between atoms: C_9  and  C_10 
REMARK    6  A    between atoms: C_10  and  O_12 
REMARK    7  A    between atoms: O_12  and  C_13 
REMARK    8  A    between atoms: C_23  and  C_22 
REMARK    9  A    between atoms: C_23  and  C_25 
REMARK   10  A    between atoms: C_23  and  O_24 
REMARK   11  A    between atoms: C_25  and  O_26 
REMARK   12  A    between atoms: O_26  and  C_27 
ROOT
ATOM      1  C   UNL d   1      29.739 -15.988  -0.133  0.00  0.00     0.134 C 
ATOM      2  N   UNL d   1      29.578 -15.198  -1.149  0.00  0.00    -0.225 NA
ATOM      3  C   UNL d   1      28.451 -15.434  -1.872  0.00  0.00     0.116 C 
ATOM      4  S   UNL d   1      28.364 -15.106  -3.539  0.00  0.00    -0.063 SA
ATOM      5  C   UNL d   1      26.706 -15.514  -3.612  0.00  0.00     0.089 C 
ATOM      6  C   UNL d   1      26.272 -16.028  -2.390  0.00  0.00    -0.020 C 
ATOM      7  C   UNL d   1      24.877 -16.380  -2.016  0.00  0.00     0.051 C 
ATOM      8  C   UNL d   1      27.349 -16.111  -1.439  0.00  0.00     0.075 C 
ATOM      9  C   UNL d   1      27.425 -16.660  -0.092  0.00  0.00     0.260 C 
ATOM     10  O   UNL d   1      26.475 -17.011   0.573  0.00  0.00    -0.267 OA
ATOM     11  N   UNL d   1      28.722 -16.727   0.406  0.00  0.00    -0.309 N 
ATOM     12  H   UNL d   1      28.777 -17.075   1.355  0.00  0.00     0.170 HD
ENDROOT
BRANCH   1  13
ATOM     13  C   UNL d   1      31.153 -16.197   0.417  0.00  0.00     0.313 C 
BRANCH  13  14
ATOM     14  N   UNL d   1      31.569 -17.672   0.487  0.00  0.00    -0.062 N 
ATOM     15  H   UNL d   1      31.146 -18.036   1.359  0.00  0.00     0.280 HD
BRANCH  14  16
ATOM     16  C   UNL d   1      33.069 -17.953   0.569  0.00  0.00     0.231 C 
ATOM     17  C   UNL d   1      33.554 -18.647   1.785  0.00  0.00     0.034 C 
ENDBRANCH  14  16
BRANCH  14  18
ATOM     18  C   UNL d   1      30.981 -18.431  -0.694  0.00  0.00     0.269 C 
BRANCH  18  19
ATOM     19  C   UNL d   1      31.722 -18.099  -1.988  0.00  0.00     0.168 C 
BRANCH  19  20
ATOM     20  C   UNL d   1      31.162 -18.911  -3.121  0.00  0.00     0.209 C 
BRANCH  20  21
ATOM     21  O   UNL d   1      30.303 -18.133  -3.936  0.00  0.00    -0.348 OA
BRANCH  21  22
ATOM     22  C   UNL d   1      30.481 -18.370  -5.277  0.00  0.00     0.074 C 
ATOM     23  C   UNL d   1      30.638 -19.711  -5.637  0.00  0.00     0.037 C 
ATOM     24  C   UNL d   1      30.650 -20.070  -6.985  0.00  0.00     0.003 C 
ATOM     25  C   UNL d   1      30.806 -19.089  -7.957  0.00  0.00     0.001 C 
ATOM     26  C   UNL d   1      30.807 -17.751  -7.590  0.00  0.00     0.009 C 
ATOM     27  C   UNL d   1      30.546 -17.373  -6.266  0.00  0.00    -0.029 C 
ATOM     28  C   UNL d   1      30.322 -15.916  -6.011  0.00  0.00     0.051 C 
ENDBRANCH  21  22
ENDBRANCH  20  21
ENDBRANCH  19  20
BRANCH  19  29
ATOM     29  O   UNL d   1      31.597 -16.733  -2.411  0.00  0.00    -0.392 OA
ATOM     30  H   UNL d   1      30.661 -16.489  -2.523  0.00  0.00     0.210 HD
ENDBRANCH  19  29
ENDBRANCH  18  19
ENDBRANCH  14  18
ENDBRANCH  13  14
ENDBRANCH   1  13
BRANCH   5  31
ATOM     31  C   UNL d   1      26.035 -15.201  -4.867  0.00  0.00     0.301 C 
ATOM     32  O   UNL d   1      26.396 -15.576  -5.973  0.00  0.00    -0.259 OA
BRANCH  31  33
ATOM     33  O   UNL d   1      24.956 -14.402  -4.645  0.00  0.00    -0.312 OA
BRANCH  33  34
ATOM     34  C   UNL d   1      25.204 -12.999  -4.452  0.00  0.00     0.124 C 
ATOM     35  C   UNL d   1      25.533 -12.722  -2.990  0.00  0.00     0.040 C 
ATOM     36  C   UNL d   1      26.406 -12.610  -5.315  0.00  0.00     0.040 C 
ENDBRANCH  33  34
ENDBRANCH  31  33
ENDBRANCH   5  31
TORSDOF 12
ENDMDL
MODEL 7
REMARK VINA RESULT:    -7.017      3.207      6.235
REMARK INTER + INTRA:         -16.024
REMARK INTER:                 -10.597
REMARK INTRA:                  -5.427
REMARK CONF_INDEPENDENT:        3.580
REMARK UNBOUND:                -5.427
REMARK  12 active torsions:
REMARK  status: ('A' for Active; 'I' for Inactive)
REMARK    1  A    between atoms: C_2  and  N_3 
REMARK    2  A    between atoms: N_3  and  C_4 
REMARK    3  A    between atoms: N_3  and  C_22 
REMARK    4  A    between atoms: C_4  and  C_5 
REMARK    5  A    between atoms: C_9  and  C_10 
REMARK    6  A    between atoms: C_10  and  O_12 
REMARK    7  A    between atoms: O_12  and  C_13 
REMARK    8  A    between atoms: C_23  and  C_22 
REMARK    9  A    between atoms: C_23  and  C_25 
REMARK   10  A    between atoms: C_23  and  O_24 
REMARK   11  A    between atoms: C_25  and  O_26 
REMARK   12  A    between atoms: O_26  and  C_27 
ROOT
ATOM      1  C   UNL d   1      27.812 -14.140   1.549  0.00  0.00     0.134 C 
ATOM      2  N   UNL d   1      27.121 -13.395   0.744  0.00  0.00    -0.225 NA
ATOM      3  C   UNL d   1      26.666 -14.035  -0.366  0.00  0.00     0.116 C 
ATOM      4  S   UNL d   1      26.415 -13.220  -1.839  0.00  0.00    -0.063 SA
ATOM      5  C   UNL d   1      25.758 -14.611  -2.585  0.00  0.00     0.089 C 
ATOM      6  C   UNL d   1      25.866 -15.718  -1.744  0.00  0.00    -0.020 C 
ATOM      7  C   UNL d   1      25.304 -17.074  -1.978  0.00  0.00     0.051 C 
ATOM      8  C   UNL d   1      26.538 -15.385  -0.515  0.00  0.00     0.075 C 
ATOM      9  C   UNL d   1      26.973 -16.196   0.614  0.00  0.00     0.260 C 
ATOM     10  O   UNL d   1      26.663 -17.353   0.802  0.00  0.00    -0.267 OA
ATOM     11  N   UNL d   1      27.780 -15.507   1.513  0.00  0.00    -0.309 N 
ATOM     12  H   UNL d   1      28.055 -16.056   2.317  0.00  0.00     0.170 HD
ENDROOT
BRANCH   1  13
ATOM     13  C   UNL d   1      28.800 -13.467   2.505  0.00  0.00     0.313 C 
BRANCH  13  14
ATOM     14  N   UNL d   1      29.718 -14.458   3.233  0.00  0.00    -0.062 N 
ATOM     15  H   UNL d   1      29.673 -15.332   2.680  0.00  0.00     0.280 HD
BRANCH  14  16
ATOM     16  C   UNL d   1      29.329 -14.819   4.666  0.00  0.00     0.231 C 
ATOM     17  C   UNL d   1      27.881 -14.828   4.984  0.00  0.00     0.034 C 
ENDBRANCH  14  16
BRANCH  14  18
ATOM     18  C   UNL d   1      31.150 -13.944   3.217  0.00  0.00     0.269 C 
BRANCH  18  19
ATOM     19  C   UNL d   1      31.717 -13.931   1.799  0.00  0.00     0.168 C 
BRANCH  19  20
ATOM     20  C   UNL d   1      31.456 -15.251   1.131  0.00  0.00     0.209 C 
BRANCH  20  21
ATOM     21  O   UNL d   1      30.149 -15.301   0.586  0.00  0.00    -0.348 OA
BRANCH  21  22
ATOM     22  C   UNL d   1      30.122 -15.810  -0.690  0.00  0.00     0.074 C 
ATOM     23  C   UNL d   1      30.310 -17.190  -0.793  0.00  0.00     0.037 C 
ATOM     24  C   UNL d   1      30.128 -17.825  -2.021  0.00  0.00     0.003 C 
ATOM     25  C   UNL d   1      30.055 -17.067  -3.183  0.00  0.00     0.001 C 
ATOM     26  C   UNL d   1      30.022 -15.682  -3.100  0.00  0.00     0.009 C 
ATOM     27  C   UNL d   1      29.955 -15.043  -1.856  0.00  0.00    -0.029 C 
ATOM     28  C   UNL d   1      29.674 -13.573  -1.865  0.00  0.00     0.051 C 
ENDBRANCH  21  22
ENDBRANCH  20  21
ENDBRANCH  19  20
BRANCH  19  29
ATOM     29  O   UNL d   1      31.128 -12.950   0.932  0.00  0.00    -0.392 OA
ATOM     30  H   UNL d   1      30.666 -13.378   0.189  0.00  0.00     0.210 HD
ENDBRANCH  19  29
ENDBRANCH  18  19
ENDBRANCH  14  18
ENDBRANCH  13  14
ENDBRANCH   1  13
BRANCH   5  31
ATOM     31  C   UNL d   1      25.155 -14.397  -3.895  0.00  0.00     0.301 C 
ATOM     32  O   UNL d   1      24.040 -13.936  -4.091  0.00  0.00    -0.259 OA
BRANCH  31  33
ATOM     33  O   UNL d   1      25.996 -14.811  -4.881  0.00  0.00    -0.312 OA
BRANCH  33  34
ATOM     34  C   UNL d   1      27.279 -14.166  -4.965  0.00  0.00     0.124 C 
ATOM     35  C   UNL d   1      28.127 -14.825  -6.045  0.00  0.00     0.040 C 
ATOM     36  C   UNL d   1      27.045 -12.701  -5.340  0.00  0.00     0.040 C 
ENDBRANCH  33  34
ENDBRANCH  31  33
ENDBRANCH   5  31
TORSDOF 12
ENDMDL
MODEL 8
REMARK VINA RESULT:    -6.478      3.355      4.872
REMARK INTER + INTRA:         -15.737
REMARK INTER:                 -10.058
REMARK INTRA:                  -5.679
REMARK CONF_INDEPENDENT:        3.580
REMARK UNBOUND:                -5.679
REMARK  12 active torsions:
REMARK  status: ('A' for Active; 'I' for Inactive)
REMARK    1  A    between atoms: C_2  and  N_3 
REMARK    2  A    between atoms: N_3  and  C_4 
REMARK    3  A    between atoms: N_3  and  C_22 
REMARK    4  A    between atoms: C_4  and  C_5 
REMARK    5  A    between atoms: C_9  and  C_10 
REMARK    6  A    between atoms: C_10  and  O_12 
REMARK    7  A    between atoms: O_12  and  C_13 
REMARK    8  A    between atoms: C_23  and  C_22 
REMARK    9  A    between atoms: C_23  and  C_25 
REMARK   10  A    between atoms: C_23  and  O_24 
REMARK   11  A    between atoms: C_25  and  O_26 
REMARK   12  A    between atoms: O_26  and  C_27 
ROOT
ATOM      1  C   UNL d   1      30.824 -15.658  -0.572  0.00  0.00     0.134 C 
ATOM      2  N   UNL d   1      30.487 -14.986  -1.628  0.00  0.00    -0.225 NA
ATOM      3  C   UNL d   1      29.243 -15.265  -2.100  0.00  0.00     0.116 C 
ATOM      4  S   UNL d   1      28.852 -15.129  -3.751  0.00  0.00    -0.063 SA
ATOM      5  C   UNL d   1      27.205 -15.487  -3.470  0.00  0.00     0.089 C 
ATOM      6  C   UNL d   1      26.998 -15.843  -2.137  0.00  0.00    -0.020 C 
ATOM      7  C   UNL d   1      25.693 -16.102  -1.475  0.00  0.00     0.051 C 
ATOM      8  C   UNL d   1      28.233 -15.851  -1.395  0.00  0.00     0.075 C 
ATOM      9  C   UNL d   1      28.551 -16.243  -0.029  0.00  0.00     0.260 C 
ATOM     10  O   UNL d   1      27.736 -16.483   0.835  0.00  0.00    -0.267 OA
ATOM     11  N   UNL d   1      29.916 -16.296   0.228  0.00  0.00    -0.309 N 
ATOM     12  H   UNL d   1      30.142 -16.533   1.185  0.00  0.00     0.170 HD
ENDROOT
BRANCH   1  13
ATOM     13  C   UNL d   1      32.313 -15.849  -0.269  0.00  0.00     0.313 C 
BRANCH  13  14
ATOM     14  N   UNL d   1      32.977 -14.607   0.339  0.00  0.00    -0.062 N 
ATOM     15  H   UNL d   1      32.199 -13.966   0.574  0.00  0.00     0.280 HD
BRANCH  14  16
ATOM     16  C   UNL d   1      33.931 -13.833  -0.570  0.00  0.00     0.231 C 
ATOM     17  C   UNL d   1      33.472 -13.572  -1.956  0.00  0.00     0.034 C 
ENDBRANCH  14  16
BRANCH  14  18
ATOM     18  C   UNL d   1      33.704 -14.984   1.621  0.00  0.00     0.269 C 
BRANCH  18  19
ATOM     19  C   UNL d   1      32.717 -15.309   2.740  0.00  0.00     0.168 C 
BRANCH  19  20
ATOM     20  C   UNL d   1      31.742 -14.178   2.909  0.00  0.00     0.209 C 
BRANCH  20  21
ATOM     21  O   UNL d   1      30.642 -14.312   2.026  0.00  0.00    -0.348 OA
BRANCH  21  22
ATOM     22  C   UNL d   1      29.434 -14.095   2.643  0.00  0.00     0.074 C 
ATOM     23  C   UNL d   1      29.363 -14.484   3.983  0.00  0.00     0.037 C 
ATOM     24  C   UNL d   1      28.243 -14.148   4.743  0.00  0.00     0.003 C 
ATOM     25  C   UNL d   1      27.090 -13.700   4.110  0.00  0.00     0.001 C 
ATOM     26  C   UNL d   1      27.107 -13.455   2.743  0.00  0.00     0.009 C 
ATOM     27  C   UNL d   1      28.299 -13.554   2.015  0.00  0.00    -0.029 C 
ATOM     28  C   UNL d   1      28.278 -13.037   0.611  0.00  0.00     0.051 C 
ENDBRANCH  21  22
ENDBRANCH  20  21
ENDBRANCH  19  20
BRANCH  19  29
ATOM     29  O   UNL d   1      31.905 -16.468   2.499  0.00  0.00    -0.392 OA
ATOM     30  H   UNL d   1      30.960 -16.232   2.480  0.00  0.00     0.210 HD
ENDBRANCH  19  29
ENDBRANCH  18  19
ENDBRANCH  14  18
ENDBRANCH  13  14
ENDBRANCH   1  13
BRANCH   5  31
ATOM     31  C   UNL d   1      26.316 -15.299  -4.610  0.00  0.00     0.301 C 
ATOM     32  O   UNL d   1      26.588 -15.575  -5.769  0.00  0.00    -0.259 OA
BRANCH  31  33
ATOM     33  O   UNL d   1      25.141 -14.740  -4.211  0.00  0.00    -0.312 OA
BRANCH  33  34
ATOM     34  C   UNL d   1      25.115 -13.313  -4.039  0.00  0.00     0.124 C 
ATOM     35  C   UNL d   1      25.531 -12.950  -2.620  0.00  0.00     0.040 C 
ATOM     36  C   UNL d   1      26.114 -12.702  -5.023  0.00  0.00     0.040 C 
ENDBRANCH  33  34
ENDBRANCH  31  33
ENDBRANCH   5  31
TORSDOF 12
ENDMDL
