MODEL 1
REMARK VINA RESULT:    -8.617      0.000      0.000
REMARK INTER + INTRA:         -10.746
REMARK INTER:                  -9.810
REMARK INTRA:                  -0.936
REMARK CONF_INDEPENDENT:        1.193
REMARK UNBOUND:                -0.936
REMARK  4 active torsions:
REMARK  status: ('A' for Active; 'I' for Inactive)
REMARK    1  A    between atoms: C_5  and  N_6 
REMARK       I    between atoms: N_6  and  C_7 
REMARK    2  A    between atoms: C_9  and  C_7 
REMARK    3  A    between atoms: C_9  and  N_11 
REMARK       I    between atoms: N_11  and  C_12 
REMARK    4  A    between atoms: C_12  and  C_14 
ROOT
ATOM      1  C   UNL d   1      25.020 -17.443   0.001  0.00  0.00     0.173 C 
ATOM      2  C   UNL d   1      26.258 -18.221   0.476  0.00  0.00     0.042 C 
ENDROOT
BRANCH   1   3
ATOM      3  N   UNL d   1      23.790 -18.230   0.174  0.00  0.00    -0.344 N 
ATOM      4  C   UNL d   1      22.553 -17.713  -0.149  0.00  0.00     0.252 C 
ATOM      5  O   UNL d   1      22.412 -16.620  -0.695  0.00  0.00    -0.268 OA
ATOM      6  H   UNL d   1      23.870 -19.154   0.580  0.00  0.00     0.163 HD
BRANCH   4   7
ATOM      7  C   UNL d   1      21.381 -18.596  -0.006  0.00  0.00     0.032 A 
ATOM      8  C   UNL d   1      21.030 -19.102   1.242  0.00  0.00     0.018 A 
ATOM      9  C   UNL d   1      19.889 -19.900   1.359  0.00  0.00     0.025 A 
ATOM     10  C   UNL d   1      19.121 -20.206   0.232  0.00  0.00     0.034 A 
ATOM     11 CL   UNL d   1      17.727 -21.200   0.392  0.00  0.00    -0.084 Cl
ATOM     12  C   UNL d   1      19.464 -19.700  -1.015  0.00  0.00     0.025 A 
ATOM     13  C   UNL d   1      20.583 -18.877  -1.127  0.00  0.00     0.018 A 
ENDBRANCH   4   7
ENDBRANCH   1   3
BRANCH   1  14
ATOM     14  C   UNL d   1      25.346 -16.989  -1.444  0.00  0.00     0.244 C 
ATOM     15  N   UNL d   1      26.406 -16.111  -1.592  0.00  0.00    -0.325 N 
ATOM     16  H   UNL d   1      26.963 -15.964  -0.767  0.00  0.00     0.169 HD
ATOM     17  O   UNL d   1      24.676 -17.464  -2.362  0.00  0.00    -0.271 OA
BRANCH  15  18
ATOM     18  C   UNL d   1      26.890 -15.551  -2.795  0.00  0.00     0.040 A 
ATOM     19  C   UNL d   1      28.166 -15.887  -3.240  0.00  0.00     0.030 A 
ATOM     20  C   UNL d   1      28.690 -15.386  -4.416  0.00  0.00     0.009 A 
ATOM     21  C   UNL d   1      27.939 -14.526  -5.202  0.00  0.00    -0.061 A 
ATOM     22  C   UNL d   1      28.537 -14.013  -6.473  0.00  0.00     0.048 C 
ATOM     23  C   UNL d   1      26.654 -14.163  -4.781  0.00  0.00     0.015 A 
ATOM     24  C   UNL d   1      26.115 -14.661  -3.573  0.00  0.00    -0.035 A 
ATOM     25  C   UNL d   1      24.729 -14.208  -3.208  0.00  0.00     0.050 C 
ENDBRANCH  15  18
ENDBRANCH   1  14
TORSDOF 4
ENDMDL
MODEL 2
REMARK VINA RESULT:    -7.850      4.212      8.958
REMARK INTER + INTRA:          -9.935
REMARK INTER:                  -9.044
REMARK INTRA:                  -0.892
REMARK CONF_INDEPENDENT:        1.193
REMARK UNBOUND:                -0.892
REMARK  4 active torsions:
REMARK  status: ('A' for Active; 'I' for Inactive)
REMARK    1  A    between atoms: C_5  and  N_6 
REMARK       I    between atoms: N_6  and  C_7 
REMARK    2  A    between atoms: C_9  and  C_7 
REMARK    3  A    between atoms: C_9  and  N_11 
REMARK       I    between atoms: N_11  and  C_12 
REMARK    4  A    between atoms: C_12  and  C_14 
ROOT
ATOM      1  C   UNL d   1      26.991 -13.811  -3.182  0.00  0.00     0.173 C 
ATOM      2  C   UNL d   1      26.437 -12.683  -4.069  0.00  0.00     0.042 C 
ENDROOT
BRANCH   1   3
ATOM      3  N   UNL d   1      28.151 -14.465  -3.806  0.00  0.00    -0.344 N 
ATOM      4  C   UNL d   1      28.027 -15.195  -4.969  0.00  0.00     0.252 C 
ATOM      5  O   UNL d   1      26.976 -15.256  -5.606  0.00  0.00    -0.268 OA
ATOM      6  H   UNL d   1      29.045 -14.400  -3.334  0.00  0.00     0.163 HD
BRANCH   4   7
ATOM      7  C   UNL d   1      29.254 -15.759  -5.560  0.00  0.00     0.032 A 
ATOM      8  C   UNL d   1      29.810 -16.927  -5.047  0.00  0.00     0.018 A 
ATOM      9  C   UNL d   1      30.947 -17.466  -5.653  0.00  0.00     0.025 A 
ATOM     10  C   UNL d   1      31.534 -16.828  -6.750  0.00  0.00     0.034 A 
ATOM     11 CL   UNL d   1      32.941 -17.498  -7.476  0.00  0.00    -0.084 Cl
ATOM     12  C   UNL d   1      30.981 -15.665  -7.270  0.00  0.00     0.025 A 
ATOM     13  C   UNL d   1      29.827 -15.145  -6.686  0.00  0.00     0.018 A 
ENDBRANCH   4   7
ENDBRANCH   1   3
BRANCH   1  14
ATOM     14  C   UNL d   1      25.779 -14.722  -2.865  0.00  0.00     0.244 C 
ATOM     15  N   UNL d   1      25.831 -15.429  -1.676  0.00  0.00    -0.325 N 
ATOM     16  H   UNL d   1      26.581 -15.174  -1.055  0.00  0.00     0.169 HD
ATOM     17  O   UNL d   1      24.838 -14.728  -3.661  0.00  0.00    -0.271 OA
BRANCH  15  18
ATOM     18  C   UNL d   1      24.862 -16.324  -1.171  0.00  0.00     0.040 A 
ATOM     19  C   UNL d   1      23.510 -16.029  -1.330  0.00  0.00     0.030 A 
ATOM     20  C   UNL d   1      22.516 -16.872  -0.873  0.00  0.00     0.009 A 
ATOM     21  C   UNL d   1      22.845 -18.060  -0.240  0.00  0.00    -0.061 A 
ATOM     22  C   UNL d   1      21.740 -18.950   0.230  0.00  0.00     0.048 C 
ATOM     23  C   UNL d   1      24.195 -18.384  -0.060  0.00  0.00     0.015 A 
ATOM     24  C   UNL d   1      25.220 -17.523  -0.512  0.00  0.00    -0.035 A 
ATOM     25  C   UNL d   1      26.636 -17.961  -0.266  0.00  0.00     0.050 C 
ENDBRANCH  15  18
ENDBRANCH   1  14
TORSDOF 4
ENDMDL
MODEL 3
REMARK VINA RESULT:    -7.534      5.078      7.932
REMARK INTER + INTRA:         -10.358
REMARK INTER:                  -8.727
REMARK INTRA:                  -1.631
REMARK CONF_INDEPENDENT:        1.193
REMARK UNBOUND:                -1.631
REMARK  4 active torsions:
REMARK  status: ('A' for Active; 'I' for Inactive)
REMARK    1  A    between atoms: C_5  and  N_6 
REMARK       I    between atoms: N_6  and  C_7 
REMARK    2  A    between atoms: C_9  and  C_7 
REMARK    3  A    between atoms: C_9  and  N_11 
REMARK       I    between atoms: N_11  and  C_12 
REMARK    4  A    between atoms: C_12  and  C_14 
ROOT
ATOM      1  C   UNL d   1      29.415 -15.857  -0.447  0.00  0.00     0.173 C 
ATOM      2  C   UNL d   1      30.455 -16.936  -0.794  0.00  0.00     0.042 C 
ENDROOT
BRANCH   1   3
ATOM      3  N   UNL d   1      29.459 -15.508   0.980  0.00  0.00    -0.344 N 
ATOM      4  C   UNL d   1      28.625 -14.547   1.513  0.00  0.00     0.252 C 
ATOM      5  O   UNL d   1      27.732 -14.008   0.860  0.00  0.00    -0.268 OA
ATOM      6  H   UNL d   1      30.152 -15.964   1.561  0.00  0.00     0.163 HD
BRANCH   4   7
ATOM      7  C   UNL d   1      28.691 -14.308   2.966  0.00  0.00     0.032 A 
ATOM      8  C   UNL d   1      27.533 -14.041   3.688  0.00  0.00     0.018 A 
ATOM      9  C   UNL d   1      27.616 -13.863   5.072  0.00  0.00     0.025 A 
ATOM     10  C   UNL d   1      28.853 -13.930   5.720  0.00  0.00     0.034 A 
ATOM     11 CL   UNL d   1      28.940 -13.695   7.421  0.00  0.00    -0.084 Cl
ATOM     12  C   UNL d   1      30.012 -14.201   5.005  0.00  0.00     0.025 A 
ATOM     13  C   UNL d   1      29.925 -14.412   3.630  0.00  0.00     0.018 A 
ENDBRANCH   4   7
ENDBRANCH   1   3
BRANCH   1  14
ATOM     14  C   UNL d   1      28.065 -16.396  -0.980  0.00  0.00     0.244 C 
ATOM     15  N   UNL d   1      27.041 -16.525  -0.056  0.00  0.00    -0.325 N 
ATOM     16  H   UNL d   1      27.221 -16.116   0.846  0.00  0.00     0.169 HD
ATOM     17  O   UNL d   1      27.974 -16.635  -2.185  0.00  0.00    -0.271 OA
BRANCH  15  18
ATOM     18  C   UNL d   1      25.731 -16.997  -0.291  0.00  0.00     0.040 A 
ATOM     19  C   UNL d   1      25.273 -18.114   0.404  0.00  0.00     0.030 A 
ATOM     20  C   UNL d   1      23.997 -18.614   0.231  0.00  0.00     0.009 A 
ATOM     21  C   UNL d   1      23.121 -17.998  -0.649  0.00  0.00    -0.061 A 
ATOM     22  C   UNL d   1      21.745 -18.563  -0.800  0.00  0.00     0.048 C 
ATOM     23  C   UNL d   1      23.551 -16.876  -1.366  0.00  0.00     0.015 A 
ATOM     24  C   UNL d   1      24.859 -16.364  -1.206  0.00  0.00    -0.035 A 
ATOM     25  C   UNL d   1      25.224 -15.159  -2.025  0.00  0.00     0.050 C 
ENDBRANCH  15  18
ENDBRANCH   1  14
TORSDOF 4
ENDMDL
MODEL 4
REMARK VINA RESULT:    -7.493      4.726      6.857
REMARK INTER + INTRA:         -10.272
REMARK INTER:                  -8.686
REMARK INTRA:                  -1.585
REMARK CONF_INDEPENDENT:        1.193
REMARK UNBOUND:                -1.585
REMARK  4 active torsions:
REMARK  status: ('A' for Active; 'I' for Inactive)
REMARK    1  A    between atoms: C_5  and  N_6 
REMARK       I    between atoms: N_6  and  C_7 
REMARK    2  A    between atoms: C_9  and  C_7 
REMARK    3  A    between atoms: C_9  and  N_11 
REMARK       I    between atoms: N_11  and  C_12 
REMARK    4  A    between atoms: C_12  and  C_14 
ROOT
ATOM      1  C   UNL d   1      27.757 -14.649  -0.441  0.00  0.00     0.173 C 
ATOM      2  C   UNL d   1      27.955 -13.529  -1.476  0.00  0.00     0.042 C 
ENDROOT
BRANCH   1   3
ATOM      3  N   UNL d   1      26.484 -15.354  -0.649  0.00  0.00    -0.344 N 
ATOM      4  C   UNL d   1      26.229 -16.571  -0.052  0.00  0.00     0.252 C 
ATOM      5  O   UNL d   1      26.994 -17.084   0.763  0.00  0.00    -0.268 OA
ATOM      6  H   UNL d   1      25.808 -14.941  -1.280  0.00  0.00     0.163 HD
BRANCH   4   7
ATOM      7  C   UNL d   1      24.900 -17.174  -0.262  0.00  0.00     0.032 A 
ATOM      8  C   UNL d   1      24.726 -18.549  -0.144  0.00  0.00     0.018 A 
ATOM      9  C   UNL d   1      23.448 -19.092  -0.303  0.00  0.00     0.025 A 
ATOM     10  C   UNL d   1      22.360 -18.266  -0.601  0.00  0.00     0.034 A 
ATOM     11 CL   UNL d   1      20.797 -18.951  -0.807  0.00  0.00    -0.084 Cl
ATOM     12  C   UNL d   1      22.528 -16.891  -0.715  0.00  0.00     0.025 A 
ATOM     13  C   UNL d   1      23.796 -16.346  -0.523  0.00  0.00     0.018 A 
ENDBRANCH   4   7
ENDBRANCH   1   3
BRANCH   1  14
ATOM     14  C   UNL d   1      27.951 -13.975   0.940  0.00  0.00     0.244 C 
ATOM     15  N   UNL d   1      28.254 -14.813   2.000  0.00  0.00    -0.325 N 
ATOM     16  H   UNL d   1      28.468 -15.764   1.750  0.00  0.00     0.169 HD
ATOM     17  O   UNL d   1      27.865 -12.747   1.000  0.00  0.00    -0.271 OA
BRANCH  15  18
ATOM     18  C   UNL d   1      28.468 -14.445   3.347  0.00  0.00     0.040 A 
ATOM     19  C   UNL d   1      27.380 -14.074   4.134  0.00  0.00     0.030 A 
ATOM     20  C   UNL d   1      27.522 -13.721   5.462  0.00  0.00     0.009 A 
ATOM     21  C   UNL d   1      28.773 -13.734   6.058  0.00  0.00    -0.061 A 
ATOM     22  C   UNL d   1      28.884 -13.356   7.499  0.00  0.00     0.048 C 
ATOM     23  C   UNL d   1      29.888 -14.097   5.293  0.00  0.00     0.015 A 
ATOM     24  C   UNL d   1      29.755 -14.449   3.930  0.00  0.00    -0.035 A 
ATOM     25  C   UNL d   1      31.014 -14.818   3.196  0.00  0.00     0.050 C 
ENDBRANCH  15  18
ENDBRANCH   1  14
TORSDOF 4
ENDMDL
MODEL 5
REMARK VINA RESULT:    -7.455      5.408      8.204
REMARK INTER + INTRA:         -10.299
REMARK INTER:                  -8.648
REMARK INTRA:                  -1.651
REMARK CONF_INDEPENDENT:        1.193
REMARK UNBOUND:                -1.651
REMARK  4 active torsions:
REMARK  status: ('A' for Active; 'I' for Inactive)
REMARK    1  A    between atoms: C_5  and  N_6 
REMARK       I    between atoms: N_6  and  C_7 
REMARK    2  A    between atoms: C_9  and  C_7 
REMARK    3  A    between atoms: C_9  and  N_11 
REMARK       I    between atoms: N_11  and  C_12 
REMARK    4  A    between atoms: C_12  and  C_14 
ROOT
ATOM      1  C   UNL d   1      29.020 -15.115   0.106  0.00  0.00     0.173 C 
ATOM      2  C   UNL d   1      30.357 -15.696  -0.381  0.00  0.00     0.042 C 
ENDROOT
BRANCH   1   3
ATOM      3  N   UNL d   1      29.057 -14.813   1.544  0.00  0.00    -0.344 N 
ATOM      4  C   UNL d   1      28.157 -13.942   2.121  0.00  0.00     0.252 C 
ATOM      5  O   UNL d   1      27.214 -13.453   1.499  0.00  0.00    -0.268 OA
ATOM      6  H   UNL d   1      29.793 -15.232   2.100  0.00  0.00     0.163 HD
BRANCH   4   7
ATOM      7  C   UNL d   1      28.225 -13.749   3.581  0.00  0.00     0.032 A 
ATOM      8  C   UNL d   1      28.498 -14.825   4.420  0.00  0.00     0.018 A 
ATOM      9  C   UNL d   1      28.602 -14.608   5.796  0.00  0.00     0.025 A 
ATOM     10  C   UNL d   1      28.412 -13.329   6.328  0.00  0.00     0.034 A 
ATOM     11 CL   UNL d   1      28.530 -13.082   8.025  0.00  0.00    -0.084 Cl
ATOM     12  C   UNL d   1      28.143 -12.250   5.494  0.00  0.00     0.025 A 
ATOM     13  C   UNL d   1      28.072 -12.460   4.118  0.00  0.00     0.018 A 
ENDBRANCH   4   7
ENDBRANCH   1   3
BRANCH   1  14
ATOM     14  C   UNL d   1      27.937 -16.121  -0.357  0.00  0.00     0.244 C 
ATOM     15  N   UNL d   1      26.666 -15.944   0.163  0.00  0.00    -0.325 N 
ATOM     16  H   UNL d   1      26.525 -15.090   0.677  0.00  0.00     0.169 HD
ATOM     17  O   UNL d   1      28.261 -16.979  -1.179  0.00  0.00    -0.271 OA
BRANCH  15  18
ATOM     18  C   UNL d   1      25.520 -16.728  -0.096  0.00  0.00     0.040 A 
ATOM     19  C   UNL d   1      24.376 -16.118  -0.605  0.00  0.00     0.030 A 
ATOM     20  C   UNL d   1      23.230 -16.833  -0.895  0.00  0.00     0.009 A 
ATOM     21  C   UNL d   1      23.192 -18.203  -0.690  0.00  0.00    -0.061 A 
ATOM     22  C   UNL d   1      21.937 -18.942  -1.026  0.00  0.00     0.048 C 
ATOM     23  C   UNL d   1      24.324 -18.846  -0.175  0.00  0.00     0.015 A 
ATOM     24  C   UNL d   1      25.497 -18.122   0.137  0.00  0.00    -0.035 A 
ATOM     25  C   UNL d   1      26.655 -18.906   0.689  0.00  0.00     0.050 C 
ENDBRANCH  15  18
ENDBRANCH   1  14
TORSDOF 4
ENDMDL
MODEL 6
REMARK VINA RESULT:    -7.142      4.669      6.510
REMARK INTER + INTRA:          -9.884
REMARK INTER:                  -8.336
REMARK INTRA:                  -1.548
REMARK CONF_INDEPENDENT:        1.193
REMARK UNBOUND:                -1.548
REMARK  4 active torsions:
REMARK  status: ('A' for Active; 'I' for Inactive)
REMARK    1  A    between atoms: C_5  and  N_6 
REMARK       I    between atoms: N_6  and  C_7 
REMARK    2  A    between atoms: C_9  and  C_7 
REMARK    3  A    between atoms: C_9  and  N_11 
REMARK       I    between atoms: N_11  and  C_12 
REMARK    4  A    between atoms: C_12  and  C_14 
ROOT
ATOM      1  C   UNL d   1      28.197 -15.775  -0.289  0.00  0.00     0.173 C 
ATOM      2  C   UNL d   1      28.775 -15.074  -1.529  0.00  0.00     0.042 C 
ENDROOT
BRANCH   1   3
ATOM      3  N   UNL d   1      26.809 -16.207  -0.513  0.00  0.00    -0.344 N 
ATOM      4  C   UNL d   1      26.265 -17.269   0.179  0.00  0.00     0.252 C 
ATOM      5  O   UNL d   1      26.861 -17.843   1.090  0.00  0.00    -0.268 OA
ATOM      6  H   UNL d   1      26.271 -15.729  -1.224  0.00  0.00     0.163 HD
BRANCH   4   7
ATOM      7  C   UNL d   1      24.847 -17.590  -0.060  0.00  0.00     0.032 A 
ATOM      8  C   UNL d   1      23.918 -16.573  -0.254  0.00  0.00     0.018 A 
ATOM      9  C   UNL d   1      22.588 -16.905  -0.525  0.00  0.00     0.025 A 
ATOM     10  C   UNL d   1      22.189 -18.244  -0.577  0.00  0.00     0.034 A 
ATOM     11 CL   UNL d   1      20.545 -18.634  -0.897  0.00  0.00    -0.084 Cl
ATOM     12  C   UNL d   1      23.113 -19.264  -0.388  0.00  0.00     0.025 A 
ATOM     13  C   UNL d   1      24.446 -18.934  -0.152  0.00  0.00     0.018 A 
ENDBRANCH   4   7
ENDBRANCH   1   3
BRANCH   1  14
ATOM     14  C   UNL d   1      28.429 -14.795   0.888  0.00  0.00     0.244 C 
ATOM     15  N   UNL d   1      27.921 -15.174   2.119  0.00  0.00    -0.325 N 
ATOM     16  H   UNL d   1      27.578 -16.119   2.171  0.00  0.00     0.169 HD
ATOM     17  O   UNL d   1      29.079 -13.772   0.666  0.00  0.00    -0.271 OA
BRANCH  15  18
ATOM     18  C   UNL d   1      27.994 -14.455   3.332  0.00  0.00     0.040 A 
ATOM     19  C   UNL d   1      28.418 -15.107   4.487  0.00  0.00     0.030 A 
ATOM     20  C   UNL d   1      28.527 -14.456   5.701  0.00  0.00     0.009 A 
ATOM     21  C   UNL d   1      28.220 -13.108   5.798  0.00  0.00    -0.061 A 
ATOM     22  C   UNL d   1      28.361 -12.436   7.126  0.00  0.00     0.048 C 
ATOM     23  C   UNL d   1      27.787 -12.424   4.656  0.00  0.00     0.015 A 
ATOM     24  C   UNL d   1      27.659 -13.085   3.413  0.00  0.00    -0.035 A 
ATOM     25  C   UNL d   1      27.182 -12.261   2.250  0.00  0.00     0.050 C 
ENDBRANCH  15  18
ENDBRANCH   1  14
TORSDOF 4
ENDMDL
MODEL 7
REMARK VINA RESULT:    -7.066      4.703      7.939
REMARK INTER + INTRA:          -9.839
REMARK INTER:                  -8.259
REMARK INTRA:                  -1.580
REMARK CONF_INDEPENDENT:        1.193
REMARK UNBOUND:                -1.580
REMARK  4 active torsions:
REMARK  status: ('A' for Active; 'I' for Inactive)
REMARK    1  A    between atoms: C_5  and  N_6 
REMARK       I    between atoms: N_6  and  C_7 
REMARK    2  A    between atoms: C_9  and  C_7 
REMARK    3  A    between atoms: C_9  and  N_11 
REMARK       I    between atoms: N_11  and  C_12 
REMARK    4  A    between atoms: C_12  and  C_14 
ROOT
ATOM      1  C   UNL d   1      26.669 -14.010  -1.766  0.00  0.00     0.173 C 
ATOM      2  C   UNL d   1      27.944 -14.626  -2.364  0.00  0.00     0.042 C 
ENDROOT
BRANCH   1   3
ATOM      3  N   UNL d   1      26.900 -13.518  -0.400  0.00  0.00    -0.344 N 
ATOM      4  C   UNL d   1      27.253 -14.374   0.623  0.00  0.00     0.252 C 
ATOM      5  O   UNL d   1      27.498 -15.565   0.438  0.00  0.00    -0.268 OA
ATOM      6  H   UNL d   1      26.752 -12.533  -0.216  0.00  0.00     0.163 HD
BRANCH   4   7
ATOM      7  C   UNL d   1      27.530 -13.785   1.946  0.00  0.00     0.032 A 
ATOM      8  C   UNL d   1      27.156 -12.474   2.225  0.00  0.00     0.018 A 
ATOM      9  C   UNL d   1      27.389 -11.954   3.501  0.00  0.00     0.025 A 
ATOM     10  C   UNL d   1      28.012 -12.734   4.480  0.00  0.00     0.034 A 
ATOM     11 CL   UNL d   1      28.304 -12.074   6.041  0.00  0.00    -0.084 Cl
ATOM     12  C   UNL d   1      28.384 -14.045   4.208  0.00  0.00     0.025 A 
ATOM     13  C   UNL d   1      28.121 -14.575   2.946  0.00  0.00     0.018 A 
ENDBRANCH   4   7
ENDBRANCH   1   3
BRANCH   1  14
ATOM     14  C   UNL d   1      25.570 -15.089  -1.930  0.00  0.00     0.244 C 
ATOM     15  N   UNL d   1      25.098 -15.674  -0.767  0.00  0.00    -0.325 N 
ATOM     16  H   UNL d   1      25.403 -15.239   0.088  0.00  0.00     0.169 HD
ATOM     17  O   UNL d   1      25.162 -15.327  -3.068  0.00  0.00    -0.271 OA
BRANCH  15  18
ATOM     18  C   UNL d   1      24.113 -16.679  -0.655  0.00  0.00     0.040 A 
ATOM     19  C   UNL d   1      22.790 -16.377  -0.969  0.00  0.00     0.030 A 
ATOM     20  C   UNL d   1      21.783 -17.321  -0.896  0.00  0.00     0.009 A 
ATOM     21  C   UNL d   1      22.073 -18.619  -0.508  0.00  0.00    -0.061 A 
ATOM     22  C   UNL d   1      20.958 -19.614  -0.451  0.00  0.00     0.048 C 
ATOM     23  C   UNL d   1      23.392 -18.955  -0.180  0.00  0.00     0.015 A 
ATOM     24  C   UNL d   1      24.426 -17.993  -0.240  0.00  0.00    -0.035 A 
ATOM     25  C   UNL d   1      25.807 -18.454   0.136  0.00  0.00     0.050 C 
ENDBRANCH  15  18
ENDBRANCH   1  14
TORSDOF 4
ENDMDL
MODEL 8
REMARK VINA RESULT:    -6.811      3.995      5.792
REMARK INTER + INTRA:          -9.686
REMARK INTER:                  -8.004
REMARK INTRA:                  -1.682
REMARK CONF_INDEPENDENT:        1.193
REMARK UNBOUND:                -1.682
REMARK  4 active torsions:
REMARK  status: ('A' for Active; 'I' for Inactive)
REMARK    1  A    between atoms: C_5  and  N_6 
REMARK       I    between atoms: N_6  and  C_7 
REMARK    2  A    between atoms: C_9  and  C_7 
REMARK    3  A    between atoms: C_9  and  N_11 
REMARK       I    between atoms: N_11  and  C_12 
REMARK    4  A    between atoms: C_12  and  C_14 
ROOT
ATOM      1  C   UNL d   1      30.587 -17.156  -1.090  0.00  0.00     0.173 C 
ATOM      2  C   UNL d   1      31.519 -17.746  -0.018  0.00  0.00     0.042 C 
ENDROOT
BRANCH   1   3
ATOM      3  N   UNL d   1      29.176 -17.442  -0.793  0.00  0.00    -0.344 N 
ATOM      4  C   UNL d   1      28.158 -16.701  -1.355  0.00  0.00     0.252 C 
ATOM      5  O   UNL d   1      28.357 -15.839  -2.209  0.00  0.00    -0.268 OA
ATOM      6  H   UNL d   1      28.969 -18.176  -0.127  0.00  0.00     0.163 HD
BRANCH   4   7
ATOM      7  C   UNL d   1      26.771 -17.101  -1.054  0.00  0.00     0.032 A 
ATOM      8  C   UNL d   1      26.489 -17.873   0.069  0.00  0.00     0.018 A 
ATOM      9  C   UNL d   1      25.162 -18.200   0.358  0.00  0.00     0.025 A 
ATOM     10  C   UNL d   1      24.130 -17.777  -0.485  0.00  0.00     0.034 A 
ATOM     11 CL   UNL d   1      22.503 -18.200  -0.122  0.00  0.00    -0.084 Cl
ATOM     12  C   UNL d   1      24.404 -17.002  -1.605  0.00  0.00     0.025 A 
ATOM     13  C   UNL d   1      25.725 -16.647  -1.874  0.00  0.00     0.018 A 
ENDBRANCH   4   7
ENDBRANCH   1   3
BRANCH   1  14
ATOM     14  C   UNL d   1      31.125 -17.684  -2.443  0.00  0.00     0.244 C 
ATOM     15  N   UNL d   1      30.210 -17.778  -3.478  0.00  0.00    -0.325 N 
ATOM     16  H   UNL d   1      29.314 -17.355  -3.301  0.00  0.00     0.169 HD
ATOM     17  O   UNL d   1      32.326 -17.944  -2.524  0.00  0.00    -0.271 OA
BRANCH  15  18
ATOM     18  C   UNL d   1      30.450 -18.234  -4.793  0.00  0.00     0.040 A 
ATOM     19  C   UNL d   1      30.565 -19.602  -5.031  0.00  0.00     0.030 A 
ATOM     20  C   UNL d   1      30.783 -20.111  -6.296  0.00  0.00     0.009 A 
ATOM     21  C   UNL d   1      30.886 -19.258  -7.383  0.00  0.00    -0.061 A 
ATOM     22  C   UNL d   1      31.111 -19.848  -8.738  0.00  0.00     0.048 C 
ATOM     23  C   UNL d   1      30.779 -17.877  -7.177  0.00  0.00     0.015 A 
ATOM     24  C   UNL d   1      30.569 -17.345  -5.884  0.00  0.00    -0.035 A 
ATOM     25  C   UNL d   1      30.474 -15.849  -5.771  0.00  0.00     0.050 C 
ENDBRANCH  15  18
ENDBRANCH   1  14
TORSDOF 4
ENDMDL
MODEL 9
REMARK VINA RESULT:    -6.789      2.201      3.199
REMARK INTER + INTRA:          -9.670
REMARK INTER:                  -7.983
REMARK INTRA:                  -1.687
REMARK CONF_INDEPENDENT:        1.193
REMARK UNBOUND:                -1.687
REMARK  4 active torsions:
REMARK  status: ('A' for Active; 'I' for Inactive)
REMARK    1  A    between atoms: C_5  and  N_6 
REMARK       I    between atoms: N_6  and  C_7 
REMARK    2  A    between atoms: C_9  and  C_7 
REMARK    3  A    between atoms: C_9  and  N_11 
REMARK       I    between atoms: N_11  and  C_12 
REMARK    4  A    between atoms: C_12  and  C_14 
ROOT
ATOM      1  C   UNL d   1      28.346 -16.741  -0.716  0.00  0.00     0.173 C 
ATOM      2  C   UNL d   1      29.421 -17.829  -0.564  0.00  0.00     0.042 C 
ENDROOT
BRANCH   1   3
ATOM      3  N   UNL d   1      26.993 -17.315  -0.694  0.00  0.00    -0.344 N 
ATOM      4  C   UNL d   1      25.878 -16.523  -0.514  0.00  0.00     0.252 C 
ATOM      5  O   UNL d   1      25.935 -15.295  -0.469  0.00  0.00    -0.268 OA
ATOM      6  H   UNL d   1      26.900 -18.320  -0.773  0.00  0.00     0.163 HD
BRANCH   4   7
ATOM      7  C   UNL d   1      24.556 -17.174  -0.572  0.00  0.00     0.032 A 
ATOM      8  C   UNL d   1      23.410 -16.419  -0.797  0.00  0.00     0.018 A 
ATOM      9  C   UNL d   1      22.174 -17.065  -0.893  0.00  0.00     0.025 A 
ATOM     10  C   UNL d   1      22.087 -18.452  -0.742  0.00  0.00     0.034 A 
ATOM     11 CL   UNL d   1      20.558 -19.230  -0.849  0.00  0.00    -0.084 Cl
ATOM     12  C   UNL d   1      23.230 -19.212  -0.521  0.00  0.00     0.025 A 
ATOM     13  C   UNL d   1      24.466 -18.571  -0.459  0.00  0.00     0.018 A 
ENDBRANCH   4   7
ENDBRANCH   1   3
BRANCH   1  14
ATOM     14  C   UNL d   1      28.735 -15.949  -1.989  0.00  0.00     0.244 C 
ATOM     15  N   UNL d   1      27.693 -15.414  -2.728  0.00  0.00    -0.325 N 
ATOM     16  H   UNL d   1      26.787 -15.460  -2.292  0.00  0.00     0.169 HD
ATOM     17  O   UNL d   1      29.933 -15.811  -2.238  0.00  0.00    -0.271 OA
BRANCH  15  18
ATOM     18  C   UNL d   1      27.787 -14.666  -3.922  0.00  0.00     0.040 A 
ATOM     19  C   UNL d   1      28.887 -14.846  -4.756  0.00  0.00     0.030 A 
ATOM     20  C   UNL d   1      29.029 -14.157  -5.945  0.00  0.00     0.009 A 
ATOM     21  C   UNL d   1      28.055 -13.257  -6.349  0.00  0.00    -0.061 A 
ATOM     22  C   UNL d   1      28.239 -12.538  -7.646  0.00  0.00     0.048 C 
ATOM     23  C   UNL d   1      26.938 -13.049  -5.531  0.00  0.00     0.015 A 
ATOM     24  C   UNL d   1      26.791 -13.740  -4.306  0.00  0.00    -0.035 A 
ATOM     25  C   UNL d   1      25.558 -13.441  -3.500  0.00  0.00     0.050 C 
ENDBRANCH  15  18
ENDBRANCH   1  14
TORSDOF 4
ENDMDL
