MODEL 1
REMARK VINA RESULT:   -10.632      0.000      0.000
REMARK INTER + INTRA:         -14.644
REMARK INTER:                 -13.615
REMARK INTRA:                  -1.029
REMARK CONF_INDEPENDENT:        2.983
REMARK UNBOUND:                -1.029
REMARK  10 active torsions:
REMARK  status: ('A' for Active; 'I' for Inactive)
REMARK    1  A    between atoms: O_2  and  C_3 
REMARK    2  A    between atoms: C_7  and  C_6 
REMARK    3  A    between atoms: C_7  and  N_28 
REMARK    4  A    between atoms: C_7  and  C_8 
REMARK    5  A    between atoms: C_8  and  N_9 
REMARK       I    between atoms: N_9  and  C_10 
REMARK    6  A    between atoms: C_10  and  C_12 
REMARK    7  A    between atoms: C_15  and  S_16 
REMARK    8  A    between atoms: S_16  and  C_17 
REMARK    9  A    between atoms: C_17  and  C_18 
REMARK   10  A    between atoms: C_32  and  O_33 
ROOT
ATOM      1  N   UNL d   1      28.265 -15.367   1.344  0.00  0.00    -0.354 N 
ATOM      2  C   UNL d   1      27.662 -15.365   0.091  0.00  0.00     0.256 C 
ATOM      3  O   UNL d   1      28.011 -14.616  -0.799  0.00  0.00    -0.268 OA
ATOM      4  H   UNL d   1      27.921 -15.988   2.072  0.00  0.00     0.162 HD
ENDROOT
BRANCH   1   5
ATOM      5  C   UNL d   1      29.295 -14.379   1.629  0.00  0.00     0.161 C 
BRANCH   5   6
ATOM      6  C   UNL d   1      29.304 -13.738   3.053  0.00  0.00     0.237 C 
BRANCH   6   7
ATOM      7  N   UNL d   1      28.843 -14.764   4.106  0.00  0.00    -0.069 N 
ATOM      8  C   UNL d   1      29.841 -15.004   5.203  0.00  0.00     0.270 C 
ATOM      9  C   UNL d   1      27.497 -14.405   4.695  0.00  0.00     0.270 C 
ATOM     10  H   UNL d   1      28.730 -15.662   3.622  0.00  0.00     0.279 HD
ENDBRANCH   6   7
BRANCH   6  11
ATOM     11  C   UNL d   1      28.408 -12.514   3.031  0.00  0.00    -0.023 A 
ATOM     12  C   UNL d   1      27.414 -12.348   2.063  0.00  0.00     0.012 A 
ATOM     13  C   UNL d   1      26.692 -11.156   1.981  0.00  0.00     0.040 A 
ATOM     14  C   UNL d   1      26.880 -10.107   2.901  0.00  0.00     0.101 A 
ATOM     15  C   UNL d   1      27.868 -10.280   3.895  0.00  0.00     0.102 A 
ATOM     16  C   UNL d   1      28.608 -11.479   3.946  0.00  0.00     0.049 A 
BRANCH  14  17
ATOM     17  O   UNL d   1      25.849  -9.199   2.855  0.00  0.00    -0.353 OA
ATOM     18  C   UNL d   1      25.530  -8.451   1.684  0.00  0.00     0.210 C 
ENDBRANCH  14  17
BRANCH  15  19
ATOM     19  O   UNL d   1      28.271  -9.481   4.934  0.00  0.00    -0.353 OA
ATOM     20  C   UNL d   1      28.715 -10.165   6.072  0.00  0.00     0.210 C 
ENDBRANCH  15  19
ENDBRANCH   6  11
ENDBRANCH   5   6
ENDBRANCH   1   5
BRANCH   2  21
ATOM     21  C   UNL d   1      26.581 -16.337  -0.151  0.00  0.00     0.090 A 
ATOM     22  C   UNL d   1      26.512 -17.509   0.573  0.00  0.00     0.139 A 
ATOM     23  N   UNL d   1      25.546 -18.451   0.404  0.00  0.00    -0.234 NA
ATOM     24  C   UNL d   1      24.641 -18.209  -0.555  0.00  0.00     0.189 A 
ATOM     25  N   UNL d   1      24.643 -17.112  -1.329  0.00  0.00    -0.210 NA
ATOM     26  C   UNL d   1      25.613 -16.211  -1.112  0.00  0.00     0.146 A 
ATOM     27 CL   UNL d   1      25.506 -14.868  -2.187  0.00  0.00    -0.061 Cl
BRANCH  24  28
ATOM     28  S   UNL d   1      23.280 -19.288  -0.850  0.00  0.00    -0.086 SA
BRANCH  28  29
ATOM     29  C   UNL d   1      21.785 -18.260  -0.597  0.00  0.00     0.121 C 
BRANCH  29  30
ATOM     30  C   UNL d   1      20.660 -19.071   0.042  0.00  0.00    -0.048 A 
ATOM     31  C   UNL d   1      20.647 -19.325   1.426  0.00  0.00     0.011 A 
ATOM     32  C   UNL d   1      19.677 -20.170   1.985  0.00  0.00     0.043 A 
ATOM     33  C   UNL d   1      18.672 -20.697   1.183  0.00  0.00     0.116 A 
ATOM     34  F   UNL d   1      17.706 -21.446   1.730  0.00  0.00    -0.206 F 
ATOM     35  C   UNL d   1      18.650 -20.450  -0.179  0.00  0.00     0.043 A 
ATOM     36  C   UNL d   1      19.653 -19.666  -0.746  0.00  0.00     0.011 A 
ENDBRANCH  29  30
ENDBRANCH  28  29
ENDBRANCH  24  28
ENDBRANCH   2  21
TORSDOF 10
ENDMDL
MODEL 2
REMARK VINA RESULT:   -10.370      2.032      3.190
REMARK INTER + INTRA:         -14.368
REMARK INTER:                 -13.353
REMARK INTRA:                  -1.015
REMARK CONF_INDEPENDENT:        2.983
REMARK UNBOUND:                -1.015
REMARK  10 active torsions:
REMARK  status: ('A' for Active; 'I' for Inactive)
REMARK    1  A    between atoms: O_2  and  C_3 
REMARK    2  A    between atoms: C_7  and  C_6 
REMARK    3  A    between atoms: C_7  and  N_28 
REMARK    4  A    between atoms: C_7  and  C_8 
REMARK    5  A    between atoms: C_8  and  N_9 
REMARK       I    between atoms: N_9  and  C_10 
REMARK    6  A    between atoms: C_10  and  C_12 
REMARK    7  A    between atoms: C_15  and  S_16 
REMARK    8  A    between atoms: S_16  and  C_17 
REMARK    9  A    between atoms: C_17  and  C_18 
REMARK   10  A    between atoms: C_32  and  O_33 
ROOT
ATOM      1  N   UNL d   1      28.807 -15.519  -0.100  0.00  0.00    -0.354 N 
ATOM      2  C   UNL d   1      27.836 -15.219  -1.049  0.00  0.00     0.256 C 
ATOM      3  O   UNL d   1      27.963 -14.311  -1.846  0.00  0.00    -0.268 OA
ATOM      4  H   UNL d   1      28.648 -16.268   0.570  0.00  0.00     0.162 HD
ENDROOT
BRANCH   1   5
ATOM      5  C   UNL d   1      29.980 -14.663  -0.000  0.00  0.00     0.161 C 
BRANCH   5   6
ATOM      6  C   UNL d   1      30.836 -14.765   1.301  0.00  0.00     0.237 C 
BRANCH   6   7
ATOM      7  N   UNL d   1      31.416 -16.184   1.454  0.00  0.00    -0.069 N 
ATOM      8  C   UNL d   1      31.479 -16.960   0.169  0.00  0.00     0.270 C 
ATOM      9  C   UNL d   1      32.773 -16.173   2.123  0.00  0.00     0.270 C 
ATOM     10  H   UNL d   1      30.781 -16.704   2.070  0.00  0.00     0.279 HD
ENDBRANCH   6   7
BRANCH   6  11
ATOM     11  C   UNL d   1      29.960 -14.386   2.480  0.00  0.00    -0.023 A 
ATOM     12  C   UNL d   1      30.409 -14.511   3.798  0.00  0.00     0.012 A 
ATOM     13  C   UNL d   1      29.542 -14.282   4.869  0.00  0.00     0.040 A 
ATOM     14  C   UNL d   1      28.215 -13.855   4.675  0.00  0.00     0.101 A 
ATOM     15  C   UNL d   1      27.765 -13.705   3.345  0.00  0.00     0.102 A 
ATOM     16  C   UNL d   1      28.645 -13.967   2.275  0.00  0.00     0.049 A 
BRANCH  14  17
ATOM     17  O   UNL d   1      27.665 -13.363   5.835  0.00  0.00    -0.353 OA
ATOM     18  C   UNL d   1      28.415 -13.195   7.036  0.00  0.00     0.210 C 
ENDBRANCH  14  17
BRANCH  15  19
ATOM     19  O   UNL d   1      26.567 -13.289   2.826  0.00  0.00    -0.353 OA
ATOM     20  C   UNL d   1      26.521 -13.210   1.429  0.00  0.00     0.210 C 
ENDBRANCH  15  19
ENDBRANCH   6  11
ENDBRANCH   5   6
ENDBRANCH   1   5
BRANCH   2  21
ATOM     21  C   UNL d   1      26.631 -16.066  -1.089  0.00  0.00     0.090 A 
ATOM     22  C   UNL d   1      26.503 -17.149  -0.246  0.00  0.00     0.139 A 
ATOM     23  N   UNL d   1      25.423 -17.975  -0.226  0.00  0.00    -0.234 NA
ATOM     24  C   UNL d   1      24.456 -17.710  -1.116  0.00  0.00     0.189 A 
ATOM     25  N   UNL d   1      24.504 -16.696  -1.996  0.00  0.00    -0.210 NA
ATOM     26  C   UNL d   1      25.589 -15.907  -1.964  0.00  0.00     0.146 A 
ATOM     27 CL   UNL d   1      25.526 -14.664  -3.156  0.00  0.00    -0.061 Cl
BRANCH  24  28
ATOM     28  S   UNL d   1      22.957 -18.632  -1.172  0.00  0.00    -0.086 SA
BRANCH  28  29
ATOM     29  C   UNL d   1      22.238 -18.487   0.507  0.00  0.00     0.121 C 
BRANCH  29  30
ATOM     30  C   UNL d   1      20.879 -19.181   0.587  0.00  0.00    -0.048 A 
ATOM     31  C   UNL d   1      20.395 -19.685   1.808  0.00  0.00     0.011 A 
ATOM     32  C   UNL d   1      19.204 -20.425   1.849  0.00  0.00     0.043 A 
ATOM     33  C   UNL d   1      18.453 -20.594   0.692  0.00  0.00     0.116 A 
ATOM     34  F   UNL d   1      17.281 -21.240   0.746  0.00  0.00    -0.206 F 
ATOM     35  C   UNL d   1      18.897 -20.094  -0.520  0.00  0.00     0.043 A 
ATOM     36  C   UNL d   1      20.114 -19.418  -0.574  0.00  0.00     0.011 A 
ENDBRANCH  29  30
ENDBRANCH  28  29
ENDBRANCH  24  28
ENDBRANCH   2  21
TORSDOF 10
ENDMDL
MODEL 3
REMARK VINA RESULT:    -9.553      1.921      2.648
REMARK INTER + INTRA:         -14.062
REMARK INTER:                 -12.536
REMARK INTRA:                  -1.526
REMARK CONF_INDEPENDENT:        2.983
REMARK UNBOUND:                -1.526
REMARK  10 active torsions:
REMARK  status: ('A' for Active; 'I' for Inactive)
REMARK    1  A    between atoms: O_2  and  C_3 
REMARK    2  A    between atoms: C_7  and  C_6 
REMARK    3  A    between atoms: C_7  and  N_28 
REMARK    4  A    between atoms: C_7  and  C_8 
REMARK    5  A    between atoms: C_8  and  N_9 
REMARK       I    between atoms: N_9  and  C_10 
REMARK    6  A    between atoms: C_10  and  C_12 
REMARK    7  A    between atoms: C_15  and  S_16 
REMARK    8  A    between atoms: S_16  and  C_17 
REMARK    9  A    between atoms: C_17  and  C_18 
REMARK   10  A    between atoms: C_32  and  O_33 
ROOT
ATOM      1  N   UNL d   1      28.983 -16.853   0.083  0.00  0.00    -0.354 N 
ATOM      2  C   UNL d   1      28.186 -16.587  -1.025  0.00  0.00     0.256 C 
ATOM      3  O   UNL d   1      28.653 -16.292  -2.107  0.00  0.00    -0.268 OA
ATOM      4  H   UNL d   1      28.552 -17.066   0.979  0.00  0.00     0.162 HD
ENDROOT
BRANCH   1   5
ATOM      5  C   UNL d   1      30.425 -16.692  -0.034  0.00  0.00     0.161 C 
BRANCH   5   6
ATOM      6  C   UNL d   1      31.071 -15.459   0.673  0.00  0.00     0.237 C 
BRANCH   6   7
ATOM      7  N   UNL d   1      31.704 -15.880   2.014  0.00  0.00    -0.069 N 
ATOM      8  C   UNL d   1      32.600 -17.082   1.916  0.00  0.00     0.270 C 
ATOM      9  C   UNL d   1      32.437 -14.735   2.677  0.00  0.00     0.270 C 
ATOM     10  H   UNL d   1      30.935 -16.147   2.639  0.00  0.00     0.279 HD
ENDBRANCH   6   7
BRANCH   6  11
ATOM     11  C   UNL d   1      29.999 -14.402   0.865  0.00  0.00    -0.023 A 
ATOM     12  C   UNL d   1      29.872 -13.320  -0.010  0.00  0.00     0.012 A 
ATOM     13  C   UNL d   1      28.967 -12.291   0.259  0.00  0.00     0.040 A 
ATOM     14  C   UNL d   1      28.104 -12.329   1.370  0.00  0.00     0.101 A 
ATOM     15  C   UNL d   1      28.214 -13.433   2.244  0.00  0.00     0.102 A 
ATOM     16  C   UNL d   1      29.153 -14.450   1.973  0.00  0.00     0.049 A 
BRANCH  14  17
ATOM     17  O   UNL d   1      27.082 -11.418   1.252  0.00  0.00    -0.353 OA
ATOM     18  C   UNL d   1      27.207 -10.059   1.664  0.00  0.00     0.210 C 
ENDBRANCH  14  17
BRANCH  15  19
ATOM     19  O   UNL d   1      27.521 -13.777   3.375  0.00  0.00    -0.353 OA
ATOM     20  C   UNL d   1      28.162 -14.705   4.205  0.00  0.00     0.210 C 
ENDBRANCH  15  19
ENDBRANCH   6  11
ENDBRANCH   5   6
ENDBRANCH   1   5
BRANCH   2  21
ATOM     21  C   UNL d   1      26.726 -16.700  -0.863  0.00  0.00     0.090 A 
ATOM     22  C   UNL d   1      26.181 -17.688  -0.070  0.00  0.00     0.139 A 
ATOM     23  N   UNL d   1      24.845 -17.855   0.126  0.00  0.00    -0.234 NA
ATOM     24  C   UNL d   1      24.038 -17.012  -0.533  0.00  0.00     0.189 A 
ATOM     25  N   UNL d   1      24.474 -16.039  -1.349  0.00  0.00    -0.210 NA
ATOM     26  C   UNL d   1      25.802 -15.913  -1.497  0.00  0.00     0.146 A 
ATOM     27 CL   UNL d   1      26.219 -14.642  -2.584  0.00  0.00    -0.061 Cl
BRANCH  24  28
ATOM     28  S   UNL d   1      22.289 -17.040  -0.330  0.00  0.00    -0.086 SA
BRANCH  28  29
ATOM     29  C   UNL d   1      21.735 -18.595  -1.127  0.00  0.00     0.121 C 
BRANCH  29  30
ATOM     30  C   UNL d   1      20.594 -19.240  -0.343  0.00  0.00    -0.048 A 
ATOM     31  C   UNL d   1      20.709 -19.479   1.039  0.00  0.00     0.011 A 
ATOM     32  C   UNL d   1      19.707 -20.180   1.725  0.00  0.00     0.043 A 
ATOM     33  C   UNL d   1      18.553 -20.572   1.056  0.00  0.00     0.116 A 
ATOM     34  F   UNL d   1      17.567 -21.179   1.729  0.00  0.00    -0.206 F 
ATOM     35  C   UNL d   1      18.406 -20.335  -0.299  0.00  0.00     0.043 A 
ATOM     36  C   UNL d   1      19.431 -19.700  -0.996  0.00  0.00     0.011 A 
ENDBRANCH  29  30
ENDBRANCH  28  29
ENDBRANCH  24  28
ENDBRANCH   2  21
TORSDOF 10
ENDMDL
MODEL 4
REMARK VINA RESULT:    -9.377      1.989      3.054
REMARK INTER + INTRA:         -13.995
REMARK INTER:                 -12.360
REMARK INTRA:                  -1.635
REMARK CONF_INDEPENDENT:        2.983
REMARK UNBOUND:                -1.635
REMARK  10 active torsions:
REMARK  status: ('A' for Active; 'I' for Inactive)
REMARK    1  A    between atoms: O_2  and  C_3 
REMARK    2  A    between atoms: C_7  and  C_6 
REMARK    3  A    between atoms: C_7  and  N_28 
REMARK    4  A    between atoms: C_7  and  C_8 
REMARK    5  A    between atoms: C_8  and  N_9 
REMARK       I    between atoms: N_9  and  C_10 
REMARK    6  A    between atoms: C_10  and  C_12 
REMARK    7  A    between atoms: C_15  and  S_16 
REMARK    8  A    between atoms: S_16  and  C_17 
REMARK    9  A    between atoms: C_17  and  C_18 
REMARK   10  A    between atoms: C_32  and  O_33 
ROOT
ATOM      1  N   UNL d   1      28.822 -16.478   0.102  0.00  0.00    -0.354 N 
ATOM      2  C   UNL d   1      28.044 -16.267  -1.032  0.00  0.00     0.256 C 
ATOM      3  O   UNL d   1      28.526 -15.964  -2.105  0.00  0.00    -0.268 OA
ATOM      4  H   UNL d   1      28.377 -16.699   0.988  0.00  0.00     0.162 HD
ENDROOT
BRANCH   1   5
ATOM      5  C   UNL d   1      30.257 -16.247   0.022  0.00  0.00     0.161 C 
BRANCH   5   6
ATOM      6  C   UNL d   1      30.853 -15.110   0.910  0.00  0.00     0.237 C 
BRANCH   6   7
ATOM      7  N   UNL d   1      31.530 -15.704   2.161  0.00  0.00    -0.069 N 
ATOM      8  C   UNL d   1      32.292 -16.972   1.898  0.00  0.00     0.270 C 
ATOM      9  C   UNL d   1      32.419 -14.697   2.856  0.00  0.00     0.270 C 
ATOM     10  H   UNL d   1      30.783 -15.952   2.819  0.00  0.00     0.279 HD
ENDBRANCH   6   7
BRANCH   6  11
ATOM     11  C   UNL d   1      29.733 -14.155   1.278  0.00  0.00    -0.023 A 
ATOM     12  C   UNL d   1      29.142 -14.170   2.545  0.00  0.00     0.012 A 
ATOM     13  C   UNL d   1      28.027 -13.375   2.819  0.00  0.00     0.040 A 
ATOM     14  C   UNL d   1      27.497 -12.482   1.868  0.00  0.00     0.101 A 
ATOM     15  C   UNL d   1      28.107 -12.447   0.595  0.00  0.00     0.102 A 
ATOM     16  C   UNL d   1      29.214 -13.278   0.325  0.00  0.00     0.049 A 
BRANCH  14  17
ATOM     17  O   UNL d   1      26.648 -11.569   2.446  0.00  0.00    -0.353 OA
ATOM     18  C   UNL d   1      26.443 -10.262   1.916  0.00  0.00     0.210 C 
ENDBRANCH  14  17
BRANCH  15  19
ATOM     19  O   UNL d   1      27.856 -11.689  -0.519  0.00  0.00    -0.353 OA
ATOM     20  C   UNL d   1      27.037 -12.297  -1.478  0.00  0.00     0.210 C 
ENDBRANCH  15  19
ENDBRANCH   6  11
ENDBRANCH   5   6
ENDBRANCH   1   5
BRANCH   2  21
ATOM     21  C   UNL d   1      26.588 -16.451  -0.909  0.00  0.00     0.090 A 
ATOM     22  C   UNL d   1      25.714 -15.593  -1.544  0.00  0.00     0.139 A 
ATOM     23  N   UNL d   1      24.360 -15.700  -1.476  0.00  0.00    -0.234 NA
ATOM     24  C   UNL d   1      23.879 -16.690  -0.711  0.00  0.00     0.189 A 
ATOM     25  N   UNL d   1      24.650 -17.556  -0.033  0.00  0.00    -0.210 NA
ATOM     26  C   UNL d   1      25.980 -17.410  -0.144  0.00  0.00     0.146 A 
ATOM     27 CL   UNL d   1      26.842 -18.573   0.792  0.00  0.00    -0.061 Cl
BRANCH  24  28
ATOM     28  S   UNL d   1      22.154 -17.016  -0.578  0.00  0.00    -0.086 SA
BRANCH  28  29
ATOM     29  C   UNL d   1      21.989 -18.831  -0.759  0.00  0.00     0.121 C 
BRANCH  29  30
ATOM     30  C   UNL d   1      20.737 -19.345  -0.050  0.00  0.00    -0.048 A 
ATOM     31  C   UNL d   1      20.655 -19.359   1.354  0.00  0.00     0.011 A 
ATOM     32  C   UNL d   1      19.553 -19.943   1.996  0.00  0.00     0.043 A 
ATOM     33  C   UNL d   1      18.495 -20.440   1.243  0.00  0.00     0.116 A 
ATOM     34  F   UNL d   1      17.413 -20.933   1.858  0.00  0.00    -0.206 F 
ATOM     35  C   UNL d   1      18.543 -20.424  -0.140  0.00  0.00     0.043 A 
ATOM     36  C   UNL d   1      19.667 -19.906  -0.778  0.00  0.00     0.011 A 
ENDBRANCH  29  30
ENDBRANCH  28  29
ENDBRANCH  24  28
ENDBRANCH   2  21
TORSDOF 10
ENDMDL
MODEL 5
REMARK VINA RESULT:    -9.272      4.895     10.018
REMARK INTER + INTRA:         -13.578
REMARK INTER:                 -12.255
REMARK INTRA:                  -1.324
REMARK CONF_INDEPENDENT:        2.983
REMARK UNBOUND:                -1.324
REMARK  10 active torsions:
REMARK  status: ('A' for Active; 'I' for Inactive)
REMARK    1  A    between atoms: O_2  and  C_3 
REMARK    2  A    between atoms: C_7  and  C_6 
REMARK    3  A    between atoms: C_7  and  N_28 
REMARK    4  A    between atoms: C_7  and  C_8 
REMARK    5  A    between atoms: C_8  and  N_9 
REMARK       I    between atoms: N_9  and  C_10 
REMARK    6  A    between atoms: C_10  and  C_12 
REMARK    7  A    between atoms: C_15  and  S_16 
REMARK    8  A    between atoms: S_16  and  C_17 
REMARK    9  A    between atoms: C_17  and  C_18 
REMARK   10  A    between atoms: C_32  and  O_33 
ROOT
ATOM      1  N   UNL d   1      28.251 -14.303   2.170  0.00  0.00    -0.354 N 
ATOM      2  C   UNL d   1      27.415 -13.326   2.698  0.00  0.00     0.256 C 
ATOM      3  O   UNL d   1      26.380 -12.992   2.156  0.00  0.00    -0.268 OA
ATOM      4  H   UNL d   1      29.123 -14.532   2.639  0.00  0.00     0.162 HD
ENDROOT
BRANCH   1   5
ATOM      5  C   UNL d   1      27.919 -14.889   0.880  0.00  0.00     0.161 C 
BRANCH   5   6
ATOM      6  C   UNL d   1      27.854 -16.446   0.792  0.00  0.00     0.237 C 
BRANCH   6   7
ATOM      7  N   UNL d   1      29.041 -16.988  -0.029  0.00  0.00    -0.069 N 
ATOM      8  C   UNL d   1      28.774 -17.072  -1.505  0.00  0.00     0.270 C 
ATOM      9  C   UNL d   1      30.310 -16.208   0.229  0.00  0.00     0.270 C 
ATOM     10  H   UNL d   1      29.209 -17.951   0.285  0.00  0.00     0.279 HD
ENDBRANCH   6   7
BRANCH   6  11
ATOM     11  C   UNL d   1      26.522 -16.835   0.179  0.00  0.00    -0.023 A 
ATOM     12  C   UNL d   1      25.869 -18.019   0.534  0.00  0.00     0.012 A 
ATOM     13  C   UNL d   1      24.713 -18.422  -0.138  0.00  0.00     0.040 A 
ATOM     14  C   UNL d   1      24.121 -17.632  -1.141  0.00  0.00     0.101 A 
ATOM     15  C   UNL d   1      24.766 -16.424  -1.486  0.00  0.00     0.102 A 
ATOM     16  C   UNL d   1      25.948 -16.046  -0.818  0.00  0.00     0.049 A 
BRANCH  14  17
ATOM     17  O   UNL d   1      22.835 -18.034  -1.412  0.00  0.00    -0.353 OA
ATOM     18  C   UNL d   1      22.120 -18.949  -0.585  0.00  0.00     0.210 C 
ENDBRANCH  14  17
BRANCH  15  19
ATOM     19  O   UNL d   1      24.442 -15.438  -2.382  0.00  0.00    -0.353 OA
ATOM     20  C   UNL d   1      25.449 -15.117  -3.301  0.00  0.00     0.210 C 
ENDBRANCH  15  19
ENDBRANCH   6  11
ENDBRANCH   5   6
ENDBRANCH   1   5
BRANCH   2  21
ATOM     21  C   UNL d   1      27.804 -12.707   3.977  0.00  0.00     0.090 A 
ATOM     22  C   UNL d   1      27.895 -11.336   4.097  0.00  0.00     0.139 A 
ATOM     23  N   UNL d   1      28.247 -10.695   5.243  0.00  0.00    -0.234 NA
ATOM     24  C   UNL d   1      28.550 -11.474   6.291  0.00  0.00     0.189 A 
ATOM     25  N   UNL d   1      28.518 -12.816   6.262  0.00  0.00    -0.210 NA
ATOM     26  C   UNL d   1      28.153 -13.396   5.108  0.00  0.00     0.146 A 
ATOM     27 CL   UNL d   1      28.175 -15.116   5.209  0.00  0.00    -0.061 Cl
BRANCH  24  28
ATOM     28  S   UNL d   1      28.950 -10.804   7.870  0.00  0.00    -0.086 SA
BRANCH  28  29
ATOM     29  C   UNL d   1      28.156 -11.923   9.085  0.00  0.00     0.121 C 
BRANCH  29  30
ATOM     30  C   UNL d   1      29.035 -13.138   9.372  0.00  0.00    -0.048 A 
ATOM     31  C   UNL d   1      28.607 -14.150  10.252  0.00  0.00     0.011 A 
ATOM     32  C   UNL d   1      29.469 -15.199  10.601  0.00  0.00     0.043 A 
ATOM     33  C   UNL d   1      30.726 -15.289  10.015  0.00  0.00     0.116 A 
ATOM     34  F   UNL d   1      31.519 -16.330  10.297  0.00  0.00    -0.206 F 
ATOM     35  C   UNL d   1      31.166 -14.317   9.134  0.00  0.00     0.043 A 
ATOM     36  C   UNL d   1      30.337 -13.237   8.838  0.00  0.00     0.011 A 
ENDBRANCH  29  30
ENDBRANCH  28  29
ENDBRANCH  24  28
ENDBRANCH   2  21
TORSDOF 10
ENDMDL
MODEL 6
REMARK VINA RESULT:    -8.979      3.972      6.325
REMARK INTER + INTRA:         -13.385
REMARK INTER:                 -11.962
REMARK INTRA:                  -1.423
REMARK CONF_INDEPENDENT:        2.983
REMARK UNBOUND:                -1.423
REMARK  10 active torsions:
REMARK  status: ('A' for Active; 'I' for Inactive)
REMARK    1  A    between atoms: O_2  and  C_3 
REMARK    2  A    between atoms: C_7  and  C_6 
REMARK    3  A    between atoms: C_7  and  N_28 
REMARK    4  A    between atoms: C_7  and  C_8 
REMARK    5  A    between atoms: C_8  and  N_9 
REMARK       I    between atoms: N_9  and  C_10 
REMARK    6  A    between atoms: C_10  and  C_12 
REMARK    7  A    between atoms: C_15  and  S_16 
REMARK    8  A    between atoms: S_16  and  C_17 
REMARK    9  A    between atoms: C_17  and  C_18 
REMARK   10  A    between atoms: C_32  and  O_33 
ROOT
ATOM      1  N   UNL d   1      29.070 -14.737   4.247  0.00  0.00    -0.354 N 
ATOM      2  C   UNL d   1      27.895 -14.120   3.833  0.00  0.00     0.256 C 
ATOM      3  O   UNL d   1      27.124 -13.597   4.612  0.00  0.00    -0.268 OA
ATOM      4  H   UNL d   1      29.673 -15.191   3.566  0.00  0.00     0.162 HD
ENDROOT
BRANCH   1   5
ATOM      5  C   UNL d   1      29.347 -14.835   5.673  0.00  0.00     0.161 C 
BRANCH   5   6
ATOM      6  C   UNL d   1      29.600 -13.505   6.449  0.00  0.00     0.237 C 
BRANCH   6   7
ATOM      7  N   UNL d   1      30.803 -12.752   5.847  0.00  0.00    -0.069 N 
ATOM      8  C   UNL d   1      30.509 -12.078   4.538  0.00  0.00     0.270 C 
ATOM      9  C   UNL d   1      31.395 -11.760   6.823  0.00  0.00     0.270 C 
ATOM     10  H   UNL d   1      31.528 -13.452   5.652  0.00  0.00     0.279 HD
ENDBRANCH   6   7
BRANCH   6  11
ATOM     11  C   UNL d   1      29.821 -13.840   7.912  0.00  0.00    -0.023 A 
ATOM     12  C   UNL d   1      30.962 -14.523   8.345  0.00  0.00     0.012 A 
ATOM     13  C   UNL d   1      31.082 -14.937   9.673  0.00  0.00     0.040 A 
ATOM     14  C   UNL d   1      30.107 -14.629  10.640  0.00  0.00     0.101 A 
ATOM     15  C   UNL d   1      28.964 -13.919  10.212  0.00  0.00     0.102 A 
ATOM     16  C   UNL d   1      28.845 -13.533   8.861  0.00  0.00     0.049 A 
BRANCH  14  17
ATOM     17  O   UNL d   1      30.580 -14.818  11.917  0.00  0.00    -0.353 OA
ATOM     18  C   UNL d   1      31.610 -15.753  12.229  0.00  0.00     0.210 C 
ENDBRANCH  14  17
BRANCH  15  19
ATOM     19  O   UNL d   1      27.869 -13.451  10.891  0.00  0.00    -0.353 OA
ATOM     20  C   UNL d   1      28.157 -12.756  12.073  0.00  0.00     0.210 C 
ENDBRANCH  15  19
ENDBRANCH   6  11
ENDBRANCH   5   6
ENDBRANCH   1   5
BRANCH   2  21
ATOM     21  C   UNL d   1      27.610 -14.087   2.388  0.00  0.00     0.090 A 
ATOM     22  C   UNL d   1      27.773 -15.215   1.612  0.00  0.00     0.139 A 
ATOM     23  N   UNL d   1      27.531 -15.260   0.274  0.00  0.00    -0.234 NA
ATOM     24  C   UNL d   1      27.143 -14.111  -0.298  0.00  0.00     0.189 A 
ATOM     25  N   UNL d   1      26.985 -12.956   0.369  0.00  0.00    -0.210 NA
ATOM     26  C   UNL d   1      27.228 -12.973   1.689  0.00  0.00     0.146 A 
ATOM     27 CL   UNL d   1      27.005 -11.424   2.411  0.00  0.00    -0.061 Cl
BRANCH  24  28
ATOM     28  S   UNL d   1      26.714 -14.014  -2.003  0.00  0.00    -0.086 SA
BRANCH  28  29
ATOM     29  C   UNL d   1      26.420 -15.745  -2.528  0.00  0.00     0.121 C 
BRANCH  29  30
ATOM     30  C   UNL d   1      25.378 -16.421  -1.639  0.00  0.00    -0.048 A 
ATOM     31  C   UNL d   1      25.710 -17.545  -0.860  0.00  0.00     0.011 A 
ATOM     32  C   UNL d   1      24.720 -18.230  -0.142  0.00  0.00     0.043 A 
ATOM     33  C   UNL d   1      23.415 -17.752  -0.131  0.00  0.00     0.116 A 
ATOM     34  F   UNL d   1      22.486 -18.367   0.611  0.00  0.00    -0.206 F 
ATOM     35  C   UNL d   1      23.063 -16.639  -0.875  0.00  0.00     0.043 A 
ATOM     36  C   UNL d   1      24.032 -15.998  -1.643  0.00  0.00     0.011 A 
ENDBRANCH  29  30
ENDBRANCH  28  29
ENDBRANCH  24  28
ENDBRANCH   2  21
TORSDOF 10
ENDMDL
MODEL 7
REMARK VINA RESULT:    -8.930      5.450     10.306
REMARK INTER + INTRA:         -12.975
REMARK INTER:                 -11.913
REMARK INTRA:                  -1.062
REMARK CONF_INDEPENDENT:        2.983
REMARK UNBOUND:                -1.062
REMARK  10 active torsions:
REMARK  status: ('A' for Active; 'I' for Inactive)
REMARK    1  A    between atoms: O_2  and  C_3 
REMARK    2  A    between atoms: C_7  and  C_6 
REMARK    3  A    between atoms: C_7  and  N_28 
REMARK    4  A    between atoms: C_7  and  C_8 
REMARK    5  A    between atoms: C_8  and  N_9 
REMARK       I    between atoms: N_9  and  C_10 
REMARK    6  A    between atoms: C_10  and  C_12 
REMARK    7  A    between atoms: C_15  and  S_16 
REMARK    8  A    between atoms: S_16  and  C_17 
REMARK    9  A    between atoms: C_17  and  C_18 
REMARK   10  A    between atoms: C_32  and  O_33 
ROOT
ATOM      1  N   UNL d   1      29.069 -14.530   2.584  0.00  0.00    -0.354 N 
ATOM      2  C   UNL d   1      28.171 -13.661   3.195  0.00  0.00     0.256 C 
ATOM      3  O   UNL d   1      27.295 -13.089   2.576  0.00  0.00    -0.268 OA
ATOM      4  H   UNL d   1      29.806 -14.965   3.132  0.00  0.00     0.162 HD
ENDROOT
BRANCH   1   5
ATOM      5  C   UNL d   1      29.013 -14.696   1.139  0.00  0.00     0.161 C 
BRANCH   5   6
ATOM      6  C   UNL d   1      28.474 -16.055   0.592  0.00  0.00     0.237 C 
BRANCH   6   7
ATOM      7  N   UNL d   1      29.638 -16.930   0.086  0.00  0.00    -0.069 N 
ATOM      8  C   UNL d   1      29.539 -17.296  -1.368  0.00  0.00     0.270 C 
ATOM      9  C   UNL d   1      30.984 -16.305   0.377  0.00  0.00     0.270 C 
ATOM     10  H   UNL d   1      29.597 -17.814   0.606  0.00  0.00     0.279 HD
ENDBRANCH   6   7
BRANCH   6  11
ATOM     11  C   UNL d   1      27.471 -15.763  -0.508  0.00  0.00    -0.023 A 
ATOM     12  C   UNL d   1      27.503 -14.568  -1.232  0.00  0.00     0.012 A 
ATOM     13  C   UNL d   1      26.492 -14.264  -2.146  0.00  0.00     0.040 A 
ATOM     14  C   UNL d   1      25.447 -15.163  -2.429  0.00  0.00     0.101 A 
ATOM     15  C   UNL d   1      25.425 -16.382  -1.715  0.00  0.00     0.102 A 
ATOM     16  C   UNL d   1      26.437 -16.662  -0.774  0.00  0.00     0.049 A 
BRANCH  14  17
ATOM     17  O   UNL d   1      24.782 -14.824  -3.582  0.00  0.00    -0.353 OA
ATOM     18  C   UNL d   1      25.273 -13.850  -4.500  0.00  0.00     0.210 C 
ENDBRANCH  14  17
BRANCH  15  19
ATOM     19  O   UNL d   1      24.579 -17.459  -1.772  0.00  0.00    -0.353 OA
ATOM     20  C   UNL d   1      23.525 -17.435  -0.851  0.00  0.00     0.210 C 
ENDBRANCH  15  19
ENDBRANCH   6  11
ENDBRANCH   5   6
ENDBRANCH   1   5
BRANCH   2  21
ATOM     21  C   UNL d   1      28.286 -13.466   4.650  0.00  0.00     0.090 A 
ATOM     22  C   UNL d   1      28.514 -14.537   5.488  0.00  0.00     0.139 A 
ATOM     23  N   UNL d   1      28.631 -14.434   6.839  0.00  0.00    -0.234 NA
ATOM     24  C   UNL d   1      28.478 -13.207   7.357  0.00  0.00     0.189 A 
ATOM     25  N   UNL d   1      28.225 -12.110   6.625  0.00  0.00    -0.210 NA
ATOM     26  C   UNL d   1      28.130 -12.268   5.296  0.00  0.00     0.146 A 
ATOM     27 CL   UNL d   1      27.784 -10.786   4.487  0.00  0.00    -0.061 Cl
BRANCH  24  28
ATOM     28  S   UNL d   1      28.676 -12.887   9.078  0.00  0.00    -0.086 SA
BRANCH  28  29
ATOM     29  C   UNL d   1      28.777 -14.536   9.869  0.00  0.00     0.121 C 
BRANCH  29  30
ATOM     30  C   UNL d   1      30.205 -14.851  10.309  0.00  0.00    -0.048 A 
ATOM     31  C   UNL d   1      31.303 -14.519   9.494  0.00  0.00     0.011 A 
ATOM     32  C   UNL d   1      32.599 -14.919   9.850  0.00  0.00     0.043 A 
ATOM     33  C   UNL d   1      32.815 -15.577  11.055  0.00  0.00     0.116 A 
ATOM     34  F   UNL d   1      34.061 -15.896  11.426  0.00  0.00    -0.206 F 
ATOM     35  C   UNL d   1      31.755 -15.903  11.883  0.00  0.00     0.043 A 
ATOM     36  C   UNL d   1      30.459 -15.566  11.498  0.00  0.00     0.011 A 
ENDBRANCH  29  30
ENDBRANCH  28  29
ENDBRANCH  24  28
ENDBRANCH   2  21
TORSDOF 10
ENDMDL
MODEL 8
REMARK VINA RESULT:    -8.805      5.834      9.785
REMARK INTER + INTRA:         -12.942
REMARK INTER:                 -11.788
REMARK INTRA:                  -1.153
REMARK CONF_INDEPENDENT:        2.983
REMARK UNBOUND:                -1.153
REMARK  10 active torsions:
REMARK  status: ('A' for Active; 'I' for Inactive)
REMARK    1  A    between atoms: O_2  and  C_3 
REMARK    2  A    between atoms: C_7  and  C_6 
REMARK    3  A    between atoms: C_7  and  N_28 
REMARK    4  A    between atoms: C_7  and  C_8 
REMARK    5  A    between atoms: C_8  and  N_9 
REMARK       I    between atoms: N_9  and  C_10 
REMARK    6  A    between atoms: C_10  and  C_12 
REMARK    7  A    between atoms: C_15  and  S_16 
REMARK    8  A    between atoms: S_16  and  C_17 
REMARK    9  A    between atoms: C_17  and  C_18 
REMARK   10  A    between atoms: C_32  and  O_33 
ROOT
ATOM      1  N   UNL d   1      27.776 -14.864   1.986  0.00  0.00    -0.354 N 
ATOM      2  C   UNL d   1      27.223 -13.647   2.368  0.00  0.00     0.256 C 
ATOM      3  O   UNL d   1      26.261 -13.164   1.804  0.00  0.00    -0.268 OA
ATOM      4  H   UNL d   1      28.600 -15.219   2.464  0.00  0.00     0.162 HD
ENDROOT
BRANCH   1   5
ATOM      5  C   UNL d   1      27.237 -15.545   0.818  0.00  0.00     0.161 C 
BRANCH   5   6
ATOM      6  C   UNL d   1      28.231 -16.380  -0.050  0.00  0.00     0.237 C 
BRANCH   6   7
ATOM      7  N   UNL d   1      29.686 -16.071   0.353  0.00  0.00    -0.069 N 
ATOM      8  C   UNL d   1      30.689 -17.058  -0.173  0.00  0.00     0.270 C 
ATOM      9  C   UNL d   1      30.092 -14.664  -0.028  0.00  0.00     0.270 C 
ATOM     10  H   UNL d   1      29.735 -16.132   1.376  0.00  0.00     0.279 HD
ENDBRANCH   6   7
BRANCH   6  11
ATOM     11  C   UNL d   1      27.972 -16.064  -1.511  0.00  0.00    -0.023 A 
ATOM     12  C   UNL d   1      28.996 -16.102  -2.462  0.00  0.00     0.012 A 
ATOM     13  C   UNL d   1      28.764 -15.680  -3.773  0.00  0.00     0.040 A 
ATOM     14  C   UNL d   1      27.491 -15.268  -4.209  0.00  0.00     0.101 A 
ATOM     15  C   UNL d   1      26.449 -15.249  -3.255  0.00  0.00     0.102 A 
ATOM     16  C   UNL d   1      26.706 -15.652  -1.929  0.00  0.00     0.049 A 
BRANCH  14  17
ATOM     17  O   UNL d   1      27.409 -15.234  -5.580  0.00  0.00    -0.353 OA
ATOM     18  C   UNL d   1      28.206 -14.365  -6.381  0.00  0.00     0.210 C 
ENDBRANCH  14  17
BRANCH  15  19
ATOM     19  O   UNL d   1      25.119 -14.932  -3.359  0.00  0.00    -0.353 OA
ATOM     20  C   UNL d   1      24.847 -13.722  -4.008  0.00  0.00     0.210 C 
ENDBRANCH  15  19
ENDBRANCH   6  11
ENDBRANCH   5   6
ENDBRANCH   1   5
BRANCH   2  21
ATOM     21  C   UNL d   1      27.824 -12.950   3.517  0.00  0.00     0.090 A 
ATOM     22  C   UNL d   1      28.203 -11.627   3.419  0.00  0.00     0.139 A 
ATOM     23  N   UNL d   1      28.764 -10.919   4.436  0.00  0.00    -0.234 NA
ATOM     24  C   UNL d   1      28.977 -11.587   5.579  0.00  0.00     0.189 A 
ATOM     25  N   UNL d   1      28.668 -12.881   5.760  0.00  0.00    -0.210 NA
ATOM     26  C   UNL d   1      28.107 -13.528   4.726  0.00  0.00     0.146 A 
ATOM     27 CL   UNL d   1      27.783 -15.181   5.091  0.00  0.00    -0.061 Cl
BRANCH  24  28
ATOM     28  S   UNL d   1      29.621 -10.800   7.016  0.00  0.00    -0.086 SA
BRANCH  28  29
ATOM     29  C   UNL d   1      28.543 -11.348   8.392  0.00  0.00     0.121 C 
BRANCH  29  30
ATOM     30  C   UNL d   1      28.987 -12.704   8.936  0.00  0.00    -0.048 A 
ATOM     31  C   UNL d   1      28.196 -13.408   9.862  0.00  0.00     0.011 A 
ATOM     32  C   UNL d   1      28.668 -14.592  10.445  0.00  0.00     0.043 A 
ATOM     33  C   UNL d   1      29.891 -15.121  10.049  0.00  0.00     0.116 A 
ATOM     34  F   UNL d   1      30.308 -16.288  10.555  0.00  0.00    -0.206 F 
ATOM     35  C   UNL d   1      30.683 -14.458   9.128  0.00  0.00     0.043 A 
ATOM     36  C   UNL d   1      30.245 -13.246   8.598  0.00  0.00     0.011 A 
ENDBRANCH  29  30
ENDBRANCH  28  29
ENDBRANCH  24  28
ENDBRANCH   2  21
TORSDOF 10
ENDMDL
MODEL 9
REMARK VINA RESULT:    -8.156      3.459      5.279
REMARK INTER + INTRA:         -13.384
REMARK INTER:                 -11.139
REMARK INTRA:                  -2.244
REMARK CONF_INDEPENDENT:        2.983
REMARK UNBOUND:                -2.244
REMARK  10 active torsions:
REMARK  status: ('A' for Active; 'I' for Inactive)
REMARK    1  A    between atoms: O_2  and  C_3 
REMARK    2  A    between atoms: C_7  and  C_6 
REMARK    3  A    between atoms: C_7  and  N_28 
REMARK    4  A    between atoms: C_7  and  C_8 
REMARK    5  A    between atoms: C_8  and  N_9 
REMARK       I    between atoms: N_9  and  C_10 
REMARK    6  A    between atoms: C_10  and  C_12 
REMARK    7  A    between atoms: C_15  and  S_16 
REMARK    8  A    between atoms: S_16  and  C_17 
REMARK    9  A    between atoms: C_17  and  C_18 
REMARK   10  A    between atoms: C_32  and  O_33 
ROOT
ATOM      1  N   UNL d   1      28.798 -16.384  -1.613  0.00  0.00    -0.354 N 
ATOM      2  C   UNL d   1      27.848 -16.132  -0.630  0.00  0.00     0.256 C 
ATOM      3  O   UNL d   1      28.046 -15.355   0.284  0.00  0.00    -0.268 OA
ATOM      4  H   UNL d   1      28.605 -17.064  -2.343  0.00  0.00     0.162 HD
ENDROOT
BRANCH   1   5
ATOM      5  C   UNL d   1      30.109 -15.760  -1.499  0.00  0.00     0.161 C 
BRANCH   5   6
ATOM      6  C   UNL d   1      30.183 -14.209  -1.655  0.00  0.00     0.237 C 
BRANCH   6   7
ATOM      7  N   UNL d   1      29.933 -13.520  -0.299  0.00  0.00    -0.069 N 
ATOM      8  C   UNL d   1      30.581 -14.211   0.866  0.00  0.00     0.270 C 
ATOM      9  C   UNL d   1      30.327 -12.060  -0.325  0.00  0.00     0.270 C 
ATOM     10  H   UNL d   1      28.922 -13.556  -0.126  0.00  0.00     0.279 HD
ENDBRANCH   6   7
BRANCH   6  11
ATOM     11  C   UNL d   1      29.167 -13.784  -2.698  0.00  0.00    -0.023 A 
ATOM     12  C   UNL d   1      28.374 -12.645  -2.529  0.00  0.00     0.012 A 
ATOM     13  C   UNL d   1      27.355 -12.347  -3.436  0.00  0.00     0.040 A 
ATOM     14  C   UNL d   1      27.127 -13.129  -4.583  0.00  0.00     0.101 A 
ATOM     15  C   UNL d   1      27.941 -14.268  -4.769  0.00  0.00     0.102 A 
ATOM     16  C   UNL d   1      28.947 -14.571  -3.829  0.00  0.00     0.049 A 
BRANCH  14  17
ATOM     17  O   UNL d   1      26.333 -12.475  -5.495  0.00  0.00    -0.353 OA
ATOM     18  C   UNL d   1      25.861 -11.145  -5.295  0.00  0.00     0.210 C 
ENDBRANCH  14  17
BRANCH  15  19
ATOM     19  O   UNL d   1      27.993 -15.202  -5.772  0.00  0.00    -0.353 OA
ATOM     20  C   UNL d   1      28.819 -14.868  -6.852  0.00  0.00     0.210 C 
ENDBRANCH  15  19
ENDBRANCH   6  11
ENDBRANCH   5   6
ENDBRANCH   1   5
BRANCH   2  21
ATOM     21  C   UNL d   1      26.550 -16.820  -0.737  0.00  0.00     0.090 A 
ATOM     22  C   UNL d   1      26.345 -18.036  -0.117  0.00  0.00     0.139 A 
ATOM     23  N   UNL d   1      25.177 -18.730  -0.172  0.00  0.00    -0.234 NA
ATOM     24  C   UNL d   1      24.197 -18.187  -0.908  0.00  0.00     0.189 A 
ATOM     25  N   UNL d   1      24.312 -17.024  -1.570  0.00  0.00    -0.210 NA
ATOM     26  C   UNL d   1      25.484 -16.377  -1.473  0.00  0.00     0.146 A 
ATOM     27 CL   UNL d   1      25.498 -14.915  -2.385  0.00  0.00    -0.061 Cl
BRANCH  24  28
ATOM     28  S   UNL d   1      22.598 -18.915  -1.020  0.00  0.00    -0.086 SA
BRANCH  28  29
ATOM     29  C   UNL d   1      21.796 -18.573   0.592  0.00  0.00     0.121 C 
BRANCH  29  30
ATOM     30  C   UNL d   1      20.543 -19.426   0.777  0.00  0.00    -0.048 A 
ATOM     31  C   UNL d   1      19.787 -19.852  -0.330  0.00  0.00     0.011 A 
ATOM     32  C   UNL d   1      18.575 -20.532  -0.144  0.00  0.00     0.043 A 
ATOM     33  C   UNL d   1      18.153 -20.860   1.139  0.00  0.00     0.116 A 
ATOM     34  F   UNL d   1      17.032 -21.570   1.311  0.00  0.00    -0.206 F 
ATOM     35  C   UNL d   1      18.886 -20.468   2.246  0.00  0.00     0.043 A 
ATOM     36  C   UNL d   1      20.056 -19.733   2.065  0.00  0.00     0.011 A 
ENDBRANCH  29  30
ENDBRANCH  28  29
ENDBRANCH  24  28
ENDBRANCH   2  21
TORSDOF 10
ENDMDL
