MODEL 1
REMARK VINA RESULT:    -9.408      0.000      0.000
REMARK INTER + INTRA:         -11.196
REMARK INTER:                 -10.601
REMARK INTRA:                  -0.595
REMARK CONF_INDEPENDENT:        1.193
REMARK UNBOUND:                -0.595
REMARK  4 active torsions:
REMARK  status: ('A' for Active; 'I' for Inactive)
REMARK       I    between atoms: C_2  and  N_4 
REMARK    1  A    between atoms: N_4  and  C_5 
REMARK    2  A    between atoms: C_9  and  N_10 
REMARK    3  A    between atoms: C_11  and  C_12 
REMARK    4  A    between atoms: C_13  and  O_14 
ROOT
ATOM      1  N   UNL d   1      24.748 -15.265  -2.225  0.00  0.00    -0.260 NA
ATOM      2  C   UNL d   1      25.715 -14.433  -2.007  0.00  0.00     0.132 C 
ENDROOT
BRANCH   2   3
ATOM      3  C   UNL d   1      25.912 -13.236  -2.840  0.00  0.00     0.025 C 
ATOM      4  C   UNL d   1      25.380 -13.209  -4.138  0.00  0.00     0.078 C 
ATOM      5  C   UNL d   1      25.789 -12.163  -4.965  0.00  0.00     0.038 C 
ATOM      6  C   UNL d   1      26.479 -11.069  -4.485  0.00  0.00     0.015 C 
ATOM      7  C   UNL d   1      26.985 -11.112  -3.224  0.00  0.00    -0.025 C 
ATOM      8  C   UNL d   1      27.808 -10.085  -2.909  0.00  0.00     0.009 C 
ATOM      9  C   UNL d   1      26.736 -12.105  -2.299  0.00  0.00    -0.015 C 
ATOM     10  C   UNL d   1      28.173 -10.136  -1.612  0.00  0.00    -0.016 C 
ATOM     11  C   UNL d   1      28.533 -10.123  -0.404  0.00  0.00     0.043 C 
ATOM     12  C   UNL d   1      27.440 -11.584  -0.919  0.00  0.00    -0.004 C 
BRANCH   4  13
ATOM     13  O   UNL d   1      24.441 -14.077  -4.645  0.00  0.00    -0.360 OA
ATOM     14  H   UNL d   1      23.655 -13.656  -5.043  0.00  0.00     0.217 HD
ENDBRANCH   4  13
ENDBRANCH   2   3
BRANCH   1  15
ATOM     15  C   UNL d   1      24.588 -16.390  -1.402  0.00  0.00     0.058 C 
ATOM     16  C   UNL d   1      25.702 -17.016  -0.882  0.00  0.00     0.031 C 
ATOM     17  C   UNL d   1      25.537 -18.029   0.052  0.00  0.00     0.005 C 
ATOM     18  C   UNL d   1      24.280 -18.575   0.323  0.00  0.00     0.029 C 
ATOM     19  C   UNL d   1      23.153 -17.950  -0.165  0.00  0.00     0.036 C 
ATOM     20  C   UNL d   1      23.344 -16.895  -1.037  0.00  0.00     0.061 C 
BRANCH  19  21
ATOM     21  N   UNL d   1      21.828 -18.298   0.228  0.00  0.00    -0.327 N 
ATOM     22  C   UNL d   1      20.968 -18.972  -0.644  0.00  0.00     0.218 C 
ATOM     23  C   UNL d   1      19.573 -19.324  -0.151  0.00  0.00     0.117 C 
ATOM     24  O   UNL d   1      21.298 -19.325  -1.778  0.00  0.00    -0.274 OA
ATOM     25  H   UNL d   1      21.550 -18.035   1.170  0.00  0.00     0.169 HD
ENDBRANCH  19  21
ENDBRANCH   1  15
TORSDOF 4
ENDMDL
MODEL 2
REMARK VINA RESULT:    -9.224      2.385      3.277
REMARK INTER + INTRA:         -11.678
REMARK INTER:                 -10.417
REMARK INTRA:                  -1.261
REMARK CONF_INDEPENDENT:        1.193
REMARK UNBOUND:                -1.261
REMARK  4 active torsions:
REMARK  status: ('A' for Active; 'I' for Inactive)
REMARK       I    between atoms: C_2  and  N_4 
REMARK    1  A    between atoms: N_4  and  C_5 
REMARK    2  A    between atoms: C_9  and  N_10 
REMARK    3  A    between atoms: C_11  and  C_12 
REMARK    4  A    between atoms: C_13  and  O_14 
ROOT
ATOM      1  N   UNL d   1      25.245 -15.502  -2.422  0.00  0.00    -0.260 NA
ATOM      2  C   UNL d   1      26.363 -15.497  -3.072  0.00  0.00     0.132 C 
ENDROOT
BRANCH   2   3
ATOM      3  C   UNL d   1      26.717 -14.413  -4.003  0.00  0.00     0.025 C 
ATOM      4  C   UNL d   1      25.994 -13.212  -3.961  0.00  0.00     0.078 C 
ATOM      5  C   UNL d   1      26.205 -12.312  -5.007  0.00  0.00     0.038 C 
ATOM      6  C   UNL d   1      27.239 -12.459  -5.908  0.00  0.00     0.015 C 
ATOM      7  C   UNL d   1      27.931 -13.629  -5.932  0.00  0.00    -0.025 C 
ATOM      8  C   UNL d   1      28.790 -13.757  -6.969  0.00  0.00     0.009 C 
ATOM      9  C   UNL d   1      27.798 -14.651  -5.015  0.00  0.00    -0.015 C 
ATOM     10  C   UNL d   1      29.519 -14.886  -6.858  0.00  0.00    -0.016 C 
ATOM     11  C   UNL d   1      30.241 -15.918  -6.798  0.00  0.00     0.043 C 
ATOM     12  C   UNL d   1      28.965 -15.727  -5.408  0.00  0.00    -0.004 C 
BRANCH   4  13
ATOM     13  O   UNL d   1      25.150 -12.810  -2.951  0.00  0.00    -0.360 OA
ATOM     14  H   UNL d   1      24.765 -13.532  -2.417  0.00  0.00     0.217 HD
ENDBRANCH   4  13
ENDBRANCH   2   3
BRANCH   1  15
ATOM     15  C   UNL d   1      24.949 -16.550  -1.537  0.00  0.00     0.058 C 
ATOM     16  C   UNL d   1      25.975 -17.193  -0.878  0.00  0.00     0.031 C 
ATOM     17  C   UNL d   1      25.671 -18.121   0.109  0.00  0.00     0.005 C 
ATOM     18  C   UNL d   1      24.366 -18.575   0.308  0.00  0.00     0.029 C 
ATOM     19  C   UNL d   1      23.323 -17.928  -0.320  0.00  0.00     0.036 C 
ATOM     20  C   UNL d   1      23.650 -16.956  -1.247  0.00  0.00     0.061 C 
BRANCH  19  21
ATOM     21  N   UNL d   1      21.952 -18.171  -0.020  0.00  0.00    -0.327 N 
ATOM     22  C   UNL d   1      21.128 -18.865  -0.911  0.00  0.00     0.218 C 
ATOM     23  C   UNL d   1      19.678 -19.101  -0.517  0.00  0.00     0.117 C 
ATOM     24  O   UNL d   1      21.529 -19.325  -1.982  0.00  0.00    -0.274 OA
ATOM     25  H   UNL d   1      21.613 -17.820   0.872  0.00  0.00     0.169 HD
ENDBRANCH  19  21
ENDBRANCH   1  15
TORSDOF 4
ENDMDL
MODEL 3
REMARK VINA RESULT:    -8.785      1.792      2.054
REMARK INTER + INTRA:         -11.235
REMARK INTER:                  -9.978
REMARK INTRA:                  -1.257
REMARK CONF_INDEPENDENT:        1.193
REMARK UNBOUND:                -1.257
REMARK  4 active torsions:
REMARK  status: ('A' for Active; 'I' for Inactive)
REMARK       I    between atoms: C_2  and  N_4 
REMARK    1  A    between atoms: N_4  and  C_5 
REMARK    2  A    between atoms: C_9  and  N_10 
REMARK    3  A    between atoms: C_11  and  C_12 
REMARK    4  A    between atoms: C_13  and  O_14 
ROOT
ATOM      1  N   UNL d   1      25.780 -15.661  -3.135  0.00  0.00    -0.260 NA
ATOM      2  C   UNL d   1      26.372 -14.517  -3.014  0.00  0.00     0.132 C 
ENDROOT
BRANCH   2   3
ATOM      3  C   UNL d   1      26.658 -13.663  -4.178  0.00  0.00     0.025 C 
ATOM      4  C   UNL d   1      27.262 -14.229  -5.311  0.00  0.00     0.078 C 
ATOM      5  C   UNL d   1      27.724 -13.345  -6.287  0.00  0.00     0.038 C 
ATOM      6  C   UNL d   1      27.399 -12.005  -6.282  0.00  0.00     0.015 C 
ATOM      7  C   UNL d   1      26.811 -11.474  -5.177  0.00  0.00    -0.025 C 
ATOM      8  C   UNL d   1      26.707 -10.126  -5.184  0.00  0.00     0.009 C 
ATOM      9  C   UNL d   1      26.355 -12.196  -4.093  0.00  0.00    -0.015 C 
ATOM     10  C   UNL d   1      26.012  -9.687  -4.114  0.00  0.00    -0.016 C 
ATOM     11  C   UNL d   1      25.356  -9.222  -3.145  0.00  0.00     0.043 C 
ATOM     12  C   UNL d   1      25.597 -11.102  -3.144  0.00  0.00    -0.004 C 
BRANCH   4  13
ATOM     13  O   UNL d   1      27.378 -15.574  -5.579  0.00  0.00    -0.360 OA
ATOM     14  H   UNL d   1      26.883 -16.163  -4.978  0.00  0.00     0.217 HD
ENDBRANCH   4  13
ENDBRANCH   2   3
BRANCH   1  15
ATOM     15  C   UNL d   1      25.518 -16.441  -1.999  0.00  0.00     0.058 C 
ATOM     16  C   UNL d   1      26.554 -16.786  -1.157  0.00  0.00     0.031 C 
ATOM     17  C   UNL d   1      26.270 -17.424   0.043  0.00  0.00     0.005 C 
ATOM     18  C   UNL d   1      24.992 -17.913   0.325  0.00  0.00     0.029 C 
ATOM     19  C   UNL d   1      23.938 -17.558  -0.488  0.00  0.00     0.036 C 
ATOM     20  C   UNL d   1      24.240 -16.859  -1.642  0.00  0.00     0.061 C 
BRANCH  19  21
ATOM     21  N   UNL d   1      22.575 -17.823  -0.170  0.00  0.00    -0.327 N 
ATOM     22  C   UNL d   1      21.811 -18.707  -0.938  0.00  0.00     0.218 C 
ATOM     23  C   UNL d   1      20.366 -18.953  -0.530  0.00  0.00     0.117 C 
ATOM     24  O   UNL d   1      22.262 -19.322  -1.907  0.00  0.00    -0.274 OA
ATOM     25  H   UNL d   1      22.196 -17.342   0.641  0.00  0.00     0.169 HD
ENDBRANCH  19  21
ENDBRANCH   1  15
TORSDOF 4
ENDMDL
MODEL 4
REMARK VINA RESULT:    -8.354      3.797      4.701
REMARK INTER + INTRA:         -10.043
REMARK INTER:                  -9.547
REMARK INTRA:                  -0.497
REMARK CONF_INDEPENDENT:        1.193
REMARK UNBOUND:                -0.497
REMARK  4 active torsions:
REMARK  status: ('A' for Active; 'I' for Inactive)
REMARK       I    between atoms: C_2  and  N_4 
REMARK    1  A    between atoms: N_4  and  C_5 
REMARK    2  A    between atoms: C_9  and  N_10 
REMARK    3  A    between atoms: C_11  and  C_12 
REMARK    4  A    between atoms: C_13  and  O_14 
ROOT
ATOM      1  N   UNL d   1      26.261 -17.419  -1.330  0.00  0.00    -0.260 NA
ATOM      2  C   UNL d   1      26.922 -16.462  -1.897  0.00  0.00     0.132 C 
ENDROOT
BRANCH   2   3
ATOM      3  C   UNL d   1      28.350 -16.593  -2.227  0.00  0.00     0.025 C 
ATOM      4  C   UNL d   1      29.225 -17.142  -1.278  0.00  0.00     0.078 C 
ATOM      5  C   UNL d   1      30.590 -17.031  -1.541  0.00  0.00     0.038 C 
ATOM      6  C   UNL d   1      31.075 -16.631  -2.769  0.00  0.00     0.015 C 
ATOM      7  C   UNL d   1      30.212 -16.104  -3.677  0.00  0.00    -0.025 C 
ATOM      8  C   UNL d   1      30.800 -15.564  -4.769  0.00  0.00     0.009 C 
ATOM      9  C   UNL d   1      28.839 -16.073  -3.546  0.00  0.00    -0.015 C 
ATOM     10  C   UNL d   1      29.879 -15.170  -5.671  0.00  0.00    -0.016 C 
ATOM     11  C   UNL d   1      29.064 -14.799  -6.558  0.00  0.00     0.043 C 
ATOM     12  C   UNL d   1      28.290 -15.495  -4.974  0.00  0.00    -0.004 C 
BRANCH   4  13
ATOM     13  O   UNL d   1      28.859 -17.840  -0.150  0.00  0.00    -0.360 OA
ATOM     14  H   UNL d   1      29.600 -18.195   0.380  0.00  0.00     0.217 HD
ENDBRANCH   4  13
ENDBRANCH   2   3
BRANCH   1  15
ATOM     15  C   UNL d   1      24.898 -17.258  -1.039  0.00  0.00     0.058 C 
ATOM     16  C   UNL d   1      24.288 -16.046  -1.287  0.00  0.00     0.031 C 
ATOM     17  C   UNL d   1      22.912 -15.936  -1.145  0.00  0.00     0.005 C 
ATOM     18  C   UNL d   1      22.156 -16.953  -0.558  0.00  0.00     0.029 C 
ATOM     19  C   UNL d   1      22.738 -18.180  -0.326  0.00  0.00     0.036 C 
ATOM     20  C   UNL d   1      24.099 -18.284  -0.546  0.00  0.00     0.061 C 
BRANCH  19  21
ATOM     21  N   UNL d   1      22.004 -19.338   0.064  0.00  0.00    -0.327 N 
ATOM     22  C   UNL d   1      20.641 -19.461  -0.221  0.00  0.00     0.218 C 
ATOM     23  C   UNL d   1      19.926 -20.732   0.213  0.00  0.00     0.117 C 
ATOM     24  O   UNL d   1      20.001 -18.607  -0.837  0.00  0.00    -0.274 OA
ATOM     25  H   UNL d   1      22.525 -20.062   0.551  0.00  0.00     0.169 HD
ENDBRANCH  19  21
ENDBRANCH   1  15
TORSDOF 4
ENDMDL
MODEL 5
REMARK VINA RESULT:    -8.347      3.000      7.934
REMARK INTER + INTRA:         -10.275
REMARK INTER:                  -9.540
REMARK INTRA:                  -0.735
REMARK CONF_INDEPENDENT:        1.193
REMARK UNBOUND:                -0.735
REMARK  4 active torsions:
REMARK  status: ('A' for Active; 'I' for Inactive)
REMARK       I    between atoms: C_2  and  N_4 
REMARK    1  A    between atoms: N_4  and  C_5 
REMARK    2  A    between atoms: C_9  and  N_10 
REMARK    3  A    between atoms: C_11  and  C_12 
REMARK    4  A    between atoms: C_13  and  O_14 
ROOT
ATOM      1  N   UNL d   1      26.148 -15.277  -2.943  0.00  0.00    -0.260 NA
ATOM      2  C   UNL d   1      26.844 -15.413  -1.860  0.00  0.00     0.132 C 
ENDROOT
BRANCH   2   3
ATOM      3  C   UNL d   1      26.540 -16.455  -0.867  0.00  0.00     0.025 C 
ATOM      4  C   UNL d   1      27.591 -17.044  -0.149  0.00  0.00     0.078 C 
ATOM      5  C   UNL d   1      27.283 -18.179   0.602  0.00  0.00     0.038 C 
ATOM      6  C   UNL d   1      25.983 -18.575   0.842  0.00  0.00     0.015 C 
ATOM      7  C   UNL d   1      24.977 -17.991   0.139  0.00  0.00    -0.025 C 
ATOM      8  C   UNL d   1      23.766 -18.572   0.295  0.00  0.00     0.009 C 
ATOM      9  C   UNL d   1      25.118 -16.904  -0.700  0.00  0.00    -0.015 C 
ATOM     10  C   UNL d   1      22.805 -17.869  -0.338  0.00  0.00    -0.016 C 
ATOM     11  C   UNL d   1      21.863 -17.243  -0.895  0.00  0.00     0.043 C 
ATOM     12  C   UNL d   1      23.595 -16.513  -1.146  0.00  0.00    -0.004 C 
BRANCH   4  13
ATOM     13  O   UNL d   1      28.879 -16.567  -0.062  0.00  0.00    -0.360 OA
ATOM     14  H   UNL d   1      29.274 -16.592   0.831  0.00  0.00     0.217 HD
ENDBRANCH   4  13
ENDBRANCH   2   3
BRANCH   1  15
ATOM     15  C   UNL d   1      26.477 -14.276  -3.870  0.00  0.00     0.058 C 
ATOM     16  C   UNL d   1      27.307 -14.575  -4.929  0.00  0.00     0.031 C 
ATOM     17  C   UNL d   1      27.504 -13.629  -5.926  0.00  0.00     0.005 C 
ATOM     18  C   UNL d   1      27.059 -12.314  -5.782  0.00  0.00     0.029 C 
ATOM     19  C   UNL d   1      26.207 -11.998  -4.745  0.00  0.00     0.036 C 
ATOM     20  C   UNL d   1      25.968 -12.983  -3.804  0.00  0.00     0.061 C 
BRANCH  19  21
ATOM     21  N   UNL d   1      25.531 -10.749  -4.635  0.00  0.00    -0.327 N 
ATOM     22  C   UNL d   1      25.976  -9.761  -3.752  0.00  0.00     0.218 C 
ATOM     23  C   UNL d   1      25.213  -8.446  -3.699  0.00  0.00     0.117 C 
ATOM     24  O   UNL d   1      26.976  -9.890  -3.043  0.00  0.00    -0.274 OA
ATOM     25  H   UNL d   1      24.719 -10.618  -5.232  0.00  0.00     0.169 HD
ENDBRANCH  19  21
ENDBRANCH   1  15
TORSDOF 4
ENDMDL
MODEL 6
REMARK VINA RESULT:    -8.154      3.125      8.078
REMARK INTER + INTRA:         -10.060
REMARK INTER:                  -9.347
REMARK INTRA:                  -0.713
REMARK CONF_INDEPENDENT:        1.193
REMARK UNBOUND:                -0.713
REMARK  4 active torsions:
REMARK  status: ('A' for Active; 'I' for Inactive)
REMARK       I    between atoms: C_2  and  N_4 
REMARK    1  A    between atoms: N_4  and  C_5 
REMARK    2  A    between atoms: C_9  and  N_10 
REMARK    3  A    between atoms: C_11  and  C_12 
REMARK    4  A    between atoms: C_13  and  O_14 
ROOT
ATOM      1  N   UNL d   1      25.872 -15.031  -2.772  0.00  0.00    -0.260 NA
ATOM      2  C   UNL d   1      26.652 -15.240  -1.761  0.00  0.00     0.132 C 
ENDROOT
BRANCH   2   3
ATOM      3  C   UNL d   1      26.402 -16.324  -0.798  0.00  0.00     0.025 C 
ATOM      4  C   UNL d   1      27.481 -16.867  -0.083  0.00  0.00     0.078 C 
ATOM      5  C   UNL d   1      27.235 -18.037   0.635  0.00  0.00     0.038 C 
ATOM      6  C   UNL d   1      25.960 -18.517   0.851  0.00  0.00     0.015 C 
ATOM      7  C   UNL d   1      24.926 -17.977   0.152  0.00  0.00    -0.025 C 
ATOM      8  C   UNL d   1      23.751 -18.634   0.280  0.00  0.00     0.009 C 
ATOM      9  C   UNL d   1      25.009 -16.862  -0.657  0.00  0.00    -0.015 C 
ATOM     10  C   UNL d   1      22.755 -17.974  -0.345  0.00  0.00    -0.016 C 
ATOM     11  C   UNL d   1      21.783 -17.392  -0.896  0.00  0.00     0.043 C 
ATOM     12  C   UNL d   1      23.469 -16.552  -1.110  0.00  0.00    -0.004 C 
BRANCH   4  13
ATOM     13  O   UNL d   1      28.736 -16.315   0.029  0.00  0.00    -0.360 OA
ATOM     14  H   UNL d   1      29.151 -16.399   0.910  0.00  0.00     0.217 HD
ENDBRANCH   4  13
ENDBRANCH   2   3
BRANCH   1  15
ATOM     15  C   UNL d   1      26.150 -13.992  -3.673  0.00  0.00     0.058 C 
ATOM     16  C   UNL d   1      25.323 -12.890  -3.717  0.00  0.00     0.031 C 
ATOM     17  C   UNL d   1      25.686 -11.799  -4.495  0.00  0.00     0.005 C 
ATOM     18  C   UNL d   1      26.751 -11.867  -5.396  0.00  0.00     0.029 C 
ATOM     19  C   UNL d   1      27.605 -12.947  -5.351  0.00  0.00     0.036 C 
ATOM     20  C   UNL d   1      27.260 -13.990  -4.512  0.00  0.00     0.061 C 
BRANCH  19  21
ATOM     21  N   UNL d   1      28.833 -13.009  -6.072  0.00  0.00    -0.327 N 
ATOM     22  C   UNL d   1      29.219 -14.173  -6.744  0.00  0.00     0.218 C 
ATOM     23  C   UNL d   1      30.536 -14.162  -7.505  0.00  0.00     0.117 C 
ATOM     24  O   UNL d   1      28.528 -15.193  -6.778  0.00  0.00    -0.274 OA
ATOM     25  H   UNL d   1      29.402 -12.167  -6.073  0.00  0.00     0.169 HD
ENDBRANCH  19  21
ENDBRANCH   1  15
TORSDOF 4
ENDMDL
MODEL 7
REMARK VINA RESULT:    -7.671      4.260      5.418
REMARK INTER + INTRA:          -9.532
REMARK INTER:                  -8.864
REMARK INTRA:                  -0.669
REMARK CONF_INDEPENDENT:        1.193
REMARK UNBOUND:                -0.669
REMARK  4 active torsions:
REMARK  status: ('A' for Active; 'I' for Inactive)
REMARK       I    between atoms: C_2  and  N_4 
REMARK    1  A    between atoms: N_4  and  C_5 
REMARK    2  A    between atoms: C_9  and  N_10 
REMARK    3  A    between atoms: C_11  and  C_12 
REMARK    4  A    between atoms: C_13  and  O_14 
ROOT
ATOM      1  N   UNL d   1      27.194 -16.314   0.666  0.00  0.00    -0.260 NA
ATOM      2  C   UNL d   1      27.924 -15.281   0.392  0.00  0.00     0.132 C 
ENDROOT
BRANCH   2   3
ATOM      3  C   UNL d   1      29.061 -14.886   1.239  0.00  0.00     0.025 C 
ATOM      4  C   UNL d   1      30.363 -14.986   0.727  0.00  0.00     0.078 C 
ATOM      5  C   UNL d   1      31.411 -14.827   1.635  0.00  0.00     0.038 C 
ATOM      6  C   UNL d   1      31.213 -14.353   2.915  0.00  0.00     0.015 C 
ATOM      7  C   UNL d   1      29.944 -14.260   3.393  0.00  0.00    -0.025 C 
ATOM      8  C   UNL d   1      29.856 -13.974   4.712  0.00  0.00     0.009 C 
ATOM      9  C   UNL d   1      28.797 -14.450   2.650  0.00  0.00    -0.015 C 
ATOM     10  C   UNL d   1      28.572 -13.784   5.083  0.00  0.00    -0.016 C 
ATOM     11  C   UNL d   1      27.395 -13.578   5.482  0.00  0.00     0.043 C 
ATOM     12  C   UNL d   1      27.570 -14.057   3.656  0.00  0.00    -0.004 C 
BRANCH   4  13
ATOM     13  O   UNL d   1      30.702 -15.157  -0.595  0.00  0.00    -0.360 OA
ATOM     14  H   UNL d   1      31.448 -15.766  -0.760  0.00  0.00     0.217 HD
ENDBRANCH   4  13
ENDBRANCH   2   3
BRANCH   1  15
ATOM     15  C   UNL d   1      26.125 -16.662  -0.172  0.00  0.00     0.058 C 
ATOM     16  C   UNL d   1      26.107 -16.212  -1.475  0.00  0.00     0.031 C 
ATOM     17  C   UNL d   1      25.131 -16.684  -2.343  0.00  0.00     0.005 C 
ATOM     18  C   UNL d   1      24.047 -17.434  -1.884  0.00  0.00     0.029 C 
ATOM     19  C   UNL d   1      24.057 -17.917  -0.594  0.00  0.00     0.036 C 
ATOM     20  C   UNL d   1      25.081 -17.490   0.231  0.00  0.00     0.061 C 
BRANCH  19  21
ATOM     21  N   UNL d   1      23.113 -18.862  -0.100  0.00  0.00    -0.327 N 
ATOM     22  C   UNL d   1      21.739 -18.678  -0.286  0.00  0.00     0.218 C 
ATOM     23  C   UNL d   1      20.790 -19.737   0.255  0.00  0.00     0.117 C 
ATOM     24  O   UNL d   1      21.264 -17.719  -0.897  0.00  0.00    -0.274 OA
ATOM     25  H   UNL d   1      23.491 -19.671   0.385  0.00  0.00     0.169 HD
ENDBRANCH  19  21
ENDBRANCH   1  15
TORSDOF 4
ENDMDL
MODEL 8
REMARK VINA RESULT:    -7.583      2.424      8.987
REMARK INTER + INTRA:         -10.032
REMARK INTER:                  -8.776
REMARK INTRA:                  -1.256
REMARK CONF_INDEPENDENT:        1.193
REMARK UNBOUND:                -1.256
REMARK  4 active torsions:
REMARK  status: ('A' for Active; 'I' for Inactive)
REMARK       I    between atoms: C_2  and  N_4 
REMARK    1  A    between atoms: N_4  and  C_5 
REMARK    2  A    between atoms: C_9  and  N_10 
REMARK    3  A    between atoms: C_11  and  C_12 
REMARK    4  A    between atoms: C_13  and  O_14 
ROOT
ATOM      1  N   UNL d   1      22.735 -18.254  -0.956  0.00  0.00    -0.260 NA
ATOM      2  C   UNL d   1      22.154 -18.621   0.141  0.00  0.00     0.132 C 
ENDROOT
BRANCH   2   3
ATOM      3  C   UNL d   1      20.861 -19.324   0.138  0.00  0.00     0.025 C 
ATOM      4  C   UNL d   1      20.182 -19.503  -1.077  0.00  0.00     0.078 C 
ATOM      5  C   UNL d   1      18.866 -19.960  -1.002  0.00  0.00     0.038 C 
ATOM      6  C   UNL d   1      18.321 -20.451   0.166  0.00  0.00     0.015 C 
ATOM      7  C   UNL d   1      18.994 -20.272   1.333  0.00  0.00    -0.025 C 
ATOM      8  C   UNL d   1      18.301 -20.609   2.445  0.00  0.00     0.009 C 
ATOM      9  C   UNL d   1      20.275 -19.771   1.444  0.00  0.00    -0.015 C 
ATOM     10  C   UNL d   1      19.074 -20.513   3.546  0.00  0.00    -0.016 C 
ATOM     11  C   UNL d   1      19.752 -20.460   4.606  0.00  0.00     0.043 C 
ATOM     12  C   UNL d   1      20.654 -19.925   3.027  0.00  0.00    -0.004 C 
BRANCH   4  13
ATOM     13  O   UNL d   1      20.715 -19.336  -2.334  0.00  0.00    -0.360 OA
ATOM     14  H   UNL d   1      21.621 -18.971  -2.358  0.00  0.00     0.217 HD
ENDBRANCH   4  13
ENDBRANCH   2   3
BRANCH   1  15
ATOM     15  C   UNL d   1      23.972 -17.594  -0.910  0.00  0.00     0.058 C 
ATOM     16  C   UNL d   1      25.039 -18.191  -0.272  0.00  0.00     0.031 C 
ATOM     17  C   UNL d   1      26.296 -17.609  -0.362  0.00  0.00     0.005 C 
ATOM     18  C   UNL d   1      26.472 -16.332  -0.899  0.00  0.00     0.029 C 
ATOM     19  C   UNL d   1      25.427 -15.728  -1.563  0.00  0.00     0.036 C 
ATOM     20  C   UNL d   1      24.201 -16.365  -1.521  0.00  0.00     0.061 C 
BRANCH  19  21
ATOM     21  N   UNL d   1      25.565 -14.532  -2.325  0.00  0.00    -0.327 N 
ATOM     22  C   UNL d   1      25.496 -14.552  -3.722  0.00  0.00     0.218 C 
ATOM     23  C   UNL d   1      25.637 -13.235  -4.469  0.00  0.00     0.117 C 
ATOM     24  O   UNL d   1      25.291 -15.579  -4.373  0.00  0.00    -0.274 OA
ATOM     25  H   UNL d   1      25.710 -13.674  -1.801  0.00  0.00     0.169 HD
ENDBRANCH  19  21
ENDBRANCH   1  15
TORSDOF 4
ENDMDL
MODEL 9
REMARK VINA RESULT:    -7.255      2.824      4.496
REMARK INTER + INTRA:          -9.559
REMARK INTER:                  -8.448
REMARK INTRA:                  -1.111
REMARK CONF_INDEPENDENT:        1.193
REMARK UNBOUND:                -1.111
REMARK  4 active torsions:
REMARK  status: ('A' for Active; 'I' for Inactive)
REMARK       I    between atoms: C_2  and  N_4 
REMARK    1  A    between atoms: N_4  and  C_5 
REMARK    2  A    between atoms: C_9  and  N_10 
REMARK    3  A    between atoms: C_11  and  C_12 
REMARK    4  A    between atoms: C_13  and  O_14 
ROOT
ATOM      1  N   UNL d   1      23.799 -18.297  -1.044  0.00  0.00    -0.260 NA
ATOM      2  C   UNL d   1      24.148 -17.052  -1.092  0.00  0.00     0.132 C 
ENDROOT
BRANCH   2   3
ATOM      3  C   UNL d   1      25.504 -16.639  -1.487  0.00  0.00     0.025 C 
ATOM      4  C   UNL d   1      26.609 -17.315  -0.949  0.00  0.00     0.078 C 
ATOM      5  C   UNL d   1      27.864 -16.744  -1.165  0.00  0.00     0.038 C 
ATOM      6  C   UNL d   1      28.061 -15.712  -2.059  0.00  0.00     0.015 C 
ATOM      7  C   UNL d   1      26.978 -15.071  -2.573  0.00  0.00    -0.025 C 
ATOM      8  C   UNL d   1      27.265 -13.955  -3.283  0.00  0.00     0.009 C 
ATOM      9  C   UNL d   1      25.666 -15.462  -2.402  0.00  0.00    -0.015 C 
ATOM     10  C   UNL d   1      26.154 -13.445  -3.854  0.00  0.00    -0.016 C 
ATOM     11  C   UNL d   1      25.155 -12.933  -4.426  0.00  0.00     0.043 C 
ATOM     12  C   UNL d   1      24.797 -14.456  -3.355  0.00  0.00    -0.004 C 
BRANCH   4  13
ATOM     13  O   UNL d   1      26.576 -18.523  -0.290  0.00  0.00    -0.360 OA
ATOM     14  H   UNL d   1      25.686 -18.841  -0.047  0.00  0.00     0.217 HD
ENDBRANCH   4  13
ENDBRANCH   2   3
BRANCH   1  15
ATOM     15  C   UNL d   1      22.493 -18.649  -0.671  0.00  0.00     0.058 C 
ATOM     16  C   UNL d   1      21.534 -18.833  -1.645  0.00  0.00     0.031 C 
ATOM     17  C   UNL d   1      20.289 -19.330  -1.286  0.00  0.00     0.005 C 
ATOM     18  C   UNL d   1      19.909 -19.450   0.052  0.00  0.00     0.029 C 
ATOM     19  C   UNL d   1      20.857 -19.297   1.040  0.00  0.00     0.036 C 
ATOM     20  C   UNL d   1      22.113 -18.871   0.648  0.00  0.00     0.061 C 
BRANCH  19  21
ATOM     21  N   UNL d   1      20.623 -19.608   2.411  0.00  0.00    -0.327 N 
ATOM     22  C   UNL d   1      19.639 -20.528   2.786  0.00  0.00     0.218 C 
ATOM     23  C   UNL d   1      19.456 -20.823   4.267  0.00  0.00     0.117 C 
ATOM     24  O   UNL d   1      18.940 -21.137   1.974  0.00  0.00    -0.274 OA
ATOM     25  H   UNL d   1      21.210 -19.133   3.091  0.00  0.00     0.169 HD
ENDBRANCH  19  21
ENDBRANCH   1  15
TORSDOF 4
ENDMDL
