MODEL 1
REMARK VINA RESULT:    -8.559      0.000      0.000
REMARK INTER + INTRA:         -11.634
REMARK INTER:                 -10.051
REMARK INTRA:                  -1.583
REMARK CONF_INDEPENDENT:        1.492
REMARK UNBOUND:                -1.583
REMARK  5 active torsions:
REMARK  status: ('A' for Active; 'I' for Inactive)
REMARK    1  A    between atoms: C_2  and  C_3 
REMARK    2  A    between atoms: C_3  and  C_4 
REMARK    3  A    between atoms: C_5  and  C_6 
REMARK       I    between atoms: C_6  and  N_8 
REMARK    4  A    between atoms: N_8  and  N_9 
REMARK       I    between atoms: N_9  and  C_10 
REMARK    5  A    between atoms: C_10  and  C_12 
ROOT
ATOM      1  N   UNL d   1      23.386 -18.036  -1.027  0.00  0.00    -0.261 N 
ATOM      2  C   UNL d   1      24.713 -17.776  -0.670  0.00  0.00     0.294 C 
ATOM      3  O   UNL d   1      25.220 -18.346   0.305  0.00  0.00    -0.264 OA
ATOM      4  H   UNL d   1      22.967 -17.677  -1.882  0.00  0.00     0.190 HD
ENDROOT
BRANCH   2   5
ATOM      5  C   UNL d   1      25.417 -16.782  -1.491  0.00  0.00     0.152 A 
ATOM      6  O   UNL d   1      24.753 -16.123  -2.509  0.00  0.00    -0.304 OA
ATOM      7  C   UNL d   1      25.647 -15.288  -3.132  0.00  0.00     0.087 A 
ATOM      8  C   UNL d   1      25.396 -14.431  -4.212  0.00  0.00     0.038 A 
ATOM      9  C   UNL d   1      26.898 -15.412  -2.539  0.00  0.00     0.007 A 
ATOM     10  C   UNL d   1      26.476 -13.677  -4.701  0.00  0.00     0.003 A 
ATOM     11  C   UNL d   1      27.744 -13.780  -4.129  0.00  0.00     0.001 A 
ATOM     12  C   UNL d   1      27.967 -14.646  -3.051  0.00  0.00     0.015 A 
ATOM     13  C   UNL d   1      26.753 -16.384  -1.501  0.00  0.00    -0.009 A 
ATOM     14  C   UNL d   1      27.838 -16.927  -0.654  0.00  0.00     0.052 C 
ENDBRANCH   2   5
BRANCH   1  15
ATOM     15  N   UNL d   1      22.574 -18.950  -0.280  0.00  0.00    -0.264 N 
ATOM     16  C   UNL d   1      21.200 -18.940  -0.474  0.00  0.00     0.259 C 
ATOM     17  O   UNL d   1      20.653 -18.179  -1.270  0.00  0.00    -0.267 OA
ATOM     18  H   UNL d   1      23.062 -19.561   0.371  0.00  0.00     0.190 HD
BRANCH  16  19
ATOM     19  C   UNL d   1      20.417 -19.921   0.355  0.00  0.00     0.072 C 
ATOM     20  C   UNL d   1      19.486 -19.514   1.244  0.00  0.00    -0.021 C 
BRANCH  20  21
ATOM     21  C   UNL d   1      18.660 -20.441   2.112  0.00  0.00     0.027 C 
BRANCH  21  22
ATOM     22  C   UNL d   1      18.031 -21.607   1.329  0.00  0.00    -0.001 C 
ATOM     23  C   UNL d   1      17.655 -21.198  -0.091  0.00  0.00     0.005 C 
ENDBRANCH  21  22
ENDBRANCH  20  21
ENDBRANCH  16  19
ENDBRANCH   1  15
TORSDOF 5
ENDMDL
MODEL 2
REMARK VINA RESULT:    -7.850      1.312      2.757
REMARK INTER + INTRA:         -10.405
REMARK INTER:                  -9.341
REMARK INTRA:                  -1.064
REMARK CONF_INDEPENDENT:        1.492
REMARK UNBOUND:                -1.064
REMARK  5 active torsions:
REMARK  status: ('A' for Active; 'I' for Inactive)
REMARK    1  A    between atoms: C_2  and  C_3 
REMARK    2  A    between atoms: C_3  and  C_4 
REMARK    3  A    between atoms: C_5  and  C_6 
REMARK       I    between atoms: C_6  and  N_8 
REMARK    4  A    between atoms: N_8  and  N_9 
REMARK       I    between atoms: N_9  and  C_10 
REMARK    5  A    between atoms: C_10  and  C_12 
ROOT
ATOM      1  N   UNL d   1      23.573 -17.833  -0.186  0.00  0.00    -0.261 N 
ATOM      2  C   UNL d   1      23.917 -16.670  -0.884  0.00  0.00     0.294 C 
ATOM      3  O   UNL d   1      23.037 -15.886  -1.262  0.00  0.00    -0.264 OA
ATOM      4  H   UNL d   1      24.267 -18.444   0.238  0.00  0.00     0.190 HD
ENDROOT
BRANCH   2   5
ATOM      5  C   UNL d   1      25.348 -16.482  -1.156  0.00  0.00     0.152 A 
ATOM      6  O   UNL d   1      26.296 -17.062  -0.332  0.00  0.00    -0.304 OA
ATOM      7  C   UNL d   1      27.538 -16.698  -0.788  0.00  0.00     0.087 A 
ATOM      8  C   UNL d   1      28.779 -17.067  -0.251  0.00  0.00     0.038 A 
ATOM      9  C   UNL d   1      27.408 -15.866  -1.892  0.00  0.00     0.007 A 
ATOM     10  C   UNL d   1      29.929 -16.556  -0.876  0.00  0.00     0.003 A 
ATOM     11  C   UNL d   1      29.833 -15.716  -1.986  0.00  0.00     0.001 A 
ATOM     12  C   UNL d   1      28.579 -15.363  -2.501  0.00  0.00     0.015 A 
ATOM     13  C   UNL d   1      26.004 -15.713  -2.115  0.00  0.00    -0.009 A 
ATOM     14  C   UNL d   1      25.369 -14.835  -3.122  0.00  0.00     0.052 C 
ENDBRANCH   2   5
BRANCH   1  15
ATOM     15  N   UNL d   1      22.207 -18.158   0.103  0.00  0.00    -0.264 N 
ATOM     16  C   UNL d   1      21.491 -18.915  -0.813  0.00  0.00     0.259 C 
ATOM     17  O   UNL d   1      21.986 -19.324  -1.861  0.00  0.00    -0.267 OA
ATOM     18  H   UNL d   1      21.832 -17.798   0.978  0.00  0.00     0.190 HD
BRANCH  16  19
ATOM     19  C   UNL d   1      20.062 -19.205  -0.442  0.00  0.00     0.072 C 
ATOM     20  C   UNL d   1      19.644 -20.456  -0.152  0.00  0.00    -0.021 C 
BRANCH  20  21
ATOM     21  C   UNL d   1      18.224 -20.823   0.229  0.00  0.00     0.027 C 
BRANCH  21  22
ATOM     22  C   UNL d   1      18.065 -21.174   1.719  0.00  0.00    -0.001 C 
ATOM     23  C   UNL d   1      19.093 -20.451   2.583  0.00  0.00     0.005 C 
ENDBRANCH  21  22
ENDBRANCH  20  21
ENDBRANCH  16  19
ENDBRANCH   1  15
TORSDOF 5
ENDMDL
MODEL 3
REMARK VINA RESULT:    -7.833      2.420      4.461
REMARK INTER + INTRA:         -10.948
REMARK INTER:                  -9.324
REMARK INTRA:                  -1.624
REMARK CONF_INDEPENDENT:        1.492
REMARK UNBOUND:                -1.624
REMARK  5 active torsions:
REMARK  status: ('A' for Active; 'I' for Inactive)
REMARK    1  A    between atoms: C_2  and  C_3 
REMARK    2  A    between atoms: C_3  and  C_4 
REMARK    3  A    between atoms: C_5  and  C_6 
REMARK       I    between atoms: C_6  and  N_8 
REMARK    4  A    between atoms: N_8  and  N_9 
REMARK       I    between atoms: N_9  and  C_10 
REMARK    5  A    between atoms: C_10  and  C_12 
ROOT
ATOM      1  N   UNL d   1      25.683 -15.943  -3.028  0.00  0.00    -0.261 N 
ATOM      2  C   UNL d   1      25.530 -14.891  -3.937  0.00  0.00     0.294 C 
ATOM      3  O   UNL d   1      24.454 -14.284  -4.014  0.00  0.00    -0.264 OA
ATOM      4  H   UNL d   1      26.580 -16.391  -2.853  0.00  0.00     0.190 HD
ENDROOT
BRANCH   2   5
ATOM      5  C   UNL d   1      26.693 -14.600  -4.786  0.00  0.00     0.152 A 
ATOM      6  O   UNL d   1      27.644 -15.575  -5.023  0.00  0.00    -0.304 OA
ATOM      7  C   UNL d   1      28.629 -15.030  -5.808  0.00  0.00     0.087 A 
ATOM      8  C   UNL d   1      29.781 -15.669  -6.288  0.00  0.00     0.038 A 
ATOM      9  C   UNL d   1      28.338 -13.698  -6.071  0.00  0.00     0.007 A 
ATOM     10  C   UNL d   1      30.666 -14.903  -7.066  0.00  0.00     0.003 A 
ATOM     11  C   UNL d   1      30.402 -13.562  -7.346  0.00  0.00     0.001 A 
ATOM     12  C   UNL d   1      29.244 -12.949  -6.852  0.00  0.00     0.015 A 
ATOM     13  C   UNL d   1      27.106 -13.419  -5.399  0.00  0.00    -0.009 A 
ATOM     14  C   UNL d   1      26.442 -12.100  -5.303  0.00  0.00     0.052 C 
ENDBRANCH   2   5
BRANCH   1  15
ATOM     15  N   UNL d   1      24.610 -16.357  -2.173  0.00  0.00    -0.264 N 
ATOM     16  C   UNL d   1      24.865 -17.294  -1.183  0.00  0.00     0.259 C 
ATOM     17  O   UNL d   1      25.982 -17.779  -1.006  0.00  0.00    -0.267 OA
ATOM     18  H   UNL d   1      23.701 -15.936  -2.353  0.00  0.00     0.190 HD
BRANCH  16  19
ATOM     19  C   UNL d   1      23.686 -17.685  -0.335  0.00  0.00     0.072 C 
ATOM     20  C   UNL d   1      22.729 -18.521  -0.794  0.00  0.00    -0.021 C 
BRANCH  20  21
ATOM     21  C   UNL d   1      21.515 -18.959   0.000  0.00  0.00     0.027 C 
BRANCH  21  22
ATOM     22  C   UNL d   1      20.268 -19.188  -0.872  0.00  0.00    -0.001 C 
ATOM     23  C   UNL d   1      19.212 -20.014  -0.145  0.00  0.00     0.005 C 
ENDBRANCH  21  22
ENDBRANCH  20  21
ENDBRANCH  16  19
ENDBRANCH   1  15
TORSDOF 5
ENDMDL
MODEL 4
REMARK VINA RESULT:    -7.666      1.732      2.397
REMARK INTER + INTRA:          -9.822
REMARK INTER:                  -9.157
REMARK INTRA:                  -0.664
REMARK CONF_INDEPENDENT:        1.492
REMARK UNBOUND:                -0.664
REMARK  5 active torsions:
REMARK  status: ('A' for Active; 'I' for Inactive)
REMARK    1  A    between atoms: C_2  and  C_3 
REMARK    2  A    between atoms: C_3  and  C_4 
REMARK    3  A    between atoms: C_5  and  C_6 
REMARK       I    between atoms: C_6  and  N_8 
REMARK    4  A    between atoms: N_8  and  N_9 
REMARK       I    between atoms: N_9  and  C_10 
REMARK    5  A    between atoms: C_10  and  C_12 
ROOT
ATOM      1  N   UNL d   1      23.637 -17.803   0.228  0.00  0.00    -0.261 N 
ATOM      2  C   UNL d   1      24.026 -16.794  -0.660  0.00  0.00     0.294 C 
ATOM      3  O   UNL d   1      23.176 -16.175  -1.312  0.00  0.00    -0.264 OA
ATOM      4  H   UNL d   1      24.289 -18.258   0.863  0.00  0.00     0.190 HD
ENDROOT
BRANCH   2   5
ATOM      5  C   UNL d   1      25.472 -16.565  -0.779  0.00  0.00     0.152 A 
ATOM      6  O   UNL d   1      25.952 -15.541  -1.576  0.00  0.00    -0.304 OA
ATOM      7  C   UNL d   1      27.323 -15.575  -1.536  0.00  0.00     0.087 A 
ATOM      8  C   UNL d   1      28.212 -14.715  -2.195  0.00  0.00     0.038 A 
ATOM      9  C   UNL d   1      27.744 -16.628  -0.734  0.00  0.00     0.007 A 
ATOM     10  C   UNL d   1      29.586 -14.952  -2.022  0.00  0.00     0.003 A 
ATOM     11  C   UNL d   1      30.041 -16.002  -1.224  0.00  0.00     0.001 A 
ATOM     12  C   UNL d   1      29.130 -16.848  -0.578  0.00  0.00     0.015 A 
ATOM     13  C   UNL d   1      26.557 -17.273  -0.265  0.00  0.00    -0.009 A 
ATOM     14  C   UNL d   1      26.494 -18.510   0.544  0.00  0.00     0.052 C 
ENDBRANCH   2   5
BRANCH   1  15
ATOM     15  N   UNL d   1      22.259 -18.157   0.402  0.00  0.00    -0.264 N 
ATOM     16  C   UNL d   1      21.598 -18.806  -0.631  0.00  0.00     0.259 C 
ATOM     17  O   UNL d   1      22.153 -19.095  -1.690  0.00  0.00    -0.267 OA
ATOM     18  H   UNL d   1      21.834 -17.897   1.290  0.00  0.00     0.190 HD
BRANCH  16  19
ATOM     19  C   UNL d   1      20.153 -19.134  -0.375  0.00  0.00     0.072 C 
ATOM     20  C   UNL d   1      19.730 -20.408  -0.225  0.00  0.00    -0.021 C 
BRANCH  20  21
ATOM     21  C   UNL d   1      18.294 -20.815   0.034  0.00  0.00     0.027 C 
BRANCH  21  22
ATOM     22  C   UNL d   1      18.034 -21.234   1.491  0.00  0.00    -0.001 C 
ATOM     23  C   UNL d   1      18.843 -20.395   2.475  0.00  0.00     0.005 C 
ENDBRANCH  21  22
ENDBRANCH  20  21
ENDBRANCH  16  19
ENDBRANCH   1  15
TORSDOF 5
ENDMDL
MODEL 5
REMARK VINA RESULT:    -7.456      2.306      3.644
REMARK INTER + INTRA:         -10.338
REMARK INTER:                  -8.948
REMARK INTRA:                  -1.390
REMARK CONF_INDEPENDENT:        1.492
REMARK UNBOUND:                -1.390
REMARK  5 active torsions:
REMARK  status: ('A' for Active; 'I' for Inactive)
REMARK    1  A    between atoms: C_2  and  C_3 
REMARK    2  A    between atoms: C_3  and  C_4 
REMARK    3  A    between atoms: C_5  and  C_6 
REMARK       I    between atoms: C_6  and  N_8 
REMARK    4  A    between atoms: N_8  and  N_9 
REMARK       I    between atoms: N_9  and  C_10 
REMARK    5  A    between atoms: C_10  and  C_12 
ROOT
ATOM      1  N   UNL d   1      25.554 -16.396  -2.493  0.00  0.00    -0.261 N 
ATOM      2  C   UNL d   1      25.740 -15.425  -3.483  0.00  0.00     0.294 C 
ATOM      3  O   UNL d   1      24.784 -14.744  -3.875  0.00  0.00    -0.264 OA
ATOM      4  H   UNL d   1      26.329 -16.898  -2.063  0.00  0.00     0.190 HD
ENDROOT
BRANCH   2   5
ATOM      5  C   UNL d   1      27.100 -15.311  -4.024  0.00  0.00     0.152 A 
ATOM      6  O   UNL d   1      27.300 -15.205  -5.389  0.00  0.00    -0.304 OA
ATOM      7  C   UNL d   1      28.652 -15.150  -5.620  0.00  0.00     0.087 A 
ATOM      8  C   UNL d   1      29.295 -15.037  -6.860  0.00  0.00     0.038 A 
ATOM      9  C   UNL d   1      29.338 -15.240  -4.416  0.00  0.00     0.007 A 
ATOM     10  C   UNL d   1      30.701 -15.018  -6.857  0.00  0.00     0.003 A 
ATOM     11  C   UNL d   1      31.420 -15.107  -5.664  0.00  0.00     0.001 A 
ATOM     12  C   UNL d   1      30.750 -15.221  -4.440  0.00  0.00     0.015 A 
ATOM     13  C   UNL d   1      28.343 -15.362  -3.397  0.00  0.00    -0.009 A 
ATOM     14  C   UNL d   1      28.590 -15.586  -1.955  0.00  0.00     0.052 C 
ENDBRANCH   2   5
BRANCH   1  15
ATOM     15  N   UNL d   1      24.266 -16.641  -1.914  0.00  0.00    -0.264 N 
ATOM     16  C   UNL d   1      24.146 -17.614  -0.933  0.00  0.00     0.259 C 
ATOM     17  O   UNL d   1      25.106 -18.272  -0.535  0.00  0.00    -0.267 OA
ATOM     18  H   UNL d   1      23.496 -16.080  -2.272  0.00  0.00     0.190 HD
BRANCH  16  19
ATOM     19  C   UNL d   1      22.760 -17.818  -0.384  0.00  0.00     0.072 C 
ATOM     20  C   UNL d   1      21.897 -18.694  -0.942  0.00  0.00    -0.021 C 
BRANCH  20  21
ATOM     21  C   UNL d   1      20.490 -18.953  -0.446  0.00  0.00     0.027 C 
BRANCH  21  22
ATOM     22  C   UNL d   1      20.331 -20.315   0.251  0.00  0.00    -0.001 C 
ATOM     23  C   UNL d   1      18.915 -20.520   0.779  0.00  0.00     0.005 C 
ENDBRANCH  21  22
ENDBRANCH  20  21
ENDBRANCH  16  19
ENDBRANCH   1  15
TORSDOF 5
ENDMDL
MODEL 6
REMARK VINA RESULT:    -6.797      2.859      4.742
REMARK INTER + INTRA:          -9.632
REMARK INTER:                  -8.289
REMARK INTRA:                  -1.343
REMARK CONF_INDEPENDENT:        1.492
REMARK UNBOUND:                -1.343
REMARK  5 active torsions:
REMARK  status: ('A' for Active; 'I' for Inactive)
REMARK    1  A    between atoms: C_2  and  C_3 
REMARK    2  A    between atoms: C_3  and  C_4 
REMARK    3  A    between atoms: C_5  and  C_6 
REMARK       I    between atoms: C_6  and  N_8 
REMARK    4  A    between atoms: N_8  and  N_9 
REMARK       I    between atoms: N_9  and  C_10 
REMARK    5  A    between atoms: C_10  and  C_12 
ROOT
ATOM      1  N   UNL d   1      26.456 -15.946  -3.152  0.00  0.00    -0.261 N 
ATOM      2  C   UNL d   1      26.210 -15.150  -4.276  0.00  0.00     0.294 C 
ATOM      3  O   UNL d   1      25.052 -14.826  -4.569  0.00  0.00    -0.264 OA
ATOM      4  H   UNL d   1      27.395 -16.142  -2.813  0.00  0.00     0.190 HD
ENDROOT
BRANCH   2   5
ATOM      5  C   UNL d   1      27.387 -14.777  -5.070  0.00  0.00     0.152 A 
ATOM      6  O   UNL d   1      27.271 -13.860  -6.099  0.00  0.00    -0.304 OA
ATOM      7  C   UNL d   1      28.501 -13.725  -6.693  0.00  0.00     0.087 A 
ATOM      8  C   UNL d   1      28.835 -12.895  -7.772  0.00  0.00     0.038 A 
ATOM      9  C   UNL d   1      29.418 -14.563  -6.070  0.00  0.00     0.007 A 
ATOM     10  C   UNL d   1      30.164 -12.934  -8.227  0.00  0.00     0.003 A 
ATOM     11  C   UNL d   1      31.108 -13.767  -7.625  0.00  0.00     0.001 A 
ATOM     12  C   UNL d   1      30.746 -14.587  -6.549  0.00  0.00     0.015 A 
ATOM     13  C   UNL d   1      28.697 -15.250  -5.044  0.00  0.00    -0.009 A 
ATOM     14  C   UNL d   1      29.225 -16.325  -4.175  0.00  0.00     0.052 C 
ENDBRANCH   2   5
BRANCH   1  15
ATOM     15  N   UNL d   1      25.389 -16.417  -2.319  0.00  0.00    -0.264 N 
ATOM     16  C   UNL d   1      25.702 -17.077  -1.139  0.00  0.00     0.259 C 
ATOM     17  O   UNL d   1      26.862 -17.268  -0.778  0.00  0.00    -0.267 OA
ATOM     18  H   UNL d   1      24.444 -16.244  -2.653  0.00  0.00     0.190 HD
BRANCH  16  19
ATOM     19  C   UNL d   1      24.528 -17.550  -0.326  0.00  0.00     0.072 C 
ATOM     20  C   UNL d   1      23.375 -17.947  -0.909  0.00  0.00    -0.021 C 
BRANCH  20  21
ATOM     21  C   UNL d   1      22.154 -18.435  -0.157  0.00  0.00     0.027 C 
BRANCH  21  22
ATOM     22  C   UNL d   1      21.042 -18.964  -1.080  0.00  0.00    -0.001 C 
ATOM     23  C   UNL d   1      19.883 -19.558  -0.288  0.00  0.00     0.005 C 
ENDBRANCH  21  22
ENDBRANCH  20  21
ENDBRANCH  16  19
ENDBRANCH   1  15
TORSDOF 5
ENDMDL
MODEL 7
REMARK VINA RESULT:    -6.770      4.392      9.083
REMARK INTER + INTRA:          -9.659
REMARK INTER:                  -8.262
REMARK INTRA:                  -1.397
REMARK CONF_INDEPENDENT:        1.492
REMARK UNBOUND:                -1.397
REMARK  5 active torsions:
REMARK  status: ('A' for Active; 'I' for Inactive)
REMARK    1  A    between atoms: C_2  and  C_3 
REMARK    2  A    between atoms: C_3  and  C_4 
REMARK    3  A    between atoms: C_5  and  C_6 
REMARK       I    between atoms: C_6  and  N_8 
REMARK    4  A    between atoms: N_8  and  N_9 
REMARK       I    between atoms: N_9  and  C_10 
REMARK    5  A    between atoms: C_10  and  C_12 
ROOT
ATOM      1  N   UNL d   1      25.657 -12.618  -3.217  0.00  0.00    -0.261 N 
ATOM      2  C   UNL d   1      25.256 -13.897  -3.619  0.00  0.00     0.294 C 
ATOM      3  O   UNL d   1      24.780 -14.075  -4.747  0.00  0.00    -0.264 OA
ATOM      4  H   UNL d   1      26.154 -12.447  -2.346  0.00  0.00     0.190 HD
ENDROOT
BRANCH   2   5
ATOM      5  C   UNL d   1      25.404 -14.962  -2.618  0.00  0.00     0.152 A 
ATOM      6  O   UNL d   1      24.286 -15.577  -2.085  0.00  0.00    -0.304 OA
ATOM      7  C   UNL d   1      24.706 -16.497  -1.157  0.00  0.00     0.087 A 
ATOM      8  C   UNL d   1      23.904 -17.346  -0.382  0.00  0.00     0.038 A 
ATOM      9  C   UNL d   1      26.092 -16.474  -1.067  0.00  0.00     0.007 A 
ATOM     10  C   UNL d   1      24.557 -18.200   0.523  0.00  0.00     0.003 A 
ATOM     11  C   UNL d   1      25.948 -18.200   0.639  0.00  0.00     0.001 A 
ATOM     12  C   UNL d   1      26.724 -17.339  -0.148  0.00  0.00     0.015 A 
ATOM     13  C   UNL d   1      26.536 -15.476  -1.989  0.00  0.00    -0.009 A 
ATOM     14  C   UNL d   1      27.930 -15.017  -2.177  0.00  0.00     0.052 C 
ENDBRANCH   2   5
BRANCH   1  15
ATOM     15  N   UNL d   1      25.522 -11.484  -4.083  0.00  0.00    -0.264 N 
ATOM     16  C   UNL d   1      25.880 -10.231  -3.606  0.00  0.00     0.259 C 
ATOM     17  O   UNL d   1      26.316 -10.058  -2.469  0.00  0.00    -0.267 OA
ATOM     18  H   UNL d   1      25.154 -11.666  -5.014  0.00  0.00     0.190 HD
BRANCH  16  19
ATOM     19  C   UNL d   1      25.700  -9.091  -4.570  0.00  0.00     0.072 C 
ATOM     20  C   UNL d   1      24.506  -8.477  -4.728  0.00  0.00    -0.021 C 
BRANCH  20  21
ATOM     21  C   UNL d   1      24.249  -7.325  -5.677  0.00  0.00     0.027 C 
BRANCH  21  22
ATOM     22  C   UNL d   1      22.761  -6.947  -5.786  0.00  0.00    -0.001 C 
ATOM     23  C   UNL d   1      22.328  -6.019  -4.656  0.00  0.00     0.005 C 
ENDBRANCH  21  22
ENDBRANCH  20  21
ENDBRANCH  16  19
ENDBRANCH   1  15
TORSDOF 5
ENDMDL
MODEL 8
REMARK VINA RESULT:    -6.544      2.014      3.669
REMARK INTER + INTRA:          -9.742
REMARK INTER:                  -8.035
REMARK INTRA:                  -1.706
REMARK CONF_INDEPENDENT:        1.492
REMARK UNBOUND:                -1.706
REMARK  5 active torsions:
REMARK  status: ('A' for Active; 'I' for Inactive)
REMARK    1  A    between atoms: C_2  and  C_3 
REMARK    2  A    between atoms: C_3  and  C_4 
REMARK    3  A    between atoms: C_5  and  C_6 
REMARK       I    between atoms: C_6  and  N_8 
REMARK    4  A    between atoms: N_8  and  N_9 
REMARK       I    between atoms: N_9  and  C_10 
REMARK    5  A    between atoms: C_10  and  C_12 
ROOT
ATOM      1  N   UNL d   1      25.275 -16.601  -2.198  0.00  0.00    -0.261 N 
ATOM      2  C   UNL d   1      25.530 -15.551  -3.088  0.00  0.00     0.294 C 
ATOM      3  O   UNL d   1      24.624 -14.772  -3.409  0.00  0.00    -0.264 OA
ATOM      4  H   UNL d   1      26.012 -17.193  -1.822  0.00  0.00     0.190 HD
ENDROOT
BRANCH   2   5
ATOM      5  C   UNL d   1      26.898 -15.475  -3.618  0.00  0.00     0.152 A 
ATOM      6  O   UNL d   1      27.905 -16.241  -3.060  0.00  0.00    -0.304 OA
ATOM      7  C   UNL d   1      29.076 -15.950  -3.714  0.00  0.00     0.087 A 
ATOM      8  C   UNL d   1      30.341 -16.502  -3.473  0.00  0.00     0.038 A 
ATOM      9  C   UNL d   1      28.844 -14.983  -4.684  0.00  0.00     0.007 A 
ATOM     10  C   UNL d   1      31.408 -16.037  -4.261  0.00  0.00     0.003 A 
ATOM     11  C   UNL d   1      31.209 -15.065  -5.242  0.00  0.00     0.001 A 
ATOM     12  C   UNL d   1      29.933 -14.529  -5.460  0.00  0.00     0.015 A 
ATOM     13  C   UNL d   1      27.452 -14.666  -4.607  0.00  0.00    -0.009 A 
ATOM     14  C   UNL d   1      26.751 -13.615  -5.377  0.00  0.00     0.052 C 
ENDBRANCH   2   5
BRANCH   1  15
ATOM     15  N   UNL d   1      23.970 -16.814  -1.645  0.00  0.00    -0.264 N 
ATOM     16  C   UNL d   1      23.767 -17.903  -0.809  0.00  0.00     0.259 C 
ATOM     17  O   UNL d   1      24.667 -18.689  -0.520  0.00  0.00    -0.267 OA
ATOM     18  H   UNL d   1      23.251 -16.145  -1.911  0.00  0.00     0.190 HD
BRANCH  16  19
ATOM     19  C   UNL d   1      22.369 -18.064  -0.278  0.00  0.00     0.072 C 
ATOM     20  C   UNL d   1      21.503 -18.950  -0.817  0.00  0.00    -0.021 C 
BRANCH  20  21
ATOM     21  C   UNL d   1      20.082 -19.167  -0.336  0.00  0.00     0.027 C 
BRANCH  21  22
ATOM     22  C   UNL d   1      19.938 -20.372   0.610  0.00  0.00    -0.001 C 
ATOM     23  C   UNL d   1      18.519 -20.930   0.605  0.00  0.00     0.005 C 
ENDBRANCH  21  22
ENDBRANCH  20  21
ENDBRANCH  16  19
ENDBRANCH   1  15
TORSDOF 5
ENDMDL
MODEL 9
REMARK VINA RESULT:    -6.313      2.832      4.763
REMARK INTER + INTRA:          -9.309
REMARK INTER:                  -7.805
REMARK INTRA:                  -1.504
REMARK CONF_INDEPENDENT:        1.492
REMARK UNBOUND:                -1.504
REMARK  5 active torsions:
REMARK  status: ('A' for Active; 'I' for Inactive)
REMARK    1  A    between atoms: C_2  and  C_3 
REMARK    2  A    between atoms: C_3  and  C_4 
REMARK    3  A    between atoms: C_5  and  C_6 
REMARK       I    between atoms: C_6  and  N_8 
REMARK    4  A    between atoms: N_8  and  N_9 
REMARK       I    between atoms: N_9  and  C_10 
REMARK    5  A    between atoms: C_10  and  C_12 
ROOT
ATOM      1  N   UNL d   1      25.278 -14.771  -2.751  0.00  0.00    -0.261 N 
ATOM      2  C   UNL d   1      25.459 -14.414  -4.091  0.00  0.00     0.294 C 
ATOM      3  O   UNL d   1      25.155 -15.203  -4.994  0.00  0.00    -0.264 OA
ATOM      4  H   UNL d   1      25.408 -14.114  -1.985  0.00  0.00     0.190 HD
ENDROOT
BRANCH   2   5
ATOM      5  C   UNL d   1      26.053 -13.092  -4.330  0.00  0.00     0.152 A 
ATOM      6  O   UNL d   1      25.541 -11.973  -3.696  0.00  0.00    -0.304 OA
ATOM      7  C   UNL d   1      26.250 -10.879  -4.123  0.00  0.00     0.087 A 
ATOM      8  C   UNL d   1      26.067  -9.545  -3.732  0.00  0.00     0.038 A 
ATOM      9  C   UNL d   1      27.210 -11.271  -5.048  0.00  0.00     0.007 A 
ATOM     10  C   UNL d   1      26.905  -8.581  -4.318  0.00  0.00     0.003 A 
ATOM     11  C   UNL d   1      27.878  -8.943  -5.251  0.00  0.00     0.001 A 
ATOM     12  C   UNL d   1      28.037 -10.283  -5.625  0.00  0.00     0.015 A 
ATOM     13  C   UNL d   1      27.069 -12.687  -5.193  0.00  0.00    -0.009 A 
ATOM     14  C   UNL d   1      27.807 -13.546  -6.145  0.00  0.00     0.052 C 
ENDBRANCH   2   5
BRANCH   1  15
ATOM     15  N   UNL d   1      24.750 -16.051  -2.381  0.00  0.00    -0.264 N 
ATOM     16  C   UNL d   1      24.626 -16.361  -1.034  0.00  0.00     0.259 C 
ATOM     17  O   UNL d   1      24.946 -15.575  -0.144  0.00  0.00    -0.267 OA
ATOM     18  H   UNL d   1      24.501 -16.676  -3.145  0.00  0.00     0.190 HD
BRANCH  16  19
ATOM     19  C   UNL d   1      24.075 -17.727  -0.729  0.00  0.00     0.072 C 
ATOM     20  C   UNL d   1      22.748 -17.978  -0.751  0.00  0.00    -0.021 C 
BRANCH  20  21
ATOM     21  C   UNL d   1      22.121 -19.325  -0.455  0.00  0.00     0.027 C 
BRANCH  21  22
ATOM     22  C   UNL d   1      20.585 -19.315  -0.552  0.00  0.00    -0.001 C 
ATOM     23  C   UNL d   1      19.934 -19.891   0.702  0.00  0.00     0.005 C 
ENDBRANCH  21  22
ENDBRANCH  20  21
ENDBRANCH  16  19
ENDBRANCH   1  15
TORSDOF 5
ENDMDL
