MODEL 1
REMARK VINA RESULT:   -11.365      0.000      0.000
REMARK INTER + INTRA:         -15.092
REMARK INTER:                 -13.752
REMARK INTRA:                  -1.340
REMARK CONF_INDEPENDENT:        2.386
REMARK UNBOUND:                -1.340
REMARK  8 active torsions:
REMARK  status: ('A' for Active; 'I' for Inactive)
REMARK    1  A    between atoms: C_2  and  C_18 
REMARK    2  A    between atoms: C_2  and  S_3 
REMARK    3  A    between atoms: C_4  and  S_3 
REMARK    4  A    between atoms: C_7  and  C_8 
REMARK       I    between atoms: C_18  and  N_20 
REMARK    5  A    between atoms: N_20  and  C_21 
REMARK    6  A    between atoms: C_24  and  O_25 
REMARK    7  A    between atoms: O_25  and  C_26 
REMARK    8  A    between atoms: C_26  and  C_27 
ROOT
ATOM      1  C   UNL d   1      27.644 -12.787  -2.198  0.00  0.00     0.031 C 
ATOM      2  C   UNL d   1      27.417 -13.961  -3.152  0.00  0.00     0.140 C 
ENDROOT
BRANCH   2   3
ATOM      3  C   UNL d   1      26.215 -14.822  -2.720  0.00  0.00     0.235 C 
ATOM      4  O   UNL d   1      25.156 -14.792  -3.351  0.00  0.00    -0.272 OA
ATOM      5  N   UNL d   1      26.409 -15.639  -1.594  0.00  0.00    -0.326 N 
ATOM      6  H   UNL d   1      27.144 -15.401  -0.939  0.00  0.00     0.169 HD
BRANCH   5   7
ATOM      7  C   UNL d   1      25.338 -16.431  -1.098  0.00  0.00     0.034 C 
ATOM      8  C   UNL d   1      25.597 -17.681  -0.534  0.00  0.00     0.032 C 
ATOM      9  C   UNL d   1      24.559 -18.581  -0.291  0.00  0.00     0.039 C 
ATOM     10  C   UNL d   1      23.234 -18.206  -0.505  0.00  0.00     0.069 C 
ATOM     11  C   UNL d   1      22.961 -16.894  -0.896  0.00  0.00     0.039 C 
ATOM     12  C   UNL d   1      24.010 -16.012  -1.220  0.00  0.00     0.032 C 
BRANCH  10  13
ATOM     13  O   UNL d   1      22.317 -19.200  -0.313  0.00  0.00    -0.347 OA
BRANCH  13  14
ATOM     14  C   UNL d   1      20.995 -18.991  -0.820  0.00  0.00     0.214 C 
BRANCH  14  15
ATOM     15  C   UNL d   1      19.951 -19.639   0.068  0.00  0.00    -0.034 C 
ATOM     16  C   UNL d   1      20.165 -19.701   1.455  0.00  0.00     0.009 C 
ATOM     17  C   UNL d   1      19.317 -20.457   2.268  0.00  0.00     0.001 C 
ATOM     18  C   UNL d   1      18.181 -21.054   1.727  0.00  0.00     0.000 C 
ATOM     19  C   UNL d   1      17.883 -20.876   0.380  0.00  0.00     0.001 C 
ATOM     20  C   UNL d   1      18.783 -20.212  -0.453  0.00  0.00     0.009 C 
ENDBRANCH  14  15
ENDBRANCH  13  14
ENDBRANCH  10  13
ENDBRANCH   5   7
ENDBRANCH   2   3
BRANCH   2  21
ATOM     21  S   UNL d   1      27.184 -13.215  -4.831  0.00  0.00    -0.101 SA
BRANCH  21  22
ATOM     22  C   UNL d   1      27.616 -14.602  -5.925  0.00  0.00     0.311 A 
ATOM     23  N   UNL d   1      28.819 -14.267  -6.647  0.00  0.00    -0.273 N 
ATOM     24  N   UNL d   1      29.794 -15.159  -6.460  0.00  0.00    -0.150 NA
ATOM     25  H   UNL d   1      28.801 -13.624  -7.431  0.00  0.00     0.186 HD
ATOM     26  C   UNL d   1      29.281 -15.972  -5.598  0.00  0.00     0.195 A 
ATOM     27  O   UNL d   1      27.998 -15.769  -5.185  0.00  0.00    -0.296 OA
BRANCH  26  28
ATOM     28  C   UNL d   1      29.957 -17.088  -4.972  0.00  0.00     0.026 A 
ATOM     29  C   UNL d   1      30.494 -18.133  -5.607  0.00  0.00     0.003 A 
ATOM     30  C   UNL d   1      30.578 -18.538  -6.965  0.00  0.00     0.014 A 
ATOM     31  C   UNL d   1      31.142 -18.913  -4.529  0.00  0.00     0.039 A 
ATOM     32  C   UNL d   1      31.231 -19.676  -7.252  0.00  0.00     0.001 A 
ATOM     33  C   UNL d   1      31.853 -20.487  -6.213  0.00  0.00     0.002 A 
ATOM     34  C   UNL d   1      31.840 -20.161  -4.907  0.00  0.00     0.030 A 
ATOM     35  N   UNL d   1      31.003 -18.370  -3.385  0.00  0.00    -0.385 N 
ATOM     36  C   UNL d   1      30.236 -17.105  -3.509  0.00  0.00     0.164 A 
ATOM     37  H   UNL d   1      31.378 -18.766  -2.521  0.00  0.00     0.160 HD
ENDBRANCH  26  28
ENDBRANCH  21  22
ENDBRANCH   2  21
TORSDOF 8
ENDMDL
MODEL 2
REMARK VINA RESULT:   -10.674      3.920      7.577
REMARK INTER + INTRA:         -14.458
REMARK INTER:                 -13.061
REMARK INTRA:                  -1.397
REMARK CONF_INDEPENDENT:        2.386
REMARK UNBOUND:                -1.397
REMARK  8 active torsions:
REMARK  status: ('A' for Active; 'I' for Inactive)
REMARK    1  A    between atoms: C_2  and  C_18 
REMARK    2  A    between atoms: C_2  and  S_3 
REMARK    3  A    between atoms: C_4  and  S_3 
REMARK    4  A    between atoms: C_7  and  C_8 
REMARK       I    between atoms: C_18  and  N_20 
REMARK    5  A    between atoms: N_20  and  C_21 
REMARK    6  A    between atoms: C_24  and  O_25 
REMARK    7  A    between atoms: O_25  and  C_26 
REMARK    8  A    between atoms: C_26  and  C_27 
ROOT
ATOM      1  C   UNL d   1      29.767 -16.708   0.028  0.00  0.00     0.031 C 
ATOM      2  C   UNL d   1      29.220 -15.804  -1.078  0.00  0.00     0.140 C 
ENDROOT
BRANCH   2   3
ATOM      3  C   UNL d   1      27.766 -16.160  -1.439  0.00  0.00     0.235 C 
ATOM      4  O   UNL d   1      27.297 -15.864  -2.540  0.00  0.00    -0.272 OA
ATOM      5  N   UNL d   1      27.033 -16.845  -0.456  0.00  0.00    -0.326 N 
ATOM      6  H   UNL d   1      27.330 -16.781   0.510  0.00  0.00     0.169 HD
BRANCH   5   7
ATOM      7  C   UNL d   1      25.668 -17.171  -0.687  0.00  0.00     0.034 C 
ATOM      8  C   UNL d   1      24.806 -16.220  -1.235  0.00  0.00     0.032 C 
ATOM      9  C   UNL d   1      23.425 -16.418  -1.219  0.00  0.00     0.039 C 
ATOM     10  C   UNL d   1      22.888 -17.617  -0.755  0.00  0.00     0.069 C 
ATOM     11  C   UNL d   1      23.758 -18.641  -0.376  0.00  0.00     0.039 C 
ATOM     12  C   UNL d   1      25.146 -18.413  -0.314  0.00  0.00     0.032 C 
BRANCH  10  13
ATOM     13  O   UNL d   1      21.524 -17.657  -0.710  0.00  0.00    -0.347 OA
BRANCH  13  14
ATOM     14  C   UNL d   1      20.876 -18.826  -1.223  0.00  0.00     0.214 C 
BRANCH  14  15
ATOM     15  C   UNL d   1      19.988 -19.473  -0.178  0.00  0.00    -0.034 C 
ATOM     16  C   UNL d   1      20.359 -19.415   1.176  0.00  0.00     0.009 C 
ATOM     17  C   UNL d   1      19.666 -20.161   2.132  0.00  0.00     0.001 C 
ATOM     18  C   UNL d   1      18.526 -20.873   1.768  0.00  0.00     0.000 C 
ATOM     19  C   UNL d   1      18.068 -20.820   0.455  0.00  0.00     0.001 C 
ATOM     20  C   UNL d   1      18.817 -20.162  -0.520  0.00  0.00     0.009 C 
ENDBRANCH  14  15
ENDBRANCH  13  14
ENDBRANCH  10  13
ENDBRANCH   5   7
ENDBRANCH   2   3
BRANCH   2  21
ATOM     21  S   UNL d   1      29.386 -14.071  -0.446  0.00  0.00    -0.101 SA
BRANCH  21  22
ATOM     22  C   UNL d   1      28.051 -13.987   0.786  0.00  0.00     0.311 A 
ATOM     23  N   UNL d   1      28.590 -14.331   2.079  0.00  0.00    -0.273 N 
ATOM     24  N   UNL d   1      28.399 -13.371   2.987  0.00  0.00    -0.150 NA
ATOM     25  H   UNL d   1      28.789 -15.294   2.327  0.00  0.00     0.186 HD
ATOM     26  C   UNL d   1      27.850 -12.427   2.297  0.00  0.00     0.195 A 
ATOM     27  O   UNL d   1      27.584 -12.646   0.978  0.00  0.00    -0.296 OA
BRANCH  26  28
ATOM     28  C   UNL d   1      27.514 -11.105   2.780  0.00  0.00     0.026 A 
ATOM     29  C   UNL d   1      27.164 -10.062   2.023  0.00  0.00     0.003 A 
ATOM     30  C   UNL d   1      27.028  -9.845   0.626  0.00  0.00     0.014 A 
ATOM     31  C   UNL d   1      26.829  -9.005   3.003  0.00  0.00     0.039 A 
ATOM     32  C   UNL d   1      26.623  -8.636   0.205  0.00  0.00     0.001 A 
ATOM     33  C   UNL d   1      26.316  -7.561   1.139  0.00  0.00     0.002 A 
ATOM     34  C   UNL d   1      26.395  -7.692   2.477  0.00  0.00     0.030 A 
ATOM     35  N   UNL d   1      26.963  -9.397   4.207  0.00  0.00    -0.385 N 
ATOM     36  C   UNL d   1      27.405 -10.814   4.236  0.00  0.00     0.164 A 
ATOM     37  H   UNL d   1      26.782  -8.805   5.019  0.00  0.00     0.160 HD
ENDBRANCH  26  28
ENDBRANCH  21  22
ENDBRANCH   2  21
TORSDOF 8
ENDMDL
MODEL 3
REMARK VINA RESULT:   -10.040      3.726      6.327
REMARK INTER + INTRA:         -14.515
REMARK INTER:                 -12.426
REMARK INTRA:                  -2.088
REMARK CONF_INDEPENDENT:        2.386
REMARK UNBOUND:                -2.088
REMARK  8 active torsions:
REMARK  status: ('A' for Active; 'I' for Inactive)
REMARK    1  A    between atoms: C_2  and  C_18 
REMARK    2  A    between atoms: C_2  and  S_3 
REMARK    3  A    between atoms: C_4  and  S_3 
REMARK    4  A    between atoms: C_7  and  C_8 
REMARK       I    between atoms: C_18  and  N_20 
REMARK    5  A    between atoms: N_20  and  C_21 
REMARK    6  A    between atoms: C_24  and  O_25 
REMARK    7  A    between atoms: O_25  and  C_26 
REMARK    8  A    between atoms: C_26  and  C_27 
ROOT
ATOM      1  C   UNL d   1      28.906 -15.175   0.498  0.00  0.00     0.031 C 
ATOM      2  C   UNL d   1      28.619 -15.327  -0.997  0.00  0.00     0.140 C 
ENDROOT
BRANCH   2   3
ATOM      3  C   UNL d   1      27.306 -16.090  -1.252  0.00  0.00     0.235 C 
ATOM      4  O   UNL d   1      27.011 -16.481  -2.383  0.00  0.00    -0.272 OA
ATOM      5  N   UNL d   1      26.495 -16.320  -0.129  0.00  0.00    -0.326 N 
ATOM      6  H   UNL d   1      26.604 -15.726   0.683  0.00  0.00     0.169 HD
BRANCH   5   7
ATOM      7  C   UNL d   1      25.242 -16.976  -0.281  0.00  0.00     0.034 C 
ATOM      8  C   UNL d   1      25.070 -18.273   0.203  0.00  0.00     0.032 C 
ATOM      9  C   UNL d   1      23.957 -19.030  -0.167  0.00  0.00     0.039 C 
ATOM     10  C   UNL d   1      22.943 -18.464  -0.937  0.00  0.00     0.069 C 
ATOM     11  C   UNL d   1      23.026 -17.110  -1.269  0.00  0.00     0.039 C 
ATOM     12  C   UNL d   1      24.186 -16.371  -0.967  0.00  0.00     0.032 C 
BRANCH  10  13
ATOM     13  O   UNL d   1      21.950 -19.327  -1.304  0.00  0.00    -0.347 OA
BRANCH  13  14
ATOM     14  C   UNL d   1      20.599 -18.868  -1.201  0.00  0.00     0.214 C 
BRANCH  14  15
ATOM     15  C   UNL d   1      19.889 -19.490  -0.016  0.00  0.00    -0.034 C 
ATOM     16  C   UNL d   1      20.426 -19.333   1.273  0.00  0.00     0.009 C 
ATOM     17  C   UNL d   1      19.903 -20.052   2.351  0.00  0.00     0.001 C 
ATOM     18  C   UNL d   1      18.766 -20.836   2.178  0.00  0.00     0.000 C 
ATOM     19  C   UNL d   1      18.140 -20.884   0.937  0.00  0.00     0.001 C 
ATOM     20  C   UNL d   1      18.721 -20.252  -0.163  0.00  0.00     0.009 C 
ENDBRANCH  14  15
ENDBRANCH  13  14
ENDBRANCH  10  13
ENDBRANCH   5   7
ENDBRANCH   2   3
BRANCH   2  21
ATOM     21  S   UNL d   1      28.580 -13.607  -1.684  0.00  0.00    -0.101 SA
BRANCH  21  22
ATOM     22  C   UNL d   1      27.514 -13.806  -3.144  0.00  0.00     0.311 A 
ATOM     23  N   UNL d   1      26.141 -13.893  -2.708  0.00  0.00    -0.273 N 
ATOM     24  N   UNL d   1      25.366 -12.960  -3.265  0.00  0.00    -0.150 NA
ATOM     25  H   UNL d   1      25.773 -14.744  -2.295  0.00  0.00     0.186 HD
ATOM     26  C   UNL d   1      26.206 -12.257  -3.949  0.00  0.00     0.195 A 
ATOM     27  O   UNL d   1      27.515 -12.635  -3.971  0.00  0.00    -0.296 OA
BRANCH  26  28
ATOM     28  C   UNL d   1      25.904 -11.048  -4.684  0.00  0.00     0.026 A 
ATOM     29  C   UNL d   1      25.728  -9.835  -4.154  0.00  0.00     0.003 A 
ATOM     30  C   UNL d   1      25.731  -9.314  -2.833  0.00  0.00     0.014 A 
ATOM     31  C   UNL d   1      25.554  -8.952  -5.330  0.00  0.00     0.039 A 
ATOM     32  C   UNL d   1      25.531  -7.996  -2.667  0.00  0.00     0.001 A 
ATOM     33  C   UNL d   1      25.323  -7.103  -3.798  0.00  0.00     0.002 A 
ATOM     34  C   UNL d   1      25.331  -7.512  -5.081  0.00  0.00     0.030 A 
ATOM     35  N   UNL d   1      25.630  -9.588  -6.431  0.00  0.00    -0.385 N 
ATOM     36  C   UNL d   1      25.887 -11.027  -6.173  0.00  0.00     0.164 A 
ATOM     37  H   UNL d   1      25.530  -9.147  -7.347  0.00  0.00     0.160 HD
ENDBRANCH  26  28
ENDBRANCH  21  22
ENDBRANCH   2  21
TORSDOF 8
ENDMDL
MODEL 4
REMARK VINA RESULT:    -9.991      3.773      6.183
REMARK INTER + INTRA:         -14.299
REMARK INTER:                 -12.378
REMARK INTRA:                  -1.921
REMARK CONF_INDEPENDENT:        2.386
REMARK UNBOUND:                -1.921
REMARK  8 active torsions:
REMARK  status: ('A' for Active; 'I' for Inactive)
REMARK    1  A    between atoms: C_2  and  C_18 
REMARK    2  A    between atoms: C_2  and  S_3 
REMARK    3  A    between atoms: C_4  and  S_3 
REMARK    4  A    between atoms: C_7  and  C_8 
REMARK       I    between atoms: C_18  and  N_20 
REMARK    5  A    between atoms: N_20  and  C_21 
REMARK    6  A    between atoms: C_24  and  O_25 
REMARK    7  A    between atoms: O_25  and  C_26 
REMARK    8  A    between atoms: C_26  and  C_27 
ROOT
ATOM      1  C   UNL d   1      30.600 -15.170  -1.059  0.00  0.00     0.031 C 
ATOM      2  C   UNL d   1      29.796 -15.087  -2.357  0.00  0.00     0.140 C 
ENDROOT
BRANCH   2   3
ATOM      3  C   UNL d   1      28.379 -15.667  -2.190  0.00  0.00     0.235 C 
ATOM      4  O   UNL d   1      27.608 -15.737  -3.149  0.00  0.00    -0.272 OA
ATOM      5  N   UNL d   1      28.041 -16.116  -0.904  0.00  0.00    -0.326 N 
ATOM      6  H   UNL d   1      28.554 -15.756  -0.109  0.00  0.00     0.169 HD
BRANCH   5   7
ATOM      7  C   UNL d   1      26.736 -16.622  -0.648  0.00  0.00     0.034 C 
ATOM      8  C   UNL d   1      26.553 -17.635   0.294  0.00  0.00     0.032 C 
ATOM      9  C   UNL d   1      25.344 -18.328   0.368  0.00  0.00     0.039 C 
ATOM     10  C   UNL d   1      24.262 -17.948  -0.424  0.00  0.00     0.069 C 
ATOM     11  C   UNL d   1      24.387 -16.820  -1.236  0.00  0.00     0.039 C 
ATOM     12  C   UNL d   1      25.630 -16.172  -1.372  0.00  0.00     0.032 C 
BRANCH  10  13
ATOM     13  O   UNL d   1      23.165 -18.756  -0.323  0.00  0.00    -0.347 OA
BRANCH  13  14
ATOM     14  C   UNL d   1      21.883 -18.168  -0.570  0.00  0.00     0.214 C 
BRANCH  14  15
ATOM     15  C   UNL d   1      20.760 -19.059  -0.078  0.00  0.00    -0.034 C 
ATOM     16  C   UNL d   1      19.770 -19.484  -0.980  0.00  0.00     0.009 C 
ATOM     17  C   UNL d   1      18.627 -20.141  -0.518  0.00  0.00     0.001 C 
ATOM     18  C   UNL d   1      18.519 -20.489   0.826  0.00  0.00     0.000 C 
ATOM     19  C   UNL d   1      19.561 -20.200   1.701  0.00  0.00     0.001 C 
ATOM     20  C   UNL d   1      20.654 -19.452   1.262  0.00  0.00     0.009 C 
ENDBRANCH  14  15
ENDBRANCH  13  14
ENDBRANCH  10  13
ENDBRANCH   5   7
ENDBRANCH   2   3
BRANCH   2  21
ATOM     21  S   UNL d   1      29.775 -13.296  -2.828  0.00  0.00    -0.101 SA
BRANCH  21  22
ATOM     22  C   UNL d   1      29.012 -12.529  -1.366  0.00  0.00     0.311 A 
ATOM     23  N   UNL d   1      27.806 -13.249  -1.039  0.00  0.00    -0.273 N 
ATOM     24  N   UNL d   1      27.814 -13.724   0.209  0.00  0.00    -0.150 NA
ATOM     25  H   UNL d   1      26.955 -13.124  -1.577  0.00  0.00     0.186 HD
ATOM     26  C   UNL d   1      28.992 -13.405   0.631  0.00  0.00     0.195 A 
ATOM     27  O   UNL d   1      29.817 -12.698  -0.192  0.00  0.00    -0.296 OA
BRANCH  26  28
ATOM     28  C   UNL d   1      29.565 -13.768   1.909  0.00  0.00     0.026 A 
ATOM     29  C   UNL d   1      28.889 -13.935   3.049  0.00  0.00     0.003 A 
ATOM     30  C   UNL d   1      27.527 -13.810   3.428  0.00  0.00     0.014 A 
ATOM     31  C   UNL d   1      29.917 -14.397   4.010  0.00  0.00     0.039 A 
ATOM     32  C   UNL d   1      27.191 -14.084   4.699  0.00  0.00     0.001 A 
ATOM     33  C   UNL d   1      28.180 -14.509   5.680  0.00  0.00     0.002 A 
ATOM     34  C   UNL d   1      29.486 -14.677   5.396  0.00  0.00     0.030 A 
ATOM     35  N   UNL d   1      31.070 -14.496   3.478  0.00  0.00    -0.385 N 
ATOM     36  C   UNL d   1      31.005 -14.124   2.043  0.00  0.00     0.164 A 
ATOM     37  H   UNL d   1      31.904 -14.796   3.986  0.00  0.00     0.160 HD
ENDBRANCH  26  28
ENDBRANCH  21  22
ENDBRANCH   2  21
TORSDOF 8
ENDMDL
MODEL 5
REMARK VINA RESULT:    -9.648      1.443      2.346
REMARK INTER + INTRA:         -14.739
REMARK INTER:                 -12.034
REMARK INTRA:                  -2.705
REMARK CONF_INDEPENDENT:        2.386
REMARK UNBOUND:                -2.705
REMARK  8 active torsions:
REMARK  status: ('A' for Active; 'I' for Inactive)
REMARK    1  A    between atoms: C_2  and  C_18 
REMARK    2  A    between atoms: C_2  and  S_3 
REMARK    3  A    between atoms: C_4  and  S_3 
REMARK    4  A    between atoms: C_7  and  C_8 
REMARK       I    between atoms: C_18  and  N_20 
REMARK    5  A    between atoms: N_20  and  C_21 
REMARK    6  A    between atoms: C_24  and  O_25 
REMARK    7  A    between atoms: O_25  and  C_26 
REMARK    8  A    between atoms: C_26  and  C_27 
ROOT
ATOM      1  C   UNL d   1      30.062 -12.845  -2.963  0.00  0.00     0.031 C 
ATOM      2  C   UNL d   1      29.207 -13.950  -3.585  0.00  0.00     0.140 C 
ENDROOT
BRANCH   2   3
ATOM      3  C   UNL d   1      28.001 -14.308  -2.695  0.00  0.00     0.235 C 
ATOM      4  O   UNL d   1      27.594 -13.522  -1.837  0.00  0.00    -0.272 OA
ATOM      5  N   UNL d   1      27.401 -15.554  -2.936  0.00  0.00    -0.326 N 
ATOM      6  H   UNL d   1      27.940 -16.275  -3.399  0.00  0.00     0.169 HD
BRANCH   5   7
ATOM      7  C   UNL d   1      26.312 -15.985  -2.129  0.00  0.00     0.034 C 
ATOM      8  C   UNL d   1      26.481 -17.045  -1.237  0.00  0.00     0.032 C 
ATOM      9  C   UNL d   1      25.378 -17.657  -0.641  0.00  0.00     0.039 C 
ATOM     10  C   UNL d   1      24.095 -17.150  -0.841  0.00  0.00     0.069 C 
ATOM     11  C   UNL d   1      23.943 -15.980  -1.587  0.00  0.00     0.039 C 
ATOM     12  C   UNL d   1      25.045 -15.411  -2.255  0.00  0.00     0.032 C 
BRANCH  10  13
ATOM     13  O   UNL d   1      23.093 -17.885  -0.276  0.00  0.00    -0.347 OA
BRANCH  13  14
ATOM     14  C   UNL d   1      22.282 -18.683  -1.145  0.00  0.00     0.214 C 
BRANCH  14  15
ATOM     15  C   UNL d   1      21.081 -19.253  -0.417  0.00  0.00    -0.034 C 
ATOM     16  C   UNL d   1      19.971 -19.694  -1.156  0.00  0.00     0.009 C 
ATOM     17  C   UNL d   1      18.783 -20.042  -0.508  0.00  0.00     0.001 C 
ATOM     18  C   UNL d   1      18.730 -20.071   0.883  0.00  0.00     0.000 C 
ATOM     19  C   UNL d   1      19.870 -19.774   1.624  0.00  0.00     0.001 C 
ATOM     20  C   UNL d   1      21.023 -19.326   0.981  0.00  0.00     0.009 C 
ENDBRANCH  14  15
ENDBRANCH  13  14
ENDBRANCH  10  13
ENDBRANCH   5   7
ENDBRANCH   2   3
BRANCH   2  21
ATOM     21  S   UNL d   1      28.693 -13.320  -5.249  0.00  0.00    -0.101 SA
BRANCH  21  22
ATOM     22  C   UNL d   1      28.538 -14.859  -6.205  0.00  0.00     0.311 A 
ATOM     23  N   UNL d   1      29.606 -14.916  -7.173  0.00  0.00    -0.273 N 
ATOM     24  N   UNL d   1      30.354 -16.014  -7.047  0.00  0.00    -0.150 NA
ATOM     25  H   UNL d   1      29.580 -14.359  -8.020  0.00  0.00     0.186 HD
ATOM     26  C   UNL d   1      29.852 -16.588  -6.004  0.00  0.00     0.195 A 
ATOM     27  O   UNL d   1      28.773 -16.018  -5.396  0.00  0.00    -0.296 OA
BRANCH  26  28
ATOM     28  C   UNL d   1      30.356 -17.785  -5.366  0.00  0.00     0.026 A 
ATOM     29  C   UNL d   1      30.560 -17.945  -4.057  0.00  0.00     0.003 A 
ATOM     30  C   UNL d   1      30.420 -17.112  -2.916  0.00  0.00     0.014 A 
ATOM     31  C   UNL d   1      30.970 -19.362  -3.929  0.00  0.00     0.039 A 
ATOM     32  C   UNL d   1      30.707 -17.628  -1.710  0.00  0.00     0.001 A 
ATOM     33  C   UNL d   1      31.145 -19.007  -1.549  0.00  0.00     0.002 A 
ATOM     34  C   UNL d   1      31.280 -19.870  -2.575  0.00  0.00     0.030 A 
ATOM     35  N   UNL d   1      30.993 -19.965  -5.051  0.00  0.00    -0.385 N 
ATOM     36  C   UNL d   1      30.580 -19.040  -6.136  0.00  0.00     0.164 A 
ATOM     37  H   UNL d   1      31.256 -20.946  -5.162  0.00  0.00     0.160 HD
ENDBRANCH  26  28
ENDBRANCH  21  22
ENDBRANCH   2  21
TORSDOF 8
ENDMDL
MODEL 6
REMARK VINA RESULT:    -9.260      4.835      8.175
REMARK INTER + INTRA:         -14.452
REMARK INTER:                 -11.647
REMARK INTRA:                  -2.805
REMARK CONF_INDEPENDENT:        2.386
REMARK UNBOUND:                -2.805
REMARK  8 active torsions:
REMARK  status: ('A' for Active; 'I' for Inactive)
REMARK    1  A    between atoms: C_2  and  C_18 
REMARK    2  A    between atoms: C_2  and  S_3 
REMARK    3  A    between atoms: C_4  and  S_3 
REMARK    4  A    between atoms: C_7  and  C_8 
REMARK       I    between atoms: C_18  and  N_20 
REMARK    5  A    between atoms: N_20  and  C_21 
REMARK    6  A    between atoms: C_24  and  O_25 
REMARK    7  A    between atoms: O_25  and  C_26 
REMARK    8  A    between atoms: C_26  and  C_27 
ROOT
ATOM      1  C   UNL d   1      26.753  -9.602  -3.360  0.00  0.00     0.031 C 
ATOM      2  C   UNL d   1      27.799 -10.712  -3.466  0.00  0.00     0.140 C 
ENDROOT
BRANCH   2   3
ATOM      3  C   UNL d   1      28.123 -11.324  -2.090  0.00  0.00     0.235 C 
ATOM      4  O   UNL d   1      29.283 -11.611  -1.784  0.00  0.00    -0.272 OA
ATOM      5  N   UNL d   1      27.035 -11.512  -1.223  0.00  0.00    -0.326 N 
ATOM      6  H   UNL d   1      26.103 -11.570  -1.614  0.00  0.00     0.169 HD
BRANCH   5   7
ATOM      7  C   UNL d   1      27.237 -12.115   0.049  0.00  0.00     0.034 C 
ATOM      8  C   UNL d   1      27.297 -13.505   0.160  0.00  0.00     0.032 C 
ATOM      9  C   UNL d   1      27.222 -14.123   1.409  0.00  0.00     0.039 C 
ATOM     10  C   UNL d   1      27.195 -13.360   2.574  0.00  0.00     0.069 C 
ATOM     11  C   UNL d   1      27.319 -11.973   2.473  0.00  0.00     0.039 C 
ATOM     12  C   UNL d   1      27.311 -11.345   1.212  0.00  0.00     0.032 C 
BRANCH  10  13
ATOM     13  O   UNL d   1      27.035 -14.075   3.727  0.00  0.00    -0.347 OA
BRANCH  13  14
ATOM     14  C   UNL d   1      28.212 -14.596   4.354  0.00  0.00     0.214 C 
BRANCH  14  15
ATOM     15  C   UNL d   1      28.514 -13.875   5.653  0.00  0.00    -0.034 C 
ATOM     16  C   UNL d   1      27.789 -12.720   5.988  0.00  0.00     0.009 C 
ATOM     17  C   UNL d   1      28.174 -11.933   7.076  0.00  0.00     0.001 C 
ATOM     18  C   UNL d   1      29.207 -12.354   7.909  0.00  0.00     0.000 C 
ATOM     19  C   UNL d   1      29.837 -13.571   7.669  0.00  0.00     0.001 C 
ATOM     20  C   UNL d   1      29.524 -14.305   6.525  0.00  0.00     0.009 C 
ENDBRANCH  14  15
ENDBRANCH  13  14
ENDBRANCH  10  13
ENDBRANCH   5   7
ENDBRANCH   2   3
BRANCH   2  21
ATOM     21  S   UNL d   1      27.101 -11.958  -4.646  0.00  0.00    -0.101 SA
BRANCH  21  22
ATOM     22  C   UNL d   1      25.658 -12.580  -3.730  0.00  0.00     0.311 A 
ATOM     23  N   UNL d   1      24.922 -13.484  -4.580  0.00  0.00    -0.273 N 
ATOM     24  N   UNL d   1      24.780 -14.696  -4.039  0.00  0.00    -0.150 NA
ATOM     25  H   UNL d   1      24.329 -13.139  -5.327  0.00  0.00     0.186 HD
ATOM     26  C   UNL d   1      25.461 -14.606  -2.945  0.00  0.00     0.195 A 
ATOM     27  O   UNL d   1      26.042 -13.413  -2.629  0.00  0.00    -0.296 OA
BRANCH  26  28
ATOM     28  C   UNL d   1      25.718 -15.680  -2.011  0.00  0.00     0.026 A 
ATOM     29  C   UNL d   1      24.792 -16.376  -1.347  0.00  0.00     0.003 A 
ATOM     30  C   UNL d   1      23.375 -16.330  -1.270  0.00  0.00     0.014 A 
ATOM     31  C   UNL d   1      25.569 -17.407  -0.623  0.00  0.00     0.039 A 
ATOM     32  C   UNL d   1      22.749 -17.225  -0.489  0.00  0.00     0.001 A 
ATOM     33  C   UNL d   1      23.483 -18.233   0.264  0.00  0.00     0.002 A 
ATOM     34  C   UNL d   1      24.823 -18.360   0.227  0.00  0.00     0.030 A 
ATOM     35  N   UNL d   1      26.819 -17.323  -0.852  0.00  0.00    -0.385 N 
ATOM     36  C   UNL d   1      27.093 -16.211  -1.795  0.00  0.00     0.164 A 
ATOM     37  H   UNL d   1      27.514 -17.947  -0.437  0.00  0.00     0.160 HD
ENDBRANCH  26  28
ENDBRANCH  21  22
ENDBRANCH   2  21
TORSDOF 8
ENDMDL
