MODEL 1
REMARK VINA RESULT:    -8.952      0.000      0.000
REMARK INTER + INTRA:         -14.070
REMARK INTER:                 -11.935
REMARK INTRA:                  -2.135
REMARK CONF_INDEPENDENT:        2.983
REMARK UNBOUND:                -2.135
REMARK  10 active torsions:
REMARK  status: ('A' for Active; 'I' for Inactive)
REMARK    1  A    between atoms: C_2  and  C_3 
REMARK       I    between atoms: C_2  and  N_13 
REMARK    2  A    between atoms: C_3  and  N_4 
REMARK    3  A    between atoms: N_13  and  N_14 
REMARK    4  A    between atoms: N_14  and  C_15 
REMARK    5  A    between atoms: C_15  and  N_17 
REMARK       I    between atoms: N_17  and  C_18 
REMARK    6  A    between atoms: C_18  and  C_20 
REMARK    7  A    between atoms: C_20  and  C_21 
REMARK    8  A    between atoms: C_21  and  C_22 
REMARK    9  A    between atoms: C_22  and  O_23 
REMARK   10  A    between atoms: O_23  and  C_24 
ROOT
ATOM      1  C   UNL d   1      30.645 -13.850   2.463  0.00  0.00     0.193 C 
ATOM      2  S   UNL d   1      31.244 -12.431   1.767  0.00  0.00    -0.039 SA
ENDROOT
BRANCH   1   3
ATOM      3  N   UNL d   1      30.794 -14.060   3.854  0.00  0.00    -0.273 N 
ATOM      4  H   UNL d   1      31.549 -13.680   4.410  0.00  0.00     0.189 HD
BRANCH   3   5
ATOM      5  N   UNL d   1      29.814 -14.877   4.509  0.00  0.00    -0.266 N 
ATOM      6  C   UNL d   1      28.627 -14.526   5.112  0.00  0.00     0.254 C 
ATOM      7  O   UNL d   1      27.940 -15.425   5.607  0.00  0.00    -0.270 OA
ATOM      8  H   UNL d   1      30.021 -15.882   4.519  0.00  0.00     0.190 HD
BRANCH   6   9
ATOM      9  C   UNL d   1      28.239 -13.065   5.148  0.00  0.00     0.233 C 
BRANCH   9  10
ATOM     10  N   UNL d   1      27.634 -12.556   3.913  0.00  0.00    -0.347 N 
ATOM     11  C   UNL d   1      27.093 -13.357   2.931  0.00  0.00     0.092 A 
ATOM     12  C   UNL d   1      26.572 -12.548   1.949  0.00  0.00     0.031 A 
ATOM     13  C   UNL d   1      26.762 -11.203   2.352  0.00  0.00    -0.008 A 
ATOM     14  C   UNL d   1      26.425  -9.968   1.763  0.00  0.00     0.014 A 
ATOM     15  C   UNL d   1      27.423 -11.223   3.588  0.00  0.00     0.044 A 
ATOM     16  C   UNL d   1      26.746  -8.779   2.420  0.00  0.00     0.001 A 
ATOM     17  C   UNL d   1      27.401  -8.812   3.646  0.00  0.00     0.002 A 
ATOM     18  C   UNL d   1      27.752 -10.028   4.252  0.00  0.00     0.030 A 
ENDBRANCH   9  10
ENDBRANCH   6   9
ENDBRANCH   3   5
ENDBRANCH   1   3
BRANCH   1  19
ATOM     19  N   UNL d   1      29.982 -14.891   1.763  0.00  0.00    -0.303 N 
ATOM     20  C   UNL d   1      29.053 -14.717   0.720  0.00  0.00     0.223 C 
ATOM     21  O   UNL d   1      28.710 -13.607   0.301  0.00  0.00    -0.273 OA
ATOM     22  H   UNL d   1      30.190 -15.843   2.029  0.00  0.00     0.171 HD
BRANCH  20  23
ATOM     23  C   UNL d   1      28.422 -15.954   0.062  0.00  0.00     0.105 C 
BRANCH  23  24
ATOM     24  C   UNL d   1      28.050 -15.624  -1.415  0.00  0.00     0.036 C 
BRANCH  24  25
ATOM     25  C   UNL d   1      26.553 -15.666  -1.728  0.00  0.00     0.176 C 
BRANCH  25  26
ATOM     26  O   UNL d   1      25.810 -15.754  -0.495  0.00  0.00    -0.349 OA
BRANCH  26  27
ATOM     27  C   UNL d   1      24.724 -16.597  -0.535  0.00  0.00     0.090 C 
ATOM     28  C   UNL d   1      23.467 -16.164  -0.968  0.00  0.00     0.040 C 
ATOM     29  C   UNL d   1      22.360 -17.014  -0.891  0.00  0.00     0.026 C 
ATOM     30  C   UNL d   1      22.529 -18.341  -0.504  0.00  0.00     0.035 C 
ATOM     31 CL   UNL d   1      21.156 -19.367  -0.351  0.00  0.00    -0.084 Cl
ATOM     32  C   UNL d   1      23.801 -18.832  -0.220  0.00  0.00     0.050 C 
ATOM     33  C   UNL d   1      24.887 -17.949  -0.191  0.00  0.00     0.069 C 
ATOM     34 CL   UNL d   1      26.410 -18.565   0.345  0.00  0.00    -0.081 Cl
ENDBRANCH  26  27
ENDBRANCH  25  26
ENDBRANCH  24  25
ENDBRANCH  23  24
ENDBRANCH  20  23
ENDBRANCH   1  19
TORSDOF 10
ENDMDL
MODEL 2
REMARK VINA RESULT:    -8.916      2.944      4.557
REMARK INTER + INTRA:         -13.822
REMARK INTER:                 -11.899
REMARK INTRA:                  -1.923
REMARK CONF_INDEPENDENT:        2.983
REMARK UNBOUND:                -1.923
REMARK  10 active torsions:
REMARK  status: ('A' for Active; 'I' for Inactive)
REMARK    1  A    between atoms: C_2  and  C_3 
REMARK       I    between atoms: C_2  and  N_13 
REMARK    2  A    between atoms: C_3  and  N_4 
REMARK    3  A    between atoms: N_13  and  N_14 
REMARK    4  A    between atoms: N_14  and  C_15 
REMARK    5  A    between atoms: C_15  and  N_17 
REMARK       I    between atoms: N_17  and  C_18 
REMARK    6  A    between atoms: C_18  and  C_20 
REMARK    7  A    between atoms: C_20  and  C_21 
REMARK    8  A    between atoms: C_21  and  C_22 
REMARK    9  A    between atoms: C_22  and  O_23 
REMARK   10  A    between atoms: O_23  and  C_24 
ROOT
ATOM      1  C   UNL d   1      30.419 -13.241   2.678  0.00  0.00     0.193 C 
ATOM      2  S   UNL d   1      31.245 -11.768   2.596  0.00  0.00    -0.039 SA
ENDROOT
BRANCH   1   3
ATOM      3  N   UNL d   1      30.713 -14.146   3.725  0.00  0.00    -0.273 N 
ATOM      4  H   UNL d   1      31.648 -14.397   4.016  0.00  0.00     0.189 HD
BRANCH   3   5
ATOM      5  N   UNL d   1      29.605 -14.754   4.405  0.00  0.00    -0.266 N 
ATOM      6  C   UNL d   1      29.291 -14.773   5.745  0.00  0.00     0.254 C 
ATOM      7  O   UNL d   1      28.263 -15.364   6.091  0.00  0.00    -0.270 OA
ATOM      8  H   UNL d   1      28.934 -15.238   3.798  0.00  0.00     0.190 HD
BRANCH   6   9
ATOM      9  C   UNL d   1      30.224 -14.086   6.717  0.00  0.00     0.233 C 
BRANCH   9  10
ATOM     10  N   UNL d   1      29.563 -13.226   7.704  0.00  0.00    -0.347 N 
ATOM     11  C   UNL d   1      29.154 -11.935   7.453  0.00  0.00     0.092 A 
ATOM     12  C   UNL d   1      28.531 -11.450   8.579  0.00  0.00     0.031 A 
ATOM     13  C   UNL d   1      28.519 -12.487   9.546  0.00  0.00    -0.008 A 
ATOM     14  C   UNL d   1      28.012 -12.569  10.858  0.00  0.00     0.014 A 
ATOM     15  C   UNL d   1      29.164 -13.596   8.981  0.00  0.00     0.044 A 
ATOM     16  C   UNL d   1      28.151 -13.757  11.577  0.00  0.00     0.001 A 
ATOM     17  C   UNL d   1      28.791 -14.851  11.006  0.00  0.00     0.002 A 
ATOM     18  C   UNL d   1      29.309 -14.794   9.704  0.00  0.00     0.030 A 
ENDBRANCH   9  10
ENDBRANCH   6   9
ENDBRANCH   3   5
ENDBRANCH   1   3
BRANCH   1  19
ATOM     19  N   UNL d   1      29.423 -13.675   1.766  0.00  0.00    -0.303 N 
ATOM     20  C   UNL d   1      28.058 -13.852   2.064  0.00  0.00     0.223 C 
ATOM     21  O   UNL d   1      27.580 -13.643   3.183  0.00  0.00    -0.273 OA
ATOM     22  H   UNL d   1      29.709 -13.877   0.819  0.00  0.00     0.171 HD
BRANCH  20  23
ATOM     23  C   UNL d   1      27.104 -14.330   0.958  0.00  0.00     0.105 C 
BRANCH  23  24
ATOM     24  C   UNL d   1      27.915 -14.606  -0.344  0.00  0.00     0.036 C 
BRANCH  24  25
ATOM     25  C   UNL d   1      28.474 -16.025  -0.467  0.00  0.00     0.176 C 
BRANCH  25  26
ATOM     26  O   UNL d   1      27.726 -16.747  -1.466  0.00  0.00    -0.349 OA
BRANCH  26  27
ATOM     27  C   UNL d   1      26.431 -17.048  -1.113  0.00  0.00     0.090 C 
ATOM     28  C   UNL d   1      26.134 -17.882  -0.030  0.00  0.00     0.040 C 
ATOM     29  C   UNL d   1      24.814 -18.257   0.233  0.00  0.00     0.026 C 
ATOM     30  C   UNL d   1      23.773 -17.696  -0.502  0.00  0.00     0.035 C 
ATOM     31 CL   UNL d   1      22.155 -18.207  -0.216  0.00  0.00    -0.084 Cl
ATOM     32  C   UNL d   1      24.040 -16.744  -1.482  0.00  0.00     0.050 C 
ATOM     33  C   UNL d   1      25.369 -16.456  -1.816  0.00  0.00     0.069 C 
ATOM     34 CL   UNL d   1      25.652 -15.407  -3.159  0.00  0.00    -0.081 Cl
ENDBRANCH  26  27
ENDBRANCH  25  26
ENDBRANCH  24  25
ENDBRANCH  23  24
ENDBRANCH  20  23
ENDBRANCH   1  19
TORSDOF 10
ENDMDL
MODEL 3
REMARK VINA RESULT:    -8.748      1.334      2.237
REMARK INTER + INTRA:         -14.032
REMARK INTER:                 -11.731
REMARK INTRA:                  -2.301
REMARK CONF_INDEPENDENT:        2.983
REMARK UNBOUND:                -2.301
REMARK  10 active torsions:
REMARK  status: ('A' for Active; 'I' for Inactive)
REMARK    1  A    between atoms: C_2  and  C_3 
REMARK       I    between atoms: C_2  and  N_13 
REMARK    2  A    between atoms: C_3  and  N_4 
REMARK    3  A    between atoms: N_13  and  N_14 
REMARK    4  A    between atoms: N_14  and  C_15 
REMARK    5  A    between atoms: C_15  and  N_17 
REMARK       I    between atoms: N_17  and  C_18 
REMARK    6  A    between atoms: C_18  and  C_20 
REMARK    7  A    between atoms: C_20  and  C_21 
REMARK    8  A    between atoms: C_21  and  C_22 
REMARK    9  A    between atoms: C_22  and  O_23 
REMARK   10  A    between atoms: O_23  and  C_24 
ROOT
ATOM      1  C   UNL d   1      30.689 -13.609   2.792  0.00  0.00     0.193 C 
ATOM      2  S   UNL d   1      30.917 -11.951   2.556  0.00  0.00    -0.039 SA
ENDROOT
BRANCH   1   3
ATOM      3  N   UNL d   1      30.762 -14.142   4.101  0.00  0.00    -0.273 N 
ATOM      4  H   UNL d   1      31.529 -13.979   4.741  0.00  0.00     0.189 HD
BRANCH   3   5
ATOM      5  N   UNL d   1      29.682 -14.980   4.536  0.00  0.00    -0.266 N 
ATOM      6  C   UNL d   1      28.593 -14.683   5.324  0.00  0.00     0.254 C 
ATOM      7  O   UNL d   1      27.781 -15.585   5.556  0.00  0.00    -0.270 OA
ATOM      8  H   UNL d   1      29.717 -15.948   4.198  0.00  0.00     0.190 HD
BRANCH   6   9
ATOM      9  C   UNL d   1      28.457 -13.279   5.871  0.00  0.00     0.233 C 
BRANCH   9  10
ATOM     10  N   UNL d   1      28.067 -12.267   4.884  0.00  0.00    -0.347 N 
ATOM     11  C   UNL d   1      28.201 -10.910   5.076  0.00  0.00     0.092 A 
ATOM     12  C   UNL d   1      27.787 -10.266   3.933  0.00  0.00     0.031 A 
ATOM     13  C   UNL d   1      27.420 -11.258   2.989  0.00  0.00    -0.008 A 
ATOM     14  C   UNL d   1      26.943 -11.192   1.665  0.00  0.00     0.014 A 
ATOM     15  C   UNL d   1      27.607 -12.507   3.597  0.00  0.00     0.044 A 
ATOM     16  C   UNL d   1      26.668 -12.371   0.971  0.00  0.00     0.001 A 
ATOM     17  C   UNL d   1      26.858 -13.605   1.584  0.00  0.00     0.002 A 
ATOM     18  C   UNL d   1      27.328 -13.698   2.902  0.00  0.00     0.030 A 
ENDBRANCH   9  10
ENDBRANCH   6   9
ENDBRANCH   3   5
ENDBRANCH   1   3
BRANCH   1  19
ATOM     19  N   UNL d   1      30.421 -14.555   1.769  0.00  0.00    -0.303 N 
ATOM     20  C   UNL d   1      30.177 -14.253   0.416  0.00  0.00     0.223 C 
ATOM     21  O   UNL d   1      30.168 -13.100  -0.027  0.00  0.00    -0.273 OA
ATOM     22  H   UNL d   1      30.404 -15.532   2.025  0.00  0.00     0.171 HD
BRANCH  20  23
ATOM     23  C   UNL d   1      29.904 -15.399  -0.572  0.00  0.00     0.105 C 
BRANCH  23  24
ATOM     24  C   UNL d   1      29.057 -16.501   0.133  0.00  0.00     0.036 C 
BRANCH  24  25
ATOM     25  C   UNL d   1      27.542 -16.294   0.060  0.00  0.00     0.176 C 
BRANCH  25  26
ATOM     26  O   UNL d   1      27.002 -17.098  -1.008  0.00  0.00    -0.349 OA
BRANCH  26  27
ATOM     27  C   UNL d   1      25.677 -17.439  -0.860  0.00  0.00     0.090 C 
ATOM     28  C   UNL d   1      25.280 -18.565  -0.131  0.00  0.00     0.040 C 
ATOM     29  C   UNL d   1      23.936 -18.945  -0.094  0.00  0.00     0.026 C 
ATOM     30  C   UNL d   1      22.967 -18.131  -0.675  0.00  0.00     0.035 C 
ATOM     31 CL   UNL d   1      21.321 -18.634  -0.680  0.00  0.00    -0.084 Cl
ATOM     32  C   UNL d   1      23.329 -16.925  -1.269  0.00  0.00     0.050 C 
ATOM     33  C   UNL d   1      24.686 -16.605  -1.401  0.00  0.00     0.069 C 
ATOM     34 CL   UNL d   1      25.094 -15.191  -2.307  0.00  0.00    -0.081 Cl
ENDBRANCH  26  27
ENDBRANCH  25  26
ENDBRANCH  24  25
ENDBRANCH  23  24
ENDBRANCH  20  23
ENDBRANCH   1  19
TORSDOF 10
ENDMDL
MODEL 4
REMARK VINA RESULT:    -8.416      3.199      4.868
REMARK INTER + INTRA:         -13.748
REMARK INTER:                 -11.399
REMARK INTRA:                  -2.349
REMARK CONF_INDEPENDENT:        2.983
REMARK UNBOUND:                -2.349
REMARK  10 active torsions:
REMARK  status: ('A' for Active; 'I' for Inactive)
REMARK    1  A    between atoms: C_2  and  C_3 
REMARK       I    between atoms: C_2  and  N_13 
REMARK    2  A    between atoms: C_3  and  N_4 
REMARK    3  A    between atoms: N_13  and  N_14 
REMARK    4  A    between atoms: N_14  and  C_15 
REMARK    5  A    between atoms: C_15  and  N_17 
REMARK       I    between atoms: N_17  and  C_18 
REMARK    6  A    between atoms: C_18  and  C_20 
REMARK    7  A    between atoms: C_20  and  C_21 
REMARK    8  A    between atoms: C_21  and  C_22 
REMARK    9  A    between atoms: C_22  and  O_23 
REMARK   10  A    between atoms: O_23  and  C_24 
ROOT
ATOM      1  C   UNL d   1      29.115 -14.429   4.545  0.00  0.00     0.193 C 
ATOM      2  S   UNL d   1      28.578 -14.897   6.078  0.00  0.00    -0.039 SA
ENDROOT
BRANCH   1   3
ATOM      3  N   UNL d   1      30.365 -13.779   4.415  0.00  0.00    -0.273 N 
ATOM      4  H   UNL d   1      31.258 -14.254   4.414  0.00  0.00     0.189 HD
BRANCH   3   5
ATOM      5  N   UNL d   1      30.357 -12.350   4.288  0.00  0.00    -0.266 N 
ATOM      6  C   UNL d   1      30.781 -11.380   5.170  0.00  0.00     0.254 C 
ATOM      7  O   UNL d   1      30.678 -10.199   4.826  0.00  0.00    -0.270 OA
ATOM      8  H   UNL d   1      29.993 -11.992   3.398  0.00  0.00     0.190 HD
BRANCH   6   9
ATOM      9  C   UNL d   1      31.332 -11.813   6.510  0.00  0.00     0.233 C 
BRANCH   9  10
ATOM     10  N   UNL d   1      30.323 -12.039   7.549  0.00  0.00    -0.347 N 
ATOM     11  C   UNL d   1      29.215 -11.242   7.738  0.00  0.00     0.092 A 
ATOM     12  C   UNL d   1      28.464 -11.775   8.758  0.00  0.00     0.031 A 
ATOM     13  C   UNL d   1      29.107 -12.962   9.192  0.00  0.00    -0.008 A 
ATOM     14  C   UNL d   1      28.794 -13.917  10.181  0.00  0.00     0.014 A 
ATOM     15  C   UNL d   1      30.267 -13.118   8.421  0.00  0.00     0.044 A 
ATOM     16  C   UNL d   1      29.639 -15.010  10.376  0.00  0.00     0.001 A 
ATOM     17  C   UNL d   1      30.786 -15.155   9.604  0.00  0.00     0.002 A 
ATOM     18  C   UNL d   1      31.123 -14.217   8.617  0.00  0.00     0.030 A 
ENDBRANCH   9  10
ENDBRANCH   6   9
ENDBRANCH   3   5
ENDBRANCH   1   3
BRANCH   1  19
ATOM     19  N   UNL d   1      28.410 -14.631   3.331  0.00  0.00    -0.303 N 
ATOM     20  C   UNL d   1      27.855 -13.618   2.526  0.00  0.00     0.223 C 
ATOM     21  O   UNL d   1      27.926 -12.418   2.809  0.00  0.00    -0.273 OA
ATOM     22  H   UNL d   1      28.293 -15.581   3.008  0.00  0.00     0.171 HD
BRANCH  20  23
ATOM     23  C   UNL d   1      27.119 -14.005   1.234  0.00  0.00     0.105 C 
BRANCH  23  24
ATOM     24  C   UNL d   1      28.101 -14.749   0.280  0.00  0.00     0.036 C 
BRANCH  24  25
ATOM     25  C   UNL d   1      28.106 -16.272   0.420  0.00  0.00     0.176 C 
BRANCH  25  26
ATOM     26  O   UNL d   1      27.527 -16.862  -0.762  0.00  0.00    -0.349 OA
BRANCH  26  27
ATOM     27  C   UNL d   1      26.196 -17.189  -0.651  0.00  0.00     0.090 C 
ATOM     28  C   UNL d   1      25.750 -18.194   0.215  0.00  0.00     0.040 C 
ATOM     29  C   UNL d   1      24.406 -18.576   0.221  0.00  0.00     0.026 C 
ATOM     30  C   UNL d   1      23.479 -17.870  -0.540  0.00  0.00     0.035 C 
ATOM     31 CL   UNL d   1      21.837 -18.384  -0.577  0.00  0.00    -0.084 Cl
ATOM     32  C   UNL d   1      23.880 -16.766  -1.288  0.00  0.00     0.050 C 
ATOM     33  C   UNL d   1      25.243 -16.457  -1.378  0.00  0.00     0.069 C 
ATOM     34 CL   UNL d   1      25.711 -15.195  -2.460  0.00  0.00    -0.081 Cl
ENDBRANCH  26  27
ENDBRANCH  25  26
ENDBRANCH  24  25
ENDBRANCH  23  24
ENDBRANCH  20  23
ENDBRANCH   1  19
TORSDOF 10
ENDMDL
MODEL 5
REMARK VINA RESULT:    -7.569      4.037      6.969
REMARK INTER + INTRA:         -14.164
REMARK INTER:                 -10.552
REMARK INTRA:                  -3.612
REMARK CONF_INDEPENDENT:        2.983
REMARK UNBOUND:                -3.612
REMARK  10 active torsions:
REMARK  status: ('A' for Active; 'I' for Inactive)
REMARK    1  A    between atoms: C_2  and  C_3 
REMARK       I    between atoms: C_2  and  N_13 
REMARK    2  A    between atoms: C_3  and  N_4 
REMARK    3  A    between atoms: N_13  and  N_14 
REMARK    4  A    between atoms: N_14  and  C_15 
REMARK    5  A    between atoms: C_15  and  N_17 
REMARK       I    between atoms: N_17  and  C_18 
REMARK    6  A    between atoms: C_18  and  C_20 
REMARK    7  A    between atoms: C_20  and  C_21 
REMARK    8  A    between atoms: C_21  and  C_22 
REMARK    9  A    between atoms: C_22  and  O_23 
REMARK   10  A    between atoms: O_23  and  C_24 
ROOT
ATOM      1  C   UNL d   1      26.322 -11.902  -2.843  0.00  0.00     0.193 C 
ATOM      2  S   UNL d   1      26.734 -10.266  -2.935  0.00  0.00    -0.039 SA
ENDROOT
BRANCH   1   3
ATOM      3  N   UNL d   1      25.179 -12.372  -3.531  0.00  0.00    -0.273 N 
ATOM      4  H   UNL d   1      24.435 -11.778  -3.874  0.00  0.00     0.189 HD
BRANCH   3   5
ATOM      5  N   UNL d   1      25.066 -13.787  -3.740  0.00  0.00    -0.266 N 
ATOM      6  C   UNL d   1      25.837 -14.633  -4.506  0.00  0.00     0.254 C 
ATOM      7  O   UNL d   1      25.543 -15.832  -4.519  0.00  0.00    -0.270 OA
ATOM      8  H   UNL d   1      24.303 -14.244  -3.230  0.00  0.00     0.190 HD
BRANCH   6   9
ATOM      9  C   UNL d   1      26.986 -14.048  -5.296  0.00  0.00     0.233 C 
BRANCH   9  10
ATOM     10  N   UNL d   1      28.182 -14.894  -5.365  0.00  0.00    -0.347 N 
ATOM     11  C   UNL d   1      29.006 -14.978  -6.466  0.00  0.00     0.092 A 
ATOM     12  C   UNL d   1      30.051 -15.818  -6.163  0.00  0.00     0.031 A 
ATOM     13  C   UNL d   1      29.891 -16.239  -4.819  0.00  0.00    -0.008 A 
ATOM     14  C   UNL d   1      30.650 -17.078  -3.979  0.00  0.00     0.014 A 
ATOM     15  C   UNL d   1      28.719 -15.646  -4.330  0.00  0.00     0.044 A 
ATOM     16  C   UNL d   1      30.230 -17.304  -2.668  0.00  0.00     0.001 A 
ATOM     17  C   UNL d   1      29.067 -16.709  -2.193  0.00  0.00     0.002 A 
ATOM     18  C   UNL d   1      28.290 -15.874  -3.009  0.00  0.00     0.030 A 
ENDBRANCH   9  10
ENDBRANCH   6   9
ENDBRANCH   3   5
ENDBRANCH   1   3
BRANCH   1  19
ATOM     19  N   UNL d   1      27.037 -12.889  -2.116  0.00  0.00    -0.303 N 
ATOM     20  C   UNL d   1      28.070 -12.641  -1.193  0.00  0.00     0.223 C 
ATOM     21  O   UNL d   1      28.471 -11.505  -0.919  0.00  0.00    -0.273 OA
ATOM     22  H   UNL d   1      26.788 -13.857  -2.267  0.00  0.00     0.171 HD
BRANCH  20  23
ATOM     23  C   UNL d   1      28.746 -13.826  -0.485  0.00  0.00     0.105 C 
BRANCH  23  24
ATOM     24  C   UNL d   1      27.796 -14.381   0.620  0.00  0.00     0.036 C 
BRANCH  24  25
ATOM     25  C   UNL d   1      26.329 -14.508   0.204  0.00  0.00     0.176 C 
BRANCH  25  26
ATOM     26  O   UNL d   1      26.227 -15.416  -0.912  0.00  0.00    -0.349 OA
BRANCH  26  27
ATOM     27  C   UNL d   1      25.207 -16.335  -0.817  0.00  0.00     0.090 C 
ATOM     28  C   UNL d   1      23.928 -16.076  -1.320  0.00  0.00     0.040 C 
ATOM     29  C   UNL d   1      22.887 -16.984  -1.107  0.00  0.00     0.026 C 
ATOM     30  C   UNL d   1      23.149 -18.213  -0.507  0.00  0.00     0.035 C 
ATOM     31 CL   UNL d   1      21.854 -19.301  -0.191  0.00  0.00    -0.084 Cl
ATOM     32  C   UNL d   1      24.448 -18.552  -0.141  0.00  0.00     0.050 C 
ATOM     33  C   UNL d   1      25.465 -17.596  -0.254  0.00  0.00     0.069 C 
ATOM     34 CL   UNL d   1      27.021 -17.998   0.381  0.00  0.00    -0.081 Cl
ENDBRANCH  26  27
ENDBRANCH  25  26
ENDBRANCH  24  25
ENDBRANCH  23  24
ENDBRANCH  20  23
ENDBRANCH   1  19
TORSDOF 10
ENDMDL
MODEL 6
REMARK VINA RESULT:    -7.527      2.158      3.346
REMARK INTER + INTRA:         -13.965
REMARK INTER:                 -10.510
REMARK INTRA:                  -3.455
REMARK CONF_INDEPENDENT:        2.983
REMARK UNBOUND:                -3.455
REMARK  10 active torsions:
REMARK  status: ('A' for Active; 'I' for Inactive)
REMARK    1  A    between atoms: C_2  and  C_3 
REMARK       I    between atoms: C_2  and  N_13 
REMARK    2  A    between atoms: C_3  and  N_4 
REMARK    3  A    between atoms: N_13  and  N_14 
REMARK    4  A    between atoms: N_14  and  C_15 
REMARK    5  A    between atoms: C_15  and  N_17 
REMARK       I    between atoms: N_17  and  C_18 
REMARK    6  A    between atoms: C_18  and  C_20 
REMARK    7  A    between atoms: C_20  and  C_21 
REMARK    8  A    between atoms: C_21  and  C_22 
REMARK    9  A    between atoms: C_22  and  O_23 
REMARK   10  A    between atoms: O_23  and  C_24 
ROOT
ATOM      1  C   UNL d   1      30.667 -14.270   1.761  0.00  0.00     0.193 C 
ATOM      2  S   UNL d   1      31.971 -13.990   2.800  0.00  0.00    -0.039 SA
ENDROOT
BRANCH   1   3
ATOM      3  N   UNL d   1      29.759 -13.221   1.487  0.00  0.00    -0.273 N 
ATOM      4  H   UNL d   1      29.941 -12.244   1.675  0.00  0.00     0.189 HD
BRANCH   3   5
ATOM      5  N   UNL d   1      28.491 -13.576   0.917  0.00  0.00    -0.266 N 
ATOM      6  C   UNL d   1      27.216 -13.389   1.405  0.00  0.00     0.254 C 
ATOM      7  O   UNL d   1      26.269 -13.779   0.715  0.00  0.00    -0.270 OA
ATOM      8  H   UNL d   1      28.537 -14.026  -0.004  0.00  0.00     0.190 HD
BRANCH   6   9
ATOM      9  C   UNL d   1      27.049 -12.734   2.757  0.00  0.00     0.233 C 
BRANCH   9  10
ATOM     10  N   UNL d   1      27.611 -13.487   3.883  0.00  0.00    -0.347 N 
ATOM     11  C   UNL d   1      27.935 -14.825   3.831  0.00  0.00     0.092 A 
ATOM     12  C   UNL d   1      28.482 -15.186   5.040  0.00  0.00     0.031 A 
ATOM     13  C   UNL d   1      28.535 -14.027   5.853  0.00  0.00    -0.008 A 
ATOM     14  C   UNL d   1      29.000 -13.793   7.163  0.00  0.00     0.014 A 
ATOM     15  C   UNL d   1      27.991 -12.968   5.112  0.00  0.00     0.044 A 
ATOM     16  C   UNL d   1      28.922 -12.509   7.704  0.00  0.00     0.001 A 
ATOM     17  C   UNL d   1      28.382 -11.467   6.959  0.00  0.00     0.002 A 
ATOM     18  C   UNL d   1      27.907 -11.673   5.656  0.00  0.00     0.030 A 
ENDBRANCH   9  10
ENDBRANCH   6   9
ENDBRANCH   3   5
ENDBRANCH   1   3
BRANCH   1  19
ATOM     19  N   UNL d   1      30.384 -15.499   1.113  0.00  0.00    -0.303 N 
ATOM     20  C   UNL d   1      30.211 -15.675  -0.274  0.00  0.00     0.223 C 
ATOM     21  O   UNL d   1      30.289 -14.748  -1.086  0.00  0.00    -0.273 OA
ATOM     22  H   UNL d   1      30.297 -16.325   1.688  0.00  0.00     0.171 HD
BRANCH  20  23
ATOM     23  C   UNL d   1      29.908 -17.079  -0.821  0.00  0.00     0.105 C 
BRANCH  23  24
ATOM     24  C   UNL d   1      29.281 -16.958  -2.242  0.00  0.00     0.036 C 
BRANCH  24  25
ATOM     25  C   UNL d   1      28.156 -15.929  -2.365  0.00  0.00     0.176 C 
BRANCH  25  26
ATOM     26  O   UNL d   1      27.571 -15.704  -1.066  0.00  0.00    -0.349 OA
BRANCH  26  27
ATOM     27  C   UNL d   1      26.407 -16.397  -0.830  0.00  0.00     0.090 C 
ATOM     28  C   UNL d   1      26.344 -17.443   0.096  0.00  0.00     0.040 C 
ATOM     29  C   UNL d   1      25.176 -18.199   0.231  0.00  0.00     0.026 C 
ATOM     30  C   UNL d   1      24.026 -17.831  -0.463  0.00  0.00     0.035 C 
ATOM     31 CL   UNL d   1      22.609 -18.800  -0.341  0.00  0.00    -0.084 Cl
ATOM     32  C   UNL d   1      24.027 -16.697  -1.270  0.00  0.00     0.050 C 
ATOM     33  C   UNL d   1      25.228 -16.010  -1.488  0.00  0.00     0.069 C 
ATOM     34 CL   UNL d   1      25.220 -14.721  -2.638  0.00  0.00    -0.081 Cl
ENDBRANCH  26  27
ENDBRANCH  25  26
ENDBRANCH  24  25
ENDBRANCH  23  24
ENDBRANCH  20  23
ENDBRANCH   1  19
TORSDOF 10
ENDMDL
MODEL 7
REMARK VINA RESULT:    -7.125      3.944      6.897
REMARK INTER + INTRA:         -14.015
REMARK INTER:                 -10.108
REMARK INTRA:                  -3.907
REMARK CONF_INDEPENDENT:        2.983
REMARK UNBOUND:                -3.907
REMARK  10 active torsions:
REMARK  status: ('A' for Active; 'I' for Inactive)
REMARK    1  A    between atoms: C_2  and  C_3 
REMARK       I    between atoms: C_2  and  N_13 
REMARK    2  A    between atoms: C_3  and  N_4 
REMARK    3  A    between atoms: N_13  and  N_14 
REMARK    4  A    between atoms: N_14  and  C_15 
REMARK    5  A    between atoms: C_15  and  N_17 
REMARK       I    between atoms: N_17  and  C_18 
REMARK    6  A    between atoms: C_18  and  C_20 
REMARK    7  A    between atoms: C_20  and  C_21 
REMARK    8  A    between atoms: C_21  and  C_22 
REMARK    9  A    between atoms: C_22  and  O_23 
REMARK   10  A    between atoms: O_23  and  C_24 
ROOT
ATOM      1  C   UNL d   1      29.129 -14.118  -2.299  0.00  0.00     0.193 C 
ATOM      2  S   UNL d   1      28.915 -12.444  -2.207  0.00  0.00    -0.039 SA
ENDROOT
BRANCH   1   3
ATOM      3  N   UNL d   1      29.138 -14.885  -1.110  0.00  0.00    -0.273 N 
ATOM      4  H   UNL d   1      29.552 -15.804  -1.027  0.00  0.00     0.189 HD
BRANCH   3   5
ATOM      5  N   UNL d   1      28.505 -14.320   0.047  0.00  0.00    -0.266 N 
ATOM      6  C   UNL d   1      27.171 -14.249   0.380  0.00  0.00     0.254 C 
ATOM      7  O   UNL d   1      26.869 -13.714   1.452  0.00  0.00    -0.270 OA
ATOM      8  H   UNL d   1      29.144 -13.918   0.742  0.00  0.00     0.190 HD
BRANCH   6   9
ATOM      9  C   UNL d   1      26.153 -14.815  -0.584  0.00  0.00     0.233 C 
BRANCH   9  10
ATOM     10  N   UNL d   1      25.851 -16.238  -0.399  0.00  0.00    -0.347 N 
ATOM     11  C   UNL d   1      26.772 -17.175   0.015  0.00  0.00     0.092 A 
ATOM     12  C   UNL d   1      26.135 -18.388   0.130  0.00  0.00     0.031 A 
ATOM     13  C   UNL d   1      24.768 -18.190  -0.186  0.00  0.00    -0.008 A 
ATOM     14  C   UNL d   1      23.656 -19.055  -0.225  0.00  0.00     0.014 A 
ATOM     15  C   UNL d   1      24.604 -16.836  -0.510  0.00  0.00     0.044 A 
ATOM     16  C   UNL d   1      22.403 -18.552  -0.577  0.00  0.00     0.001 A 
ATOM     17  C   UNL d   1      22.252 -17.207  -0.894  0.00  0.00     0.002 A 
ATOM     18  C   UNL d   1      23.342 -16.326  -0.869  0.00  0.00     0.030 A 
ENDBRANCH   9  10
ENDBRANCH   6   9
ENDBRANCH   3   5
ENDBRANCH   1   3
BRANCH   1  19
ATOM     19  N   UNL d   1      29.307 -14.858  -3.496  0.00  0.00    -0.303 N 
ATOM     20  C   UNL d   1      29.564 -16.241  -3.575  0.00  0.00     0.223 C 
ATOM     21  O   UNL d   1      29.665 -16.966  -2.580  0.00  0.00    -0.273 OA
ATOM     22  H   UNL d   1      29.246 -14.359  -4.372  0.00  0.00     0.171 HD
BRANCH  20  23
ATOM     23  C   UNL d   1      29.732 -16.896  -4.955  0.00  0.00     0.105 C 
BRANCH  23  24
ATOM     24  C   UNL d   1      30.237 -15.832  -5.977  0.00  0.00     0.036 C 
BRANCH  24  25
ATOM     25  C   UNL d   1      29.133 -15.041  -6.682  0.00  0.00     0.176 C 
BRANCH  25  26
ATOM     26  O   UNL d   1      27.893 -15.210  -5.966  0.00  0.00    -0.349 OA
BRANCH  26  27
ATOM     27  C   UNL d   1      27.314 -14.040  -5.532  0.00  0.00     0.090 C 
ATOM     28  C   UNL d   1      27.616 -12.804  -6.113  0.00  0.00     0.040 C 
ATOM     29  C   UNL d   1      27.097 -11.624  -5.574  0.00  0.00     0.026 C 
ATOM     30  C   UNL d   1      26.169 -11.682  -4.538  0.00  0.00     0.035 C 
ATOM     31 CL   UNL d   1      25.579 -10.225  -3.838  0.00  0.00    -0.084 Cl
ATOM     32  C   UNL d   1      25.737 -12.913  -4.052  0.00  0.00     0.050 C 
ATOM     33  C   UNL d   1      26.343 -14.086  -4.517  0.00  0.00     0.069 C 
ATOM     34 CL   UNL d   1      25.906 -15.574  -3.756  0.00  0.00    -0.081 Cl
ENDBRANCH  26  27
ENDBRANCH  25  26
ENDBRANCH  24  25
ENDBRANCH  23  24
ENDBRANCH  20  23
ENDBRANCH   1  19
TORSDOF 10
ENDMDL
MODEL 8
REMARK VINA RESULT:    -6.710      5.126      7.119
REMARK INTER + INTRA:         -13.849
REMARK INTER:                  -9.693
REMARK INTRA:                  -4.155
REMARK CONF_INDEPENDENT:        2.983
REMARK UNBOUND:                -4.155
REMARK  10 active torsions:
REMARK  status: ('A' for Active; 'I' for Inactive)
REMARK    1  A    between atoms: C_2  and  C_3 
REMARK       I    between atoms: C_2  and  N_13 
REMARK    2  A    between atoms: C_3  and  N_4 
REMARK    3  A    between atoms: N_13  and  N_14 
REMARK    4  A    between atoms: N_14  and  C_15 
REMARK    5  A    between atoms: C_15  and  N_17 
REMARK       I    between atoms: N_17  and  C_18 
REMARK    6  A    between atoms: C_18  and  C_20 
REMARK    7  A    between atoms: C_20  and  C_21 
REMARK    8  A    between atoms: C_21  and  C_22 
REMARK    9  A    between atoms: C_22  and  O_23 
REMARK   10  A    between atoms: O_23  and  C_24 
ROOT
ATOM      1  C   UNL d   1      28.344 -15.574  -5.082  0.00  0.00     0.193 C 
ATOM      2  S   UNL d   1      26.732 -15.171  -5.397  0.00  0.00    -0.039 SA
ENDROOT
BRANCH   1   3
ATOM      3  N   UNL d   1      29.296 -15.500  -6.125  0.00  0.00    -0.273 N 
ATOM      4  H   UNL d   1      30.150 -16.043  -6.158  0.00  0.00     0.189 HD
BRANCH   3   5
ATOM      5  N   UNL d   1      29.034 -14.584  -7.197  0.00  0.00    -0.266 N 
ATOM      6  C   UNL d   1      29.368 -13.254  -7.327  0.00  0.00     0.254 C 
ATOM      7  O   UNL d   1      29.035 -12.671  -8.364  0.00  0.00    -0.270 OA
ATOM      8  H   UNL d   1      28.532 -14.981  -7.999  0.00  0.00     0.190 HD
BRANCH   6   9
ATOM      9  C   UNL d   1      30.109 -12.580  -6.194  0.00  0.00     0.233 C 
BRANCH   9  10
ATOM     10  N   UNL d   1      29.424 -12.620  -4.898  0.00  0.00    -0.347 N 
ATOM     11  C   UNL d   1      30.018 -13.024  -3.722  0.00  0.00     0.092 A 
ATOM     12  C   UNL d   1      29.105 -12.886  -2.704  0.00  0.00     0.031 A 
ATOM     13  C   UNL d   1      27.919 -12.343  -3.259  0.00  0.00    -0.008 A 
ATOM     14  C   UNL d   1      26.676 -11.982  -2.701  0.00  0.00     0.014 A 
ATOM     15  C   UNL d   1      28.136 -12.176  -4.634  0.00  0.00     0.044 A 
ATOM     16  C   UNL d   1      25.679 -11.454  -3.522  0.00  0.00     0.001 A 
ATOM     17  C   UNL d   1      25.906 -11.291  -4.884  0.00  0.00     0.002 A 
ATOM     18  C   UNL d   1      27.132 -11.647  -5.465  0.00  0.00     0.030 A 
ENDBRANCH   9  10
ENDBRANCH   6   9
ENDBRANCH   3   5
ENDBRANCH   1   3
BRANCH   1  19
ATOM     19  N   UNL d   1      28.854 -15.996  -3.827  0.00  0.00    -0.303 N 
ATOM     20  C   UNL d   1      29.925 -16.890  -3.636  0.00  0.00     0.223 C 
ATOM     21  O   UNL d   1      30.542 -17.413  -4.569  0.00  0.00    -0.273 OA
ATOM     22  H   UNL d   1      28.418 -15.627  -2.994  0.00  0.00     0.171 HD
BRANCH  20  23
ATOM     23  C   UNL d   1      30.360 -17.246  -2.205  0.00  0.00     0.105 C 
BRANCH  23  24
ATOM     24  C   UNL d   1      29.681 -16.269  -1.198  0.00  0.00     0.036 C 
BRANCH  24  25
ATOM     25  C   UNL d   1      28.356 -16.764  -0.615  0.00  0.00     0.176 C 
BRANCH  25  26
ATOM     26  O   UNL d   1      27.270 -16.325  -1.457  0.00  0.00    -0.349 OA
BRANCH  26  27
ATOM     27  C   UNL d   1      26.036 -16.828  -1.115  0.00  0.00     0.090 C 
ATOM     28  C   UNL d   1      25.894 -17.919  -0.252  0.00  0.00     0.040 C 
ATOM     29  C   UNL d   1      24.633 -18.474  -0.015  0.00  0.00     0.026 C 
ATOM     30  C   UNL d   1      23.496 -17.861  -0.533  0.00  0.00     0.035 C 
ATOM     31 CL   UNL d   1      21.952 -18.583  -0.290  0.00  0.00    -0.084 Cl
ATOM     32  C   UNL d   1      23.606 -16.683  -1.265  0.00  0.00     0.050 C 
ATOM     33  C   UNL d   1      24.877 -16.194  -1.593  0.00  0.00     0.069 C 
ATOM     34 CL   UNL d   1      24.967 -14.835  -2.655  0.00  0.00    -0.081 Cl
ENDBRANCH  26  27
ENDBRANCH  25  26
ENDBRANCH  24  25
ENDBRANCH  23  24
ENDBRANCH  20  23
ENDBRANCH   1  19
TORSDOF 10
ENDMDL
MODEL 9
REMARK VINA RESULT:    -6.522      2.935      5.406
REMARK INTER + INTRA:         -13.627
REMARK INTER:                  -9.505
REMARK INTRA:                  -4.122
REMARK CONF_INDEPENDENT:        2.983
REMARK UNBOUND:                -4.122
REMARK  10 active torsions:
REMARK  status: ('A' for Active; 'I' for Inactive)
REMARK    1  A    between atoms: C_2  and  C_3 
REMARK       I    between atoms: C_2  and  N_13 
REMARK    2  A    between atoms: C_3  and  N_4 
REMARK    3  A    between atoms: N_13  and  N_14 
REMARK    4  A    between atoms: N_14  and  C_15 
REMARK    5  A    between atoms: C_15  and  N_17 
REMARK       I    between atoms: N_17  and  C_18 
REMARK    6  A    between atoms: C_18  and  C_20 
REMARK    7  A    between atoms: C_20  and  C_21 
REMARK    8  A    between atoms: C_21  and  C_22 
REMARK    9  A    between atoms: C_22  and  O_23 
REMARK   10  A    between atoms: O_23  and  C_24 
ROOT
ATOM      1  C   UNL d   1      27.481 -12.346   0.552  0.00  0.00     0.193 C 
ATOM      2  S   UNL d   1      26.498 -11.640   1.732  0.00  0.00    -0.039 SA
ENDROOT
BRANCH   1   3
ATOM      3  N   UNL d   1      28.373 -11.534  -0.188  0.00  0.00    -0.273 N 
ATOM      4  H   UNL d   1      28.246 -10.542  -0.344  0.00  0.00     0.189 HD
BRANCH   3   5
ATOM      5  N   UNL d   1      29.523 -12.169  -0.764  0.00  0.00    -0.266 N 
ATOM      6  C   UNL d   1      29.964 -12.187  -2.068  0.00  0.00     0.254 C 
ATOM      7  O   UNL d   1      31.004 -12.805  -2.320  0.00  0.00    -0.270 OA
ATOM      8  H   UNL d   1      30.119 -12.676  -0.101  0.00  0.00     0.190 HD
BRANCH   6   9
ATOM      9  C   UNL d   1      29.149 -11.467  -3.118  0.00  0.00     0.233 C 
BRANCH   9  10
ATOM     10  N   UNL d   1      27.761 -11.923  -3.242  0.00  0.00    -0.347 N 
ATOM     11  C   UNL d   1      26.668 -11.192  -2.830  0.00  0.00     0.092 A 
ATOM     12  C   UNL d   1      25.530 -11.897  -3.145  0.00  0.00     0.031 A 
ATOM     13  C   UNL d   1      25.928 -13.084  -3.809  0.00  0.00    -0.008 A 
ATOM     14  C   UNL d   1      25.208 -14.162  -4.363  0.00  0.00     0.014 A 
ATOM     15  C   UNL d   1      27.329 -13.084  -3.868  0.00  0.00     0.044 A 
ATOM     16  C   UNL d   1      25.897 -15.212  -4.971  0.00  0.00     0.001 A 
ATOM     17  C   UNL d   1      27.286 -15.200  -5.025  0.00  0.00     0.002 A 
ATOM     18  C   UNL d   1      28.027 -14.143  -4.477  0.00  0.00     0.030 A 
ENDBRANCH   9  10
ENDBRANCH   6   9
ENDBRANCH   3   5
ENDBRANCH   1   3
BRANCH   1  19
ATOM     19  N   UNL d   1      27.501 -13.724   0.216  0.00  0.00    -0.303 N 
ATOM     20  C   UNL d   1      28.526 -14.633   0.541  0.00  0.00     0.223 C 
ATOM     21  O   UNL d   1      29.541 -14.310   1.166  0.00  0.00    -0.273 OA
ATOM     22  H   UNL d   1      26.715 -14.094  -0.299  0.00  0.00     0.171 HD
BRANCH  20  23
ATOM     23  C   UNL d   1      28.395 -16.101   0.103  0.00  0.00     0.105 C 
BRANCH  23  24
ATOM     24  C   UNL d   1      28.120 -16.163  -1.429  0.00  0.00     0.036 C 
BRANCH  24  25
ATOM     25  C   UNL d   1      26.659 -15.951  -1.831  0.00  0.00     0.176 C 
BRANCH  25  26
ATOM     26  O   UNL d   1      25.851 -15.823  -0.644  0.00  0.00    -0.349 OA
BRANCH  26  27
ATOM     27  C   UNL d   1      24.748 -16.645  -0.605  0.00  0.00     0.090 C 
ATOM     28  C   UNL d   1      23.493 -16.221  -1.052  0.00  0.00     0.040 C 
ATOM     29  C   UNL d   1      22.372 -17.041  -0.895  0.00  0.00     0.026 C 
ATOM     30  C   UNL d   1      22.523 -18.339  -0.413  0.00  0.00     0.035 C 
ATOM     31 CL   UNL d   1      21.133 -19.322  -0.163  0.00  0.00    -0.084 Cl
ATOM     32  C   UNL d   1      23.789 -18.832  -0.111  0.00  0.00     0.050 C 
ATOM     33  C   UNL d   1      24.892 -17.971  -0.163  0.00  0.00     0.069 C 
ATOM     34 CL   UNL d   1      26.411 -18.575   0.395  0.00  0.00    -0.081 Cl
ENDBRANCH  26  27
ENDBRANCH  25  26
ENDBRANCH  24  25
ENDBRANCH  23  24
ENDBRANCH  20  23
ENDBRANCH   1  19
TORSDOF 10
ENDMDL
