MODEL 1
REMARK VINA RESULT:    -9.235      0.000      0.000
REMARK INTER + INTRA:         -11.995
REMARK INTER:                 -11.024
REMARK INTRA:                  -0.971
REMARK CONF_INDEPENDENT:        1.790
REMARK UNBOUND:                -0.971
REMARK  6 active torsions:
REMARK  status: ('A' for Active; 'I' for Inactive)
REMARK    1  A    between atoms: C_2  and  C_3 
REMARK       I    between atoms: C_2  and  N_17 
REMARK    2  A    between atoms: C_3  and  N_4 
REMARK    3  A    between atoms: C_7  and  C_8 
REMARK    4  A    between atoms: C_11  and  O_12 
REMARK    5  A    between atoms: N_17  and  N_18 
REMARK       I    between atoms: N_18  and  C_19 
REMARK    6  A    between atoms: C_19  and  C_21 
ROOT
ATOM      1  O   UNL d   1      25.832 -15.324  -2.662  0.00  0.00    -0.270 OA
ATOM      2  C   UNL d   1      26.290 -15.511  -1.534  0.00  0.00     0.264 C 
ATOM      3  N   UNL d   1      27.139 -14.555  -1.032  0.00  0.00    -0.266 N 
ATOM      4  H   UNL d   1      27.326 -13.751  -1.635  0.00  0.00     0.190 HD
ENDROOT
BRANCH   2   5
ATOM      5  C   UNL d   1      25.990 -16.756  -0.661  0.00  0.00     0.376 C 
BRANCH   5   6
ATOM      6  N   UNL d   1      24.636 -17.314  -0.908  0.00  0.00     0.101 N 
ATOM      7  C   UNL d   1      24.574 -18.694  -0.401  0.00  0.00     0.301 C 
ATOM      8  C   UNL d   1      23.213 -19.232  -0.145  0.00  0.00     0.011 C 
ATOM      9  C   UNL d   1      22.091 -18.503  -0.241  0.00  0.00    -0.048 C 
ATOM     10  C   UNL d   1      22.161 -17.051  -0.620  0.00  0.00     0.069 C 
ATOM     11  C   UNL d   1      23.569 -16.468  -0.343  0.00  0.00     0.278 C 
BRANCH   9  12
ATOM     12  C   UNL d   1      20.818 -19.159   0.066  0.00  0.00    -0.030 A 
ATOM     13  C   UNL d   1      19.818 -19.337  -0.895  0.00  0.00     0.014 A 
ATOM     14  C   UNL d   1      18.669 -20.075  -0.583  0.00  0.00     0.037 A 
ATOM     15  C   UNL d   1      18.528 -20.623   0.691  0.00  0.00     0.065 A 
ATOM     16  C   UNL d   1      19.501 -20.433   1.660  0.00  0.00     0.037 A 
ATOM     17  C   UNL d   1      20.641 -19.700   1.350  0.00  0.00     0.014 A 
BRANCH  15  18
ATOM     18  O   UNL d   1      17.445 -21.372   1.048  0.00  0.00    -0.361 OA
ATOM     19  H   UNL d   1      17.517 -22.249   0.639  0.00  0.00     0.217 HD
ENDBRANCH  15  18
ENDBRANCH   9  12
ENDBRANCH   5   6
ENDBRANCH   2   5
BRANCH   3  20
ATOM     20  N   UNL d   1      27.739 -14.557   0.228  0.00  0.00    -0.263 N 
ATOM     21  C   UNL d   1      27.213 -13.719   1.200  0.00  0.00     0.270 C 
ATOM     22  O   UNL d   1      26.276 -12.947   1.000  0.00  0.00    -0.266 OA
ATOM     23  H   UNL d   1      28.406 -15.283   0.460  0.00  0.00     0.190 HD
BRANCH  21  24
ATOM     24  C   UNL d   1      27.835 -13.812   2.549  0.00  0.00     0.033 A 
ATOM     25  C   UNL d   1      29.220 -13.968   2.693  0.00  0.00     0.019 A 
ATOM     26  C   UNL d   1      29.788 -14.044   3.970  0.00  0.00     0.025 A 
ATOM     27  C   UNL d   1      28.977 -13.963   5.101  0.00  0.00     0.034 A 
ATOM     28 CL   UNL d   1      29.681 -14.085   6.666  0.00  0.00    -0.084 Cl
ATOM     29  C   UNL d   1      27.602 -13.784   4.968  0.00  0.00     0.025 A 
ATOM     30  C   UNL d   1      27.030 -13.699   3.692  0.00  0.00     0.019 A 
ENDBRANCH  21  24
ENDBRANCH   3  20
TORSDOF 6
ENDMDL
MODEL 2
REMARK VINA RESULT:    -8.864      3.852      9.640
REMARK INTER + INTRA:         -11.734
REMARK INTER:                 -10.654
REMARK INTRA:                  -1.080
REMARK CONF_INDEPENDENT:        1.790
REMARK UNBOUND:                -1.080
REMARK  6 active torsions:
REMARK  status: ('A' for Active; 'I' for Inactive)
REMARK    1  A    between atoms: C_2  and  C_3 
REMARK       I    between atoms: C_2  and  N_17 
REMARK    2  A    between atoms: C_3  and  N_4 
REMARK    3  A    between atoms: C_7  and  C_8 
REMARK    4  A    between atoms: C_11  and  O_12 
REMARK    5  A    between atoms: N_17  and  N_18 
REMARK       I    between atoms: N_18  and  C_19 
REMARK    6  A    between atoms: C_19  and  C_21 
ROOT
ATOM      1  O   UNL d   1      29.867 -15.130   0.874  0.00  0.00    -0.270 OA
ATOM      2  C   UNL d   1      28.651 -15.326   0.847  0.00  0.00     0.264 C 
ATOM      3  N   UNL d   1      28.224 -16.610   0.610  0.00  0.00    -0.266 N 
ATOM      4  H   UNL d   1      28.954 -17.314   0.476  0.00  0.00     0.190 HD
ENDROOT
BRANCH   2   5
ATOM      5  C   UNL d   1      27.581 -14.222   1.040  0.00  0.00     0.376 C 
BRANCH   5   6
ATOM      6  N   UNL d   1      27.401 -13.842   2.464  0.00  0.00     0.101 N 
ATOM      7  C   UNL d   1      28.081 -14.825   3.324  0.00  0.00     0.301 C 
ATOM      8  C   UNL d   1      28.397 -14.373   4.703  0.00  0.00     0.011 C 
ATOM      9  C   UNL d   1      28.204 -13.120   5.142  0.00  0.00    -0.048 C 
ATOM     10  C   UNL d   1      27.644 -12.073   4.223  0.00  0.00     0.069 C 
ATOM     11  C   UNL d   1      27.849 -12.465   2.738  0.00  0.00     0.278 C 
BRANCH   9  12
ATOM     12  C   UNL d   1      28.588 -12.810   6.521  0.00  0.00    -0.030 A 
ATOM     13  C   UNL d   1      28.567 -11.507   7.027  0.00  0.00     0.014 A 
ATOM     14  C   UNL d   1      28.828 -11.277   8.385  0.00  0.00     0.037 A 
ATOM     15  C   UNL d   1      29.115 -12.355   9.221  0.00  0.00     0.065 A 
ATOM     16  C   UNL d   1      29.164 -13.649   8.726  0.00  0.00     0.037 A 
ATOM     17  C   UNL d   1      28.904 -13.875   7.379  0.00  0.00     0.014 A 
BRANCH  15  18
ATOM     18  O   UNL d   1      29.353 -12.200  10.556  0.00  0.00    -0.361 OA
ATOM     19  H   UNL d   1      28.905 -11.397  10.867  0.00  0.00     0.217 HD
ENDBRANCH  15  18
ENDBRANCH   9  12
ENDBRANCH   5   6
ENDBRANCH   2   5
BRANCH   3  20
ATOM     20  N   UNL d   1      26.901 -17.050   0.568  0.00  0.00    -0.263 N 
ATOM     21  C   UNL d   1      26.120 -16.660  -0.510  0.00  0.00     0.270 C 
ATOM     22  O   UNL d   1      26.517 -15.916  -1.405  0.00  0.00    -0.266 OA
ATOM     23  H   UNL d   1      26.598 -17.777   1.206  0.00  0.00     0.190 HD
BRANCH  21  24
ATOM     24  C   UNL d   1      24.740 -17.216  -0.552  0.00  0.00     0.033 A 
ATOM     25  C   UNL d   1      23.630 -16.375  -0.701  0.00  0.00     0.019 A 
ATOM     26  C   UNL d   1      22.340 -16.917  -0.747  0.00  0.00     0.025 A 
ATOM     27  C   UNL d   1      22.158 -18.296  -0.645  0.00  0.00     0.034 A 
ATOM     28 CL   UNL d   1      20.567 -18.951  -0.676  0.00  0.00    -0.084 Cl
ATOM     29  C   UNL d   1      23.257 -19.142  -0.521  0.00  0.00     0.025 A 
ATOM     30  C   UNL d   1      24.551 -18.604  -0.483  0.00  0.00     0.019 A 
ENDBRANCH  21  24
ENDBRANCH   3  20
TORSDOF 6
ENDMDL
MODEL 3
REMARK VINA RESULT:    -8.862      4.469      9.804
REMARK INTER + INTRA:         -11.672
REMARK INTER:                 -10.652
REMARK INTRA:                  -1.020
REMARK CONF_INDEPENDENT:        1.790
REMARK UNBOUND:                -1.020
REMARK  6 active torsions:
REMARK  status: ('A' for Active; 'I' for Inactive)
REMARK    1  A    between atoms: C_2  and  C_3 
REMARK       I    between atoms: C_2  and  N_17 
REMARK    2  A    between atoms: C_3  and  N_4 
REMARK    3  A    between atoms: C_7  and  C_8 
REMARK    4  A    between atoms: C_11  and  O_12 
REMARK    5  A    between atoms: N_17  and  N_18 
REMARK       I    between atoms: N_18  and  C_19 
REMARK    6  A    between atoms: C_19  and  C_21 
ROOT
ATOM      1  O   UNL d   1      31.969 -15.177   1.138  0.00  0.00    -0.270 OA
ATOM      2  C   UNL d   1      30.739 -15.177   1.200  0.00  0.00     0.264 C 
ATOM      3  N   UNL d   1      30.075 -16.196   0.563  0.00  0.00    -0.266 N 
ATOM      4  H   UNL d   1      30.655 -16.887   0.083  0.00  0.00     0.190 HD
ENDROOT
BRANCH   2   5
ATOM      5  C   UNL d   1      29.899 -14.096   1.928  0.00  0.00     0.376 C 
BRANCH   5   6
ATOM      6  N   UNL d   1      29.786 -14.347   3.387  0.00  0.00     0.101 N 
ATOM      7  C   UNL d   1      30.520 -13.305   4.123  0.00  0.00     0.301 C 
ATOM      8  C   UNL d   1      30.144 -13.129   5.550  0.00  0.00     0.011 C 
ATOM      9  C   UNL d   1      29.124 -13.771   6.138  0.00  0.00    -0.048 C 
ATOM     10  C   UNL d   1      28.278 -14.731   5.352  0.00  0.00     0.069 C 
ATOM     11  C   UNL d   1      28.385 -14.454   3.831  0.00  0.00     0.278 C 
BRANCH   9  12
ATOM     12  C   UNL d   1      28.851 -13.478   7.547  0.00  0.00    -0.030 A 
ATOM     13  C   UNL d   1      28.963 -14.449   8.547  0.00  0.00     0.014 A 
ATOM     14  C   UNL d   1      28.807 -14.092   9.893  0.00  0.00     0.037 A 
ATOM     15  C   UNL d   1      28.534 -12.765  10.224  0.00  0.00     0.065 A 
ATOM     16  C   UNL d   1      28.395 -11.799   9.240  0.00  0.00     0.037 A 
ATOM     17  C   UNL d   1      28.550 -12.155   7.906  0.00  0.00     0.014 A 
BRANCH  15  18
ATOM     18  O   UNL d   1      28.396 -12.350  11.516  0.00  0.00    -0.361 OA
ATOM     19  H   UNL d   1      28.530 -11.390  11.557  0.00  0.00     0.217 HD
ENDBRANCH  15  18
ENDBRANCH   9  12
ENDBRANCH   5   6
ENDBRANCH   2   5
BRANCH   3  20
ATOM     20  N   UNL d   1      28.694 -16.397   0.536  0.00  0.00    -0.263 N 
ATOM     21  C   UNL d   1      28.125 -16.835  -0.651  0.00  0.00     0.270 C 
ATOM     22  O   UNL d   1      28.762 -17.014  -1.687  0.00  0.00    -0.266 OA
ATOM     23  H   UNL d   1      28.175 -16.402   1.406  0.00  0.00     0.190 HD
BRANCH  21  24
ATOM     24  C   UNL d   1      26.662 -17.110  -0.611  0.00  0.00     0.033 A 
ATOM     25  C   UNL d   1      26.141 -18.111   0.220  0.00  0.00     0.019 A 
ATOM     26  C   UNL d   1      24.762 -18.349   0.251  0.00  0.00     0.025 A 
ATOM     27  C   UNL d   1      23.904 -17.590  -0.545  0.00  0.00     0.034 A 
ATOM     28 CL   UNL d   1      22.214 -17.908  -0.520  0.00  0.00    -0.084 Cl
ATOM     29  C   UNL d   1      24.411 -16.577  -1.356  0.00  0.00     0.025 A 
ATOM     30  C   UNL d   1      25.790 -16.330  -1.383  0.00  0.00     0.019 A 
ENDBRANCH  21  24
ENDBRANCH   3  20
TORSDOF 6
ENDMDL
MODEL 4
REMARK VINA RESULT:    -8.844      2.685      3.922
REMARK INTER + INTRA:         -12.003
REMARK INTER:                 -10.634
REMARK INTRA:                  -1.369
REMARK CONF_INDEPENDENT:        1.790
REMARK UNBOUND:                -1.369
REMARK  6 active torsions:
REMARK  status: ('A' for Active; 'I' for Inactive)
REMARK    1  A    between atoms: C_2  and  C_3 
REMARK       I    between atoms: C_2  and  N_17 
REMARK    2  A    between atoms: C_3  and  N_4 
REMARK    3  A    between atoms: C_7  and  C_8 
REMARK    4  A    between atoms: C_11  and  O_12 
REMARK    5  A    between atoms: N_17  and  N_18 
REMARK       I    between atoms: N_18  and  C_19 
REMARK    6  A    between atoms: C_19  and  C_21 
ROOT
ATOM      1  O   UNL d   1      30.239 -14.430  -1.306  0.00  0.00    -0.270 OA
ATOM      2  C   UNL d   1      30.160 -14.832  -0.145  0.00  0.00     0.264 C 
ATOM      3  N   UNL d   1      30.152 -13.887   0.851  0.00  0.00    -0.266 N 
ATOM      4  H   UNL d   1      30.210 -12.910   0.552  0.00  0.00     0.190 HD
ENDROOT
BRANCH   2   5
ATOM      5  C   UNL d   1      30.090 -16.326   0.262  0.00  0.00     0.376 C 
BRANCH   5   6
ATOM      6  N   UNL d   1      28.702 -16.782   0.526  0.00  0.00     0.101 N 
ATOM      7  C   UNL d   1      27.781 -15.638   0.426  0.00  0.00     0.301 C 
ATOM      8  C   UNL d   1      26.351 -15.973   0.204  0.00  0.00     0.011 C 
ATOM      9  C   UNL d   1      25.900 -17.216  -0.018  0.00  0.00    -0.048 C 
ATOM     10  C   UNL d   1      26.856 -18.373  -0.059  0.00  0.00     0.069 C 
ATOM     11  C   UNL d   1      28.300 -17.895  -0.353  0.00  0.00     0.278 C 
BRANCH   9  12
ATOM     12  C   UNL d   1      24.464 -17.394  -0.247  0.00  0.00    -0.030 A 
ATOM     13  C   UNL d   1      23.622 -16.325  -0.569  0.00  0.00     0.014 A 
ATOM     14  C   UNL d   1      22.280 -16.564  -0.895  0.00  0.00     0.037 A 
ATOM     15  C   UNL d   1      21.792 -17.870  -0.888  0.00  0.00     0.065 A 
ATOM     16  C   UNL d   1      22.611 -18.935  -0.545  0.00  0.00     0.037 A 
ATOM     17  C   UNL d   1      23.942 -18.697  -0.222  0.00  0.00     0.014 A 
BRANCH  15  18
ATOM     18  O   UNL d   1      20.503 -18.170  -1.219  0.00  0.00    -0.361 OA
ATOM     19  H   UNL d   1      20.082 -17.383  -1.599  0.00  0.00     0.217 HD
ENDBRANCH  15  18
ENDBRANCH   9  12
ENDBRANCH   5   6
ENDBRANCH   2   5
BRANCH   3  20
ATOM     20  N   UNL d   1      30.039 -14.125   2.222  0.00  0.00    -0.263 N 
ATOM     21  C   UNL d   1      29.674 -13.064   3.037  0.00  0.00     0.270 C 
ATOM     22  O   UNL d   1      29.487 -11.920   2.625  0.00  0.00    -0.266 OA
ATOM     23  H   UNL d   1      30.040 -15.079   2.562  0.00  0.00     0.190 HD
BRANCH  21  24
ATOM     24  C   UNL d   1      29.491 -13.383   4.480  0.00  0.00     0.033 A 
ATOM     25  C   UNL d   1      30.014 -12.546   5.473  0.00  0.00     0.019 A 
ATOM     26  C   UNL d   1      29.824 -12.857   6.825  0.00  0.00     0.025 A 
ATOM     27  C   UNL d   1      29.111 -14.001   7.184  0.00  0.00     0.034 A 
ATOM     28 CL   UNL d   1      28.905 -14.389   8.847  0.00  0.00    -0.084 Cl
ATOM     29  C   UNL d   1      28.566 -14.826   6.203  0.00  0.00     0.025 A 
ATOM     30  C   UNL d   1      28.748 -14.513   4.849  0.00  0.00     0.019 A 
ENDBRANCH  21  24
ENDBRANCH   3  20
TORSDOF 6
ENDMDL
MODEL 5
REMARK VINA RESULT:    -8.767      5.166      6.151
REMARK INTER + INTRA:         -11.738
REMARK INTER:                 -10.556
REMARK INTRA:                  -1.182
REMARK CONF_INDEPENDENT:        1.790
REMARK UNBOUND:                -1.182
REMARK  6 active torsions:
REMARK  status: ('A' for Active; 'I' for Inactive)
REMARK    1  A    between atoms: C_2  and  C_3 
REMARK       I    between atoms: C_2  and  N_17 
REMARK    2  A    between atoms: C_3  and  N_4 
REMARK    3  A    between atoms: C_7  and  C_8 
REMARK    4  A    between atoms: C_11  and  O_12 
REMARK    5  A    between atoms: N_17  and  N_18 
REMARK       I    between atoms: N_18  and  C_19 
REMARK    6  A    between atoms: C_19  and  C_21 
ROOT
ATOM      1  O   UNL d   1      31.515 -16.589  -2.148  0.00  0.00    -0.270 OA
ATOM      2  C   UNL d   1      31.250 -17.017  -1.023  0.00  0.00     0.264 C 
ATOM      3  N   UNL d   1      32.017 -18.050  -0.544  0.00  0.00    -0.266 N 
ATOM      4  H   UNL d   1      32.761 -18.388  -1.159  0.00  0.00     0.190 HD
ENDROOT
BRANCH   2   5
ATOM      5  C   UNL d   1      30.100 -16.482  -0.131  0.00  0.00     0.376 C 
BRANCH   5   6
ATOM      6  N   UNL d   1      28.757 -16.793  -0.684  0.00  0.00     0.101 N 
ATOM      7  C   UNL d   1      28.138 -17.870   0.106  0.00  0.00     0.301 C 
ATOM      8  C   UNL d   1      26.661 -17.989  -0.001  0.00  0.00     0.011 C 
ATOM      9  C   UNL d   1      25.888 -17.117  -0.666  0.00  0.00    -0.048 C 
ATOM     10  C   UNL d   1      26.501 -15.933  -1.355  0.00  0.00     0.069 C 
ATOM     11  C   UNL d   1      27.894 -15.601  -0.764  0.00  0.00     0.278 C 
BRANCH   9  12
ATOM     12  C   UNL d   1      24.441 -17.346  -0.665  0.00  0.00    -0.030 A 
ATOM     13  C   UNL d   1      23.519 -16.294  -0.669  0.00  0.00     0.014 A 
ATOM     14  C   UNL d   1      22.149 -16.564  -0.788  0.00  0.00     0.037 A 
ATOM     15  C   UNL d   1      21.715 -17.884  -0.894  0.00  0.00     0.065 A 
ATOM     16  C   UNL d   1      22.617 -18.936  -0.866  0.00  0.00     0.037 A 
ATOM     17  C   UNL d   1      23.976 -18.667  -0.748  0.00  0.00     0.014 A 
BRANCH  15  18
ATOM     18  O   UNL d   1      20.398 -18.210  -1.037  0.00  0.00    -0.361 OA
ATOM     19  H   UNL d   1      19.927 -17.461  -1.436  0.00  0.00     0.217 HD
ENDBRANCH  15  18
ENDBRANCH   9  12
ENDBRANCH   5   6
ENDBRANCH   2   5
BRANCH   3  20
ATOM     20  N   UNL d   1      31.905 -18.656   0.709  0.00  0.00    -0.263 N 
ATOM     21  C   UNL d   1      32.871 -19.582   1.070  0.00  0.00     0.270 C 
ATOM     22  O   UNL d   1      33.794 -19.928   0.335  0.00  0.00    -0.266 OA
ATOM     23  H   UNL d   1      31.249 -18.283   1.384  0.00  0.00     0.190 HD
BRANCH  21  24
ATOM     24  C   UNL d   1      32.754 -20.145   2.444  0.00  0.00     0.033 A 
ATOM     25  C   UNL d   1      33.779 -19.970   3.382  0.00  0.00     0.019 A 
ATOM     26  C   UNL d   1      33.647 -20.499   4.672  0.00  0.00     0.025 A 
ATOM     27  C   UNL d   1      32.495 -21.201   5.024  0.00  0.00     0.034 A 
ATOM     28 CL   UNL d   1      32.353 -21.870   6.603  0.00  0.00    -0.084 Cl
ATOM     29  C   UNL d   1      31.460 -21.359   4.105  0.00  0.00     0.025 A 
ATOM     30  C   UNL d   1      31.585 -20.824   2.816  0.00  0.00     0.019 A 
ENDBRANCH  21  24
ENDBRANCH   3  20
TORSDOF 6
ENDMDL
MODEL 6
REMARK VINA RESULT:    -8.488      5.012      7.246
REMARK INTER + INTRA:         -11.648
REMARK INTER:                 -10.277
REMARK INTRA:                  -1.371
REMARK CONF_INDEPENDENT:        1.790
REMARK UNBOUND:                -1.371
REMARK  6 active torsions:
REMARK  status: ('A' for Active; 'I' for Inactive)
REMARK    1  A    between atoms: C_2  and  C_3 
REMARK       I    between atoms: C_2  and  N_17 
REMARK    2  A    between atoms: C_3  and  N_4 
REMARK    3  A    between atoms: C_7  and  C_8 
REMARK    4  A    between atoms: C_11  and  O_12 
REMARK    5  A    between atoms: N_17  and  N_18 
REMARK       I    between atoms: N_18  and  C_19 
REMARK    6  A    between atoms: C_19  and  C_21 
ROOT
ATOM      1  O   UNL d   1      29.867 -13.578  -0.270  0.00  0.00    -0.270 OA
ATOM      2  C   UNL d   1      29.967 -14.688  -0.796  0.00  0.00     0.264 C 
ATOM      3  N   UNL d   1      30.142 -14.727  -2.157  0.00  0.00    -0.266 N 
ATOM      4  H   UNL d   1      30.182 -13.824  -2.637  0.00  0.00     0.190 HD
ENDROOT
BRANCH   2   5
ATOM      5  C   UNL d   1      29.884 -16.032  -0.029  0.00  0.00     0.376 C 
BRANCH   5   6
ATOM      6  N   UNL d   1      28.487 -16.430   0.279  0.00  0.00     0.101 N 
ATOM      7  C   UNL d   1      27.557 -15.457  -0.317  0.00  0.00     0.301 C 
ATOM      8  C   UNL d   1      26.160 -15.927  -0.508  0.00  0.00     0.011 C 
ATOM      9  C   UNL d   1      25.757 -17.185  -0.279  0.00  0.00    -0.048 C 
ATOM     10  C   UNL d   1      26.736 -18.221   0.193  0.00  0.00     0.069 C 
ATOM     11  C   UNL d   1      28.191 -17.810  -0.145  0.00  0.00     0.278 C 
BRANCH   9  12
ATOM     12  C   UNL d   1      24.352 -17.512  -0.536  0.00  0.00    -0.030 A 
ATOM     13  C   UNL d   1      23.869 -18.823  -0.482  0.00  0.00     0.014 A 
ATOM     14  C   UNL d   1      22.496 -19.070  -0.618  0.00  0.00     0.037 A 
ATOM     15  C   UNL d   1      21.621 -18.003  -0.814  0.00  0.00     0.065 A 
ATOM     16  C   UNL d   1      22.092 -16.701  -0.895  0.00  0.00     0.037 A 
ATOM     17  C   UNL d   1      23.453 -16.457  -0.760  0.00  0.00     0.014 A 
BRANCH  15  18
ATOM     18  O   UNL d   1      20.273 -18.176  -0.929  0.00  0.00    -0.361 OA
ATOM     19  H   UNL d   1      19.958 -17.702  -1.715  0.00  0.00     0.217 HD
ENDBRANCH  15  18
ENDBRANCH   9  12
ENDBRANCH   5   6
ENDBRANCH   2   5
BRANCH   3  20
ATOM     20  N   UNL d   1      30.307 -15.870  -2.941  0.00  0.00    -0.263 N 
ATOM     21  C   UNL d   1      30.098 -15.756  -4.307  0.00  0.00     0.270 C 
ATOM     22  O   UNL d   1      29.737 -14.718  -4.858  0.00  0.00    -0.266 OA
ATOM     23  H   UNL d   1      30.744 -16.690  -2.538  0.00  0.00     0.190 HD
BRANCH  21  24
ATOM     24  C   UNL d   1      30.360 -16.982  -5.112  0.00  0.00     0.033 A 
ATOM     25  C   UNL d   1      30.376 -18.246  -4.510  0.00  0.00     0.019 A 
ATOM     26  C   UNL d   1      30.615 -19.388  -5.284  0.00  0.00     0.025 A 
ATOM     27  C   UNL d   1      30.836 -19.268  -6.657  0.00  0.00     0.034 A 
ATOM     28 CL   UNL d   1      31.155 -20.674  -7.595  0.00  0.00    -0.084 Cl
ATOM     29  C   UNL d   1      30.797 -18.016  -7.267  0.00  0.00     0.025 A 
ATOM     30  C   UNL d   1      30.550 -16.872  -6.497  0.00  0.00     0.019 A 
ENDBRANCH  21  24
ENDBRANCH   3  20
TORSDOF 6
ENDMDL
MODEL 7
REMARK VINA RESULT:    -8.399      5.417      7.003
REMARK INTER + INTRA:         -11.461
REMARK INTER:                 -10.189
REMARK INTRA:                  -1.273
REMARK CONF_INDEPENDENT:        1.790
REMARK UNBOUND:                -1.273
REMARK  6 active torsions:
REMARK  status: ('A' for Active; 'I' for Inactive)
REMARK    1  A    between atoms: C_2  and  C_3 
REMARK       I    between atoms: C_2  and  N_17 
REMARK    2  A    between atoms: C_3  and  N_4 
REMARK    3  A    between atoms: C_7  and  C_8 
REMARK    4  A    between atoms: C_11  and  O_12 
REMARK    5  A    between atoms: N_17  and  N_18 
REMARK       I    between atoms: N_18  and  C_19 
REMARK    6  A    between atoms: C_19  and  C_21 
ROOT
ATOM      1  O   UNL d   1      31.316 -15.627  -1.500  0.00  0.00    -0.270 OA
ATOM      2  C   UNL d   1      30.845 -16.651  -1.003  0.00  0.00     0.264 C 
ATOM      3  N   UNL d   1      31.343 -17.853  -1.443  0.00  0.00    -0.266 N 
ATOM      4  H   UNL d   1      32.076 -17.808  -2.155  0.00  0.00     0.190 HD
ENDROOT
BRANCH   2   5
ATOM      5  C   UNL d   1      29.721 -16.670   0.064  0.00  0.00     0.376 C 
BRANCH   5   6
ATOM      6  N   UNL d   1      28.376 -16.887  -0.527  0.00  0.00     0.101 N 
ATOM      7  C   UNL d   1      27.795 -18.127   0.014  0.00  0.00     0.301 C 
ATOM      8  C   UNL d   1      26.320 -18.258  -0.099  0.00  0.00     0.011 C 
ATOM      9  C   UNL d   1      25.516 -17.282  -0.548  0.00  0.00    -0.048 C 
ATOM     10  C   UNL d   1      26.090 -15.960  -0.968  0.00  0.00     0.069 C 
ATOM     11  C   UNL d   1      27.484 -15.729  -0.335  0.00  0.00     0.278 C 
BRANCH   9  12
ATOM     12  C   UNL d   1      24.075 -17.543  -0.580  0.00  0.00    -0.030 A 
ATOM     13  C   UNL d   1      23.135 -16.522  -0.751  0.00  0.00     0.014 A 
ATOM     14  C   UNL d   1      21.776 -16.836  -0.894  0.00  0.00     0.037 A 
ATOM     15  C   UNL d   1      21.371 -18.169  -0.858  0.00  0.00     0.065 A 
ATOM     16  C   UNL d   1      22.291 -19.188  -0.663  0.00  0.00     0.037 A 
ATOM     17  C   UNL d   1      23.638 -18.876  -0.522  0.00  0.00     0.014 A 
BRANCH  15  18
ATOM     18  O   UNL d   1      20.068 -18.541  -1.015  0.00  0.00    -0.361 OA
ATOM     19  H   UNL d   1      19.589 -17.831  -1.471  0.00  0.00     0.217 HD
ENDBRANCH  15  18
ENDBRANCH   9  12
ENDBRANCH   5   6
ENDBRANCH   2   5
BRANCH   3  20
ATOM     20  N   UNL d   1      30.972 -19.121  -0.992  0.00  0.00    -0.263 N 
ATOM     21  C   UNL d   1      31.521 -20.223  -1.630  0.00  0.00     0.270 C 
ATOM     22  O   UNL d   1      32.281 -20.145  -2.594  0.00  0.00    -0.266 OA
ATOM     23  H   UNL d   1      30.473 -19.210  -0.115  0.00  0.00     0.190 HD
BRANCH  21  24
ATOM     24  C   UNL d   1      31.158 -21.552  -1.066  0.00  0.00     0.033 A 
ATOM     25  C   UNL d   1      30.556 -21.657   0.195  0.00  0.00     0.019 A 
ATOM     26  C   UNL d   1      30.214 -22.915   0.705  0.00  0.00     0.025 A 
ATOM     27  C   UNL d   1      30.470 -24.065  -0.041  0.00  0.00     0.034 A 
ATOM     28 CL   UNL d   1      30.070 -25.608   0.606  0.00  0.00    -0.084 Cl
ATOM     29  C   UNL d   1      31.046 -23.968  -1.306  0.00  0.00     0.025 A 
ATOM     30  C   UNL d   1      31.383 -22.710  -1.824  0.00  0.00     0.019 A 
ENDBRANCH  21  24
ENDBRANCH   3  20
TORSDOF 6
ENDMDL
MODEL 8
REMARK VINA RESULT:    -8.333      4.054      5.189
REMARK INTER + INTRA:         -11.212
REMARK INTER:                 -10.123
REMARK INTRA:                  -1.089
REMARK CONF_INDEPENDENT:        1.790
REMARK UNBOUND:                -1.089
REMARK  6 active torsions:
REMARK  status: ('A' for Active; 'I' for Inactive)
REMARK    1  A    between atoms: C_2  and  C_3 
REMARK       I    between atoms: C_2  and  N_17 
REMARK    2  A    between atoms: C_3  and  N_4 
REMARK    3  A    between atoms: C_7  and  C_8 
REMARK    4  A    between atoms: C_11  and  O_12 
REMARK    5  A    between atoms: N_17  and  N_18 
REMARK       I    between atoms: N_18  and  C_19 
REMARK    6  A    between atoms: C_19  and  C_21 
ROOT
ATOM      1  O   UNL d   1      27.269 -18.174  -0.611  0.00  0.00    -0.270 OA
ATOM      2  C   UNL d   1      26.952 -17.047  -0.991  0.00  0.00     0.264 C 
ATOM      3  N   UNL d   1      27.802 -16.412  -1.863  0.00  0.00    -0.266 N 
ATOM      4  H   UNL d   1      28.641 -16.929  -2.137  0.00  0.00     0.190 HD
ENDROOT
BRANCH   2   5
ATOM      5  C   UNL d   1      25.676 -16.295  -0.535  0.00  0.00     0.376 C 
BRANCH   5   6
ATOM      6  N   UNL d   1      24.433 -17.063  -0.803  0.00  0.00     0.101 N 
ATOM      7  C   UNL d   1      24.426 -18.286   0.016  0.00  0.00     0.301 C 
ATOM      8  C   UNL d   1      23.098 -18.920   0.225  0.00  0.00     0.011 C 
ATOM      9  C   UNL d   1      21.940 -18.382  -0.185  0.00  0.00    -0.048 C 
ATOM     10  C   UNL d   1      21.929 -17.060  -0.897  0.00  0.00     0.069 C 
ATOM     11  C   UNL d   1      23.218 -16.254  -0.601  0.00  0.00     0.278 C 
BRANCH   9  12
ATOM     12  C   UNL d   1      20.704 -19.107   0.114  0.00  0.00    -0.030 A 
ATOM     13  C   UNL d   1      19.696 -19.291  -0.838  0.00  0.00     0.014 A 
ATOM     14  C   UNL d   1      18.586 -20.093  -0.540  0.00  0.00     0.037 A 
ATOM     15  C   UNL d   1      18.492 -20.697   0.713  0.00  0.00     0.065 A 
ATOM     16  C   UNL d   1      19.472 -20.502   1.674  0.00  0.00     0.037 A 
ATOM     17  C   UNL d   1      20.572 -19.707   1.377  0.00  0.00     0.014 A 
BRANCH  15  18
ATOM     18  O   UNL d   1      17.450 -21.508   1.055  0.00  0.00    -0.361 OA
ATOM     19  H   UNL d   1      17.657 -21.956   1.890  0.00  0.00     0.217 HD
ENDBRANCH  15  18
ENDBRANCH   9  12
ENDBRANCH   5   6
ENDBRANCH   2   5
BRANCH   3  20
ATOM     20  N   UNL d   1      27.617 -15.153  -2.436  0.00  0.00    -0.263 N 
ATOM     21  C   UNL d   1      26.524 -14.974  -3.271  0.00  0.00     0.270 C 
ATOM     22  O   UNL d   1      25.737 -15.872  -3.566  0.00  0.00    -0.266 OA
ATOM     23  H   UNL d   1      28.157 -14.367  -2.094  0.00  0.00     0.190 HD
BRANCH  21  24
ATOM     24  C   UNL d   1      26.323 -13.596  -3.796  0.00  0.00     0.033 A 
ATOM     25  C   UNL d   1      26.558 -13.299  -5.145  0.00  0.00     0.019 A 
ATOM     26  C   UNL d   1      26.355 -11.999  -5.624  0.00  0.00     0.025 A 
ATOM     27  C   UNL d   1      25.917 -10.997  -4.757  0.00  0.00     0.034 A 
ATOM     28 CL   UNL d   1      25.697  -9.396  -5.348  0.00  0.00    -0.084 Cl
ATOM     29  C   UNL d   1      25.659 -11.288  -3.420  0.00  0.00     0.025 A 
ATOM     30  C   UNL d   1      25.853 -12.590  -2.940  0.00  0.00     0.019 A 
ENDBRANCH  21  24
ENDBRANCH   3  20
TORSDOF 6
ENDMDL
MODEL 9
REMARK VINA RESULT:    -7.989      4.020      6.174
REMARK INTER + INTRA:         -11.507
REMARK INTER:                  -9.778
REMARK INTRA:                  -1.729
REMARK CONF_INDEPENDENT:        1.790
REMARK UNBOUND:                -1.729
REMARK  6 active torsions:
REMARK  status: ('A' for Active; 'I' for Inactive)
REMARK    1  A    between atoms: C_2  and  C_3 
REMARK       I    between atoms: C_2  and  N_17 
REMARK    2  A    between atoms: C_3  and  N_4 
REMARK    3  A    between atoms: C_7  and  C_8 
REMARK    4  A    between atoms: C_11  and  O_12 
REMARK    5  A    between atoms: N_17  and  N_18 
REMARK       I    between atoms: N_18  and  C_19 
REMARK    6  A    between atoms: C_19  and  C_21 
ROOT
ATOM      1  O   UNL d   1      31.253 -17.486  -0.169  0.00  0.00    -0.270 OA
ATOM      2  C   UNL d   1      30.596 -16.547  -0.621  0.00  0.00     0.264 C 
ATOM      3  N   UNL d   1      30.699 -16.295  -1.967  0.00  0.00    -0.266 N 
ATOM      4  H   UNL d   1      31.316 -16.913  -2.499  0.00  0.00     0.190 HD
ENDROOT
BRANCH   2   5
ATOM      5  C   UNL d   1      29.686 -15.625   0.230  0.00  0.00     0.376 C 
BRANCH   5   6
ATOM      6  N   UNL d   1      28.347 -16.218   0.481  0.00  0.00     0.101 N 
ATOM      7  C   UNL d   1      27.303 -15.249   0.109  0.00  0.00     0.301 C 
ATOM      8  C   UNL d   1      25.952 -15.814  -0.142  0.00  0.00     0.011 C 
ATOM      9  C   UNL d   1      25.683 -17.128  -0.158  0.00  0.00    -0.048 C 
ATOM     10  C   UNL d   1      26.776 -18.129   0.080  0.00  0.00     0.069 C 
ATOM     11  C   UNL d   1      28.169 -17.512  -0.201  0.00  0.00     0.278 C 
BRANCH   9  12
ATOM     12  C   UNL d   1      24.308 -17.542  -0.445  0.00  0.00    -0.030 A 
ATOM     13  C   UNL d   1      23.897 -18.876  -0.366  0.00  0.00     0.014 A 
ATOM     14  C   UNL d   1      22.545 -19.205  -0.534  0.00  0.00     0.037 A 
ATOM     15  C   UNL d   1      21.618 -18.196  -0.787  0.00  0.00     0.065 A 
ATOM     16  C   UNL d   1      22.017 -16.872  -0.894  0.00  0.00     0.037 A 
ATOM     17  C   UNL d   1      23.358 -16.547  -0.727  0.00  0.00     0.014 A 
BRANCH  15  18
ATOM     18  O   UNL d   1      20.286 -18.449  -0.936  0.00  0.00    -0.361 OA
ATOM     19  H   UNL d   1      19.923 -17.852  -1.609  0.00  0.00     0.217 HD
ENDBRANCH  15  18
ENDBRANCH   9  12
ENDBRANCH   5   6
ENDBRANCH   2   5
BRANCH   3  20
ATOM     20  N   UNL d   1      30.021 -15.305  -2.681  0.00  0.00    -0.263 N 
ATOM     21  C   UNL d   1      28.716 -15.565  -3.069  0.00  0.00     0.270 C 
ATOM     22  O   UNL d   1      28.139 -16.631  -2.857  0.00  0.00    -0.266 OA
ATOM     23  H   UNL d   1      30.416 -14.374  -2.736  0.00  0.00     0.190 HD
BRANCH  21  24
ATOM     24  C   UNL d   1      28.007 -14.453  -3.760  0.00  0.00     0.033 A 
ATOM     25  C   UNL d   1      28.692 -13.595  -4.630  0.00  0.00     0.019 A 
ATOM     26  C   UNL d   1      28.007 -12.560  -5.278  0.00  0.00     0.025 A 
ATOM     27  C   UNL d   1      26.641 -12.382  -5.058  0.00  0.00     0.034 A 
ATOM     28 CL   UNL d   1      25.813 -11.090  -5.837  0.00  0.00    -0.084 Cl
ATOM     29  C   UNL d   1      25.947 -13.245  -4.213  0.00  0.00     0.025 A 
ATOM     30  C   UNL d   1      26.627 -14.287  -3.570  0.00  0.00     0.019 A 
ENDBRANCH  21  24
ENDBRANCH   3  20
TORSDOF 6
ENDMDL
