MODEL 1
REMARK VINA RESULT:    -7.928      0.000      0.000
REMARK INTER + INTRA:         -11.135
REMARK INTER:                  -9.420
REMARK INTRA:                  -1.715
REMARK CONF_INDEPENDENT:        1.492
REMARK UNBOUND:                -1.715
REMARK  5 active torsions:
REMARK  status: ('A' for Active; 'I' for Inactive)
REMARK    1  A    between atoms: C_5  and  O_6 
REMARK    2  A    between atoms: C_7  and  O_6 
REMARK    3  A    between atoms: C_7  and  C_9 
REMARK       I    between atoms: C_9  and  N_11 
REMARK    4  A    between atoms: N_11  and  N_12 
REMARK       I    between atoms: N_12  and  C_13 
REMARK       I    between atoms: C_13  and  N_15 
REMARK    5  A    between atoms: N_15  and  C_16 
ROOT
ATOM      1  C   UNL d   1      25.141 -17.641  -0.424  0.00  0.00     0.265 C 
ATOM      2  O   UNL d   1      25.593 -18.182   0.589  0.00  0.00    -0.269 OA
ATOM      3  N   UNL d   1      23.819 -17.831  -0.794  0.00  0.00    -0.264 N 
ATOM      4  H   UNL d   1      23.385 -17.414  -1.616  0.00  0.00     0.190 HD
ENDROOT
BRANCH   1   5
ATOM      5  C   UNL d   1      25.991 -16.671  -1.308  0.00  0.00     0.218 C 
ATOM      6  C   UNL d   1      27.471 -17.067  -1.225  0.00  0.00     0.050 C 
BRANCH   5   7
ATOM      7  O   UNL d   1      25.471 -16.452  -2.636  0.00  0.00    -0.337 OA
BRANCH   7   8
ATOM      8  C   UNL d   1      25.746 -15.337  -3.382  0.00  0.00     0.070 A 
ATOM      9  C   UNL d   1      26.790 -15.187  -4.286  0.00  0.00     0.037 A 
ATOM     10  C   UNL d   1      27.001 -14.043  -5.034  0.00  0.00     0.009 A 
ATOM     11  C   UNL d   1      26.195 -12.943  -4.847  0.00  0.00    -0.062 A 
ATOM     12  C   UNL d   1      26.484 -11.723  -5.657  0.00  0.00     0.048 C 
ATOM     13  C   UNL d   1      25.172 -13.020  -3.895  0.00  0.00     0.009 A 
ATOM     14  C   UNL d   1      24.945 -14.212  -3.170  0.00  0.00     0.037 A 
ENDBRANCH   7   8
ENDBRANCH   5   7
ENDBRANCH   1   5
BRANCH   3  15
ATOM     15  N   UNL d   1      22.996 -18.703  -0.007  0.00  0.00    -0.249 N 
ATOM     16  C   UNL d   1      21.621 -18.622  -0.142  0.00  0.00     0.335 C 
ATOM     17  O   UNL d   1      21.099 -17.800  -0.878  0.00  0.00    -0.246 OA
ATOM     18  N   UNL d   1      20.910 -19.555   0.597  0.00  0.00    -0.338 N 
ATOM     19  H   UNL d   1      21.400 -20.167   1.232  0.00  0.00     0.164 HD
ATOM     20  H   UNL d   1      23.483 -19.349   0.605  0.00  0.00     0.192 HD
BRANCH  18  21
ATOM     21  C   UNL d   1      19.437 -19.624   0.548  0.00  0.00     0.078 C 
ATOM     22  C   UNL d   1      18.929 -19.700  -0.894  0.00  0.00     0.032 C 
ATOM     23  C   UNL d   1      18.867 -20.826   1.315  0.00  0.00     0.032 C 
ENDBRANCH  18  21
ENDBRANCH   3  15
TORSDOF 5
ENDMDL
MODEL 2
REMARK VINA RESULT:    -7.148      2.117      8.595
REMARK INTER + INTRA:          -9.866
REMARK INTER:                  -8.640
REMARK INTRA:                  -1.226
REMARK CONF_INDEPENDENT:        1.492
REMARK UNBOUND:                -1.226
REMARK  5 active torsions:
REMARK  status: ('A' for Active; 'I' for Inactive)
REMARK    1  A    between atoms: C_5  and  O_6 
REMARK    2  A    between atoms: C_7  and  O_6 
REMARK    3  A    between atoms: C_7  and  C_9 
REMARK       I    between atoms: C_9  and  N_11 
REMARK    4  A    between atoms: N_11  and  N_12 
REMARK       I    between atoms: N_12  and  C_13 
REMARK       I    between atoms: C_13  and  N_15 
REMARK    5  A    between atoms: N_15  and  C_16 
ROOT
ATOM      1  C   UNL d   1      23.592 -16.933  -1.131  0.00  0.00     0.265 C 
ATOM      2  O   UNL d   1      23.646 -16.243  -0.110  0.00  0.00    -0.269 OA
ATOM      3  N   UNL d   1      24.416 -16.661  -2.211  0.00  0.00    -0.264 N 
ATOM      4  H   UNL d   1      24.422 -17.191  -3.080  0.00  0.00     0.190 HD
ENDROOT
BRANCH   1   5
ATOM      5  C   UNL d   1      22.655 -18.179  -1.253  0.00  0.00     0.218 C 
ATOM      6  C   UNL d   1      23.312 -19.384  -0.566  0.00  0.00     0.050 C 
BRANCH   5   7
ATOM      7  O   UNL d   1      21.275 -17.934  -0.910  0.00  0.00    -0.337 OA
BRANCH   7   8
ATOM      8  C   UNL d   1      20.438 -18.894  -0.410  0.00  0.00     0.070 A 
ATOM      9  C   UNL d   1      19.332 -19.441  -1.050  0.00  0.00     0.037 A 
ATOM     10  C   UNL d   1      18.539 -20.432  -0.503  0.00  0.00     0.009 A 
ATOM     11  C   UNL d   1      18.782 -20.877   0.776  0.00  0.00    -0.062 A 
ATOM     12  C   UNL d   1      17.878 -21.927   1.331  0.00  0.00     0.048 C 
ATOM     13  C   UNL d   1      19.842 -20.307   1.490  0.00  0.00     0.009 A 
ATOM     14  C   UNL d   1      20.669 -19.325   0.900  0.00  0.00     0.037 A 
ENDBRANCH   7   8
ENDBRANCH   5   7
ENDBRANCH   1   5
BRANCH   3  15
ATOM     15  N   UNL d   1      25.302 -15.535  -2.142  0.00  0.00    -0.249 N 
ATOM     16  C   UNL d   1      25.641 -14.880  -3.313  0.00  0.00     0.335 C 
ATOM     17  O   UNL d   1      25.239 -15.267  -4.399  0.00  0.00    -0.246 OA
ATOM     18  N   UNL d   1      26.437 -13.758  -3.142  0.00  0.00    -0.338 N 
ATOM     19  H   UNL d   1      26.783 -13.529  -2.222  0.00  0.00     0.164 HD
ATOM     20  H   UNL d   1      25.623 -15.273  -1.215  0.00  0.00     0.192 HD
BRANCH  18  21
ATOM     21  C   UNL d   1      26.867 -12.930  -4.284  0.00  0.00     0.078 C 
ATOM     22  C   UNL d   1      27.597 -13.767  -5.337  0.00  0.00     0.032 C 
ATOM     23  C   UNL d   1      25.700 -12.210  -4.976  0.00  0.00     0.032 C 
ENDBRANCH  18  21
ENDBRANCH   3  15
TORSDOF 5
ENDMDL
MODEL 3
REMARK VINA RESULT:    -7.041      1.028      1.223
REMARK INTER + INTRA:         -10.300
REMARK INTER:                  -8.532
REMARK INTRA:                  -1.767
REMARK CONF_INDEPENDENT:        1.492
REMARK UNBOUND:                -1.767
REMARK  5 active torsions:
REMARK  status: ('A' for Active; 'I' for Inactive)
REMARK    1  A    between atoms: C_5  and  O_6 
REMARK    2  A    between atoms: C_7  and  O_6 
REMARK    3  A    between atoms: C_7  and  C_9 
REMARK       I    between atoms: C_9  and  N_11 
REMARK    4  A    between atoms: N_11  and  N_12 
REMARK       I    between atoms: N_12  and  C_13 
REMARK       I    between atoms: C_13  and  N_15 
REMARK    5  A    between atoms: N_15  and  C_16 
ROOT
ATOM      1  C   UNL d   1      25.366 -17.587   0.033  0.00  0.00     0.265 C 
ATOM      2  O   UNL d   1      25.772 -18.339   0.922  0.00  0.00    -0.269 OA
ATOM      3  N   UNL d   1      24.060 -17.675  -0.423  0.00  0.00    -0.264 N 
ATOM      4  H   UNL d   1      23.663 -17.086  -1.153  0.00  0.00     0.190 HD
ENDROOT
BRANCH   1   5
ATOM      5  C   UNL d   1      26.256 -16.460  -0.586  0.00  0.00     0.218 C 
ATOM      6  C   UNL d   1      27.553 -17.074  -1.132  0.00  0.00     0.050 C 
BRANCH   5   7
ATOM      7  O   UNL d   1      25.562 -15.561  -1.475  0.00  0.00    -0.337 OA
BRANCH   7   8
ATOM      8  C   UNL d   1      26.110 -15.060  -2.625  0.00  0.00     0.070 A 
ATOM      9  C   UNL d   1      25.633 -15.245  -3.917  0.00  0.00     0.037 A 
ATOM     10  C   UNL d   1      26.216 -14.688  -5.040  0.00  0.00     0.009 A 
ATOM     11  C   UNL d   1      27.380 -13.962  -4.920  0.00  0.00    -0.062 A 
ATOM     12  C   UNL d   1      27.986 -13.408  -6.165  0.00  0.00     0.048 C 
ATOM     13  C   UNL d   1      27.940 -13.806  -3.646  0.00  0.00     0.009 A 
ATOM     14  C   UNL d   1      27.307 -14.347  -2.505  0.00  0.00     0.037 A 
ENDBRANCH   7   8
ENDBRANCH   5   7
ENDBRANCH   1   5
BRANCH   3  15
ATOM     15  N   UNL d   1      23.201 -18.685   0.123  0.00  0.00    -0.249 N 
ATOM     16  C   UNL d   1      21.839 -18.596  -0.106  0.00  0.00     0.335 C 
ATOM     17  O   UNL d   1      21.355 -17.658  -0.720  0.00  0.00    -0.246 OA
ATOM     18  N   UNL d   1      21.096 -19.656   0.392  0.00  0.00    -0.338 N 
ATOM     19  H   UNL d   1      21.551 -20.368   0.942  0.00  0.00     0.164 HD
ATOM     20  H   UNL d   1      23.655 -19.427   0.644  0.00  0.00     0.192 HD
BRANCH  18  21
ATOM     21  C   UNL d   1      19.633 -19.731   0.211  0.00  0.00     0.078 C 
ATOM     22  C   UNL d   1      19.251 -19.698  -1.270  0.00  0.00     0.032 C 
ATOM     23  C   UNL d   1      19.016 -20.992   0.833  0.00  0.00     0.032 C 
ENDBRANCH  18  21
ENDBRANCH   3  15
TORSDOF 5
ENDMDL
MODEL 4
REMARK VINA RESULT:    -7.004      2.409      3.683
REMARK INTER + INTRA:          -9.994
REMARK INTER:                  -8.495
REMARK INTRA:                  -1.499
REMARK CONF_INDEPENDENT:        1.492
REMARK UNBOUND:                -1.499
REMARK  5 active torsions:
REMARK  status: ('A' for Active; 'I' for Inactive)
REMARK    1  A    between atoms: C_5  and  O_6 
REMARK    2  A    between atoms: C_7  and  O_6 
REMARK    3  A    between atoms: C_7  and  C_9 
REMARK       I    between atoms: C_9  and  N_11 
REMARK    4  A    between atoms: N_11  and  N_12 
REMARK       I    between atoms: N_12  and  C_13 
REMARK       I    between atoms: C_13  and  N_15 
REMARK    5  A    between atoms: N_15  and  C_16 
ROOT
ATOM      1  C   UNL d   1      24.951 -17.713  -0.740  0.00  0.00     0.265 C 
ATOM      2  O   UNL d   1      25.500 -18.261   0.219  0.00  0.00    -0.269 OA
ATOM      3  N   UNL d   1      23.587 -17.847  -0.940  0.00  0.00    -0.264 N 
ATOM      4  H   UNL d   1      23.073 -17.421  -1.710  0.00  0.00     0.190 HD
ENDROOT
BRANCH   1   5
ATOM      5  C   UNL d   1      25.727 -16.795  -1.740  0.00  0.00     0.218 C 
ATOM      6  C   UNL d   1      24.779 -15.721  -2.290  0.00  0.00     0.050 C 
BRANCH   5   7
ATOM      7  O   UNL d   1      27.004 -16.324  -1.262  0.00  0.00    -0.337 OA
BRANCH   7   8
ATOM      8  C   UNL d   1      27.148 -15.487  -0.188  0.00  0.00     0.070 A 
ATOM      9  C   UNL d   1      27.905 -15.730   0.951  0.00  0.00     0.037 A 
ATOM     10  C   UNL d   1      28.035 -14.831   1.994  0.00  0.00     0.009 A 
ATOM     11  C   UNL d   1      27.331 -13.648   1.971  0.00  0.00    -0.062 A 
ATOM     12  C   UNL d   1      27.483 -12.726   3.135  0.00  0.00     0.048 C 
ATOM     13  C   UNL d   1      26.499 -13.389   0.877  0.00  0.00     0.009 A 
ATOM     14  C   UNL d   1      26.411 -14.300  -0.200  0.00  0.00     0.037 A 
ENDBRANCH   7   8
ENDBRANCH   5   7
ENDBRANCH   1   5
BRANCH   3  15
ATOM     15  N   UNL d   1      22.829 -18.668  -0.042  0.00  0.00    -0.249 N 
ATOM     16  C   UNL d   1      21.448 -18.641  -0.117  0.00  0.00     0.335 C 
ATOM     17  O   UNL d   1      20.866 -17.904  -0.898  0.00  0.00    -0.246 OA
ATOM     18  N   UNL d   1      20.802 -19.525   0.734  0.00  0.00    -0.338 N 
ATOM     19  H   UNL d   1      21.341 -20.063   1.396  0.00  0.00     0.164 HD
ATOM     20  H   UNL d   1      23.365 -19.243   0.601  0.00  0.00     0.192 HD
BRANCH  18  21
ATOM     21  C   UNL d   1      19.331 -19.643   0.761  0.00  0.00     0.078 C 
ATOM     22  C   UNL d   1      18.781 -20.075  -0.600  0.00  0.00     0.032 C 
ATOM     23  C   UNL d   1      18.829 -20.639   1.815  0.00  0.00     0.032 C 
ENDBRANCH  18  21
ENDBRANCH   3  15
TORSDOF 5
ENDMDL
MODEL 5
REMARK VINA RESULT:    -6.949      3.645      8.403
REMARK INTER + INTRA:         -10.031
REMARK INTER:                  -8.440
REMARK INTRA:                  -1.590
REMARK CONF_INDEPENDENT:        1.492
REMARK UNBOUND:                -1.590
REMARK  5 active torsions:
REMARK  status: ('A' for Active; 'I' for Inactive)
REMARK    1  A    between atoms: C_5  and  O_6 
REMARK    2  A    between atoms: C_7  and  O_6 
REMARK    3  A    between atoms: C_7  and  C_9 
REMARK       I    between atoms: C_9  and  N_11 
REMARK    4  A    between atoms: N_11  and  N_12 
REMARK       I    between atoms: N_12  and  C_13 
REMARK       I    between atoms: C_13  and  N_15 
REMARK    5  A    between atoms: N_15  and  C_16 
ROOT
ATOM      1  C   UNL d   1      25.718 -14.675  -3.445  0.00  0.00     0.265 C 
ATOM      2  O   UNL d   1      25.156 -14.923  -4.515  0.00  0.00    -0.269 OA
ATOM      3  N   UNL d   1      25.867 -13.366  -3.015  0.00  0.00    -0.264 N 
ATOM      4  H   UNL d   1      26.319 -13.093  -2.144  0.00  0.00     0.190 HD
ENDROOT
BRANCH   1   5
ATOM      5  C   UNL d   1      26.234 -15.797  -2.486  0.00  0.00     0.218 C 
ATOM      6  C   UNL d   1      27.768 -15.769  -2.442  0.00  0.00     0.050 C 
BRANCH   5   7
ATOM      7  O   UNL d   1      25.568 -15.853  -1.207  0.00  0.00    -0.337 OA
BRANCH   7   8
ATOM      8  C   UNL d   1      24.514 -16.684  -0.939  0.00  0.00     0.070 A 
ATOM      9  C   UNL d   1      23.172 -16.325  -0.885  0.00  0.00     0.037 A 
ATOM     10  C   UNL d   1      22.147 -17.219  -0.636  0.00  0.00     0.009 A 
ATOM     11  C   UNL d   1      22.437 -18.533  -0.349  0.00  0.00    -0.062 A 
ATOM     12  C   UNL d   1      21.296 -19.450  -0.058  0.00  0.00     0.048 C 
ATOM     13  C   UNL d   1      23.779 -18.929  -0.321  0.00  0.00     0.009 A 
ATOM     14  C   UNL d   1      24.812 -18.012  -0.619  0.00  0.00     0.037 A 
ENDBRANCH   7   8
ENDBRANCH   5   7
ENDBRANCH   1   5
BRANCH   3  15
ATOM     15  N   UNL d   1      25.399 -12.302  -3.854  0.00  0.00    -0.249 N 
ATOM     16  C   UNL d   1      25.824 -11.011  -3.593  0.00  0.00     0.335 C 
ATOM     17  O   UNL d   1      26.548 -10.757  -2.643  0.00  0.00    -0.246 OA
ATOM     18  N   UNL d   1      25.384 -10.060  -4.501  0.00  0.00    -0.338 N 
ATOM     19  H   UNL d   1      24.739 -10.327  -5.229  0.00  0.00     0.164 HD
ATOM     20  H   UNL d   1      24.780 -12.568  -4.614  0.00  0.00     0.192 HD
BRANCH  18  21
ATOM     21  C   UNL d   1      25.767  -8.639  -4.385  0.00  0.00     0.078 C 
ATOM     22  C   UNL d   1      24.999  -7.770  -5.383  0.00  0.00     0.032 C 
ATOM     23  C   UNL d   1      25.532  -8.068  -2.979  0.00  0.00     0.032 C 
ENDBRANCH  18  21
ENDBRANCH   3  15
TORSDOF 5
ENDMDL
MODEL 6
REMARK VINA RESULT:    -6.907      2.297      3.777
REMARK INTER + INTRA:          -9.787
REMARK INTER:                  -8.398
REMARK INTRA:                  -1.389
REMARK CONF_INDEPENDENT:        1.492
REMARK UNBOUND:                -1.389
REMARK  5 active torsions:
REMARK  status: ('A' for Active; 'I' for Inactive)
REMARK    1  A    between atoms: C_5  and  O_6 
REMARK    2  A    between atoms: C_7  and  O_6 
REMARK    3  A    between atoms: C_7  and  C_9 
REMARK       I    between atoms: C_9  and  N_11 
REMARK    4  A    between atoms: N_11  and  N_12 
REMARK       I    between atoms: N_12  and  C_13 
REMARK       I    between atoms: C_13  and  N_15 
REMARK    5  A    between atoms: N_15  and  C_16 
ROOT
ATOM      1  C   UNL d   1      24.589 -17.871  -0.758  0.00  0.00     0.265 C 
ATOM      2  O   UNL d   1      25.110 -18.214   0.305  0.00  0.00    -0.269 OA
ATOM      3  N   UNL d   1      23.272 -18.199  -1.036  0.00  0.00    -0.264 N 
ATOM      4  H   UNL d   1      22.783 -17.946  -1.893  0.00  0.00     0.190 HD
ENDROOT
BRANCH   1   5
ATOM      5  C   UNL d   1      25.340 -17.002  -1.820  0.00  0.00     0.218 C 
ATOM      6  C   UNL d   1      24.597 -15.673  -2.013  0.00  0.00     0.050 C 
BRANCH   5   7
ATOM      7  O   UNL d   1      26.766 -16.904  -1.621  0.00  0.00    -0.337 OA
BRANCH   7   8
ATOM      8  C   UNL d   1      27.342 -16.154  -0.631  0.00  0.00     0.070 A 
ATOM      9  C   UNL d   1      26.718 -15.175   0.132  0.00  0.00     0.037 A 
ATOM     10  C   UNL d   1      27.347 -14.469   1.140  0.00  0.00     0.009 A 
ATOM     11  C   UNL d   1      28.687 -14.668   1.384  0.00  0.00    -0.062 A 
ATOM     12  C   UNL d   1      29.325 -13.859   2.464  0.00  0.00     0.048 C 
ATOM     13  C   UNL d   1      29.378 -15.594   0.595  0.00  0.00     0.009 A 
ATOM     14  C   UNL d   1      28.709 -16.337  -0.404  0.00  0.00     0.037 A 
ENDBRANCH   7   8
ENDBRANCH   5   7
ENDBRANCH   1   5
BRANCH   3  15
ATOM     15  N   UNL d   1      22.537 -18.984  -0.087  0.00  0.00    -0.249 N 
ATOM     16  C   UNL d   1      21.154 -18.930  -0.106  0.00  0.00     0.335 C 
ATOM     17  O   UNL d   1      20.555 -18.199  -0.878  0.00  0.00    -0.246 OA
ATOM     18  N   UNL d   1      20.528 -19.780   0.793  0.00  0.00    -0.338 N 
ATOM     19  H   UNL d   1      21.083 -20.314   1.444  0.00  0.00     0.164 HD
ATOM     20  H   UNL d   1      23.088 -19.555   0.546  0.00  0.00     0.192 HD
BRANCH  18  21
ATOM     21  C   UNL d   1      19.058 -19.867   0.884  0.00  0.00     0.078 C 
ATOM     22  C   UNL d   1      18.452 -20.448  -0.396  0.00  0.00     0.032 C 
ATOM     23  C   UNL d   1      18.579 -20.721   2.067  0.00  0.00     0.032 C 
ENDBRANCH  18  21
ENDBRANCH   3  15
TORSDOF 5
ENDMDL
MODEL 7
REMARK VINA RESULT:    -6.608      3.314      8.441
REMARK INTER + INTRA:          -9.689
REMARK INTER:                  -8.100
REMARK INTRA:                  -1.589
REMARK CONF_INDEPENDENT:        1.492
REMARK UNBOUND:                -1.589
REMARK  5 active torsions:
REMARK  status: ('A' for Active; 'I' for Inactive)
REMARK    1  A    between atoms: C_5  and  O_6 
REMARK    2  A    between atoms: C_7  and  O_6 
REMARK    3  A    between atoms: C_7  and  C_9 
REMARK       I    between atoms: C_9  and  N_11 
REMARK    4  A    between atoms: N_11  and  N_12 
REMARK       I    between atoms: N_12  and  C_13 
REMARK       I    between atoms: C_13  and  N_15 
REMARK    5  A    between atoms: N_15  and  C_16 
ROOT
ATOM      1  C   UNL d   1      24.531 -17.775  -0.047  0.00  0.00     0.265 C 
ATOM      2  O   UNL d   1      24.674 -18.575   0.881  0.00  0.00    -0.269 OA
ATOM      3  N   UNL d   1      25.628 -17.317  -0.758  0.00  0.00    -0.264 N 
ATOM      4  H   UNL d   1      25.579 -16.659  -1.534  0.00  0.00     0.190 HD
ENDROOT
BRANCH   1   5
ATOM      5  C   UNL d   1      23.125 -17.281  -0.520  0.00  0.00     0.218 C 
ATOM      6  C   UNL d   1      23.276 -15.951  -1.271  0.00  0.00     0.050 C 
BRANCH   5   7
ATOM      7  O   UNL d   1      22.319 -18.284  -1.172  0.00  0.00    -0.337 OA
BRANCH   7   8
ATOM      8  C   UNL d   1      21.271 -18.924  -0.566  0.00  0.00     0.070 A 
ATOM      9  C   UNL d   1      20.130 -19.412  -1.190  0.00  0.00     0.037 A 
ATOM     10  C   UNL d   1      19.115 -20.077  -0.527  0.00  0.00     0.009 A 
ATOM     11  C   UNL d   1      19.167 -20.218   0.841  0.00  0.00    -0.062 A 
ATOM     12  C   UNL d   1      18.033 -20.917   1.513  0.00  0.00     0.048 C 
ATOM     13  C   UNL d   1      20.264 -19.681   1.526  0.00  0.00     0.009 A 
ATOM     14  C   UNL d   1      21.312 -19.042   0.826  0.00  0.00     0.037 A 
ENDBRANCH   7   8
ENDBRANCH   5   7
ENDBRANCH   1   5
BRANCH   3  15
ATOM     15  N   UNL d   1      26.938 -17.752  -0.370  0.00  0.00    -0.249 N 
ATOM     16  C   UNL d   1      28.038 -17.208  -1.009  0.00  0.00     0.335 C 
ATOM     17  O   UNL d   1      27.914 -16.404  -1.921  0.00  0.00    -0.246 OA
ATOM     18  N   UNL d   1      29.264 -17.628  -0.515  0.00  0.00    -0.338 N 
ATOM     19  H   UNL d   1      29.296 -18.339   0.199  0.00  0.00     0.164 HD
ATOM     20  H   UNL d   1      26.981 -18.439   0.376  0.00  0.00     0.192 HD
BRANCH  18  21
ATOM     21  C   UNL d   1      30.537 -17.124  -1.066  0.00  0.00     0.078 C 
ATOM     22  C   UNL d   1      31.734 -17.629  -0.258  0.00  0.00     0.032 C 
ATOM     23  C   UNL d   1      30.754 -17.520  -2.534  0.00  0.00     0.032 C 
ENDBRANCH  18  21
ENDBRANCH   3  15
TORSDOF 5
ENDMDL
MODEL 8
REMARK VINA RESULT:    -6.520      2.223      3.718
REMARK INTER + INTRA:          -9.486
REMARK INTER:                  -8.011
REMARK INTRA:                  -1.474
REMARK CONF_INDEPENDENT:        1.492
REMARK UNBOUND:                -1.474
REMARK  5 active torsions:
REMARK  status: ('A' for Active; 'I' for Inactive)
REMARK    1  A    between atoms: C_5  and  O_6 
REMARK    2  A    between atoms: C_7  and  O_6 
REMARK    3  A    between atoms: C_7  and  C_9 
REMARK       I    between atoms: C_9  and  N_11 
REMARK    4  A    between atoms: N_11  and  N_12 
REMARK       I    between atoms: N_12  and  C_13 
REMARK       I    between atoms: C_13  and  N_15 
REMARK    5  A    between atoms: N_15  and  C_16 
ROOT
ATOM      1  C   UNL d   1      25.114 -17.869  -0.511  0.00  0.00     0.265 C 
ATOM      2  O   UNL d   1      25.596 -18.520   0.420  0.00  0.00    -0.269 OA
ATOM      3  N   UNL d   1      23.755 -17.922  -0.778  0.00  0.00    -0.264 N 
ATOM      4  H   UNL d   1      23.295 -17.409  -1.528  0.00  0.00     0.190 HD
ENDROOT
BRANCH   1   5
ATOM      5  C   UNL d   1      25.972 -16.907  -1.396  0.00  0.00     0.218 C 
ATOM      6  C   UNL d   1      25.075 -15.799  -1.965  0.00  0.00     0.050 C 
BRANCH   5   7
ATOM      7  O   UNL d   1      27.207 -16.470  -0.792  0.00  0.00    -0.337 OA
BRANCH   7   8
ATOM      8  C   UNL d   1      28.440 -16.697  -1.342  0.00  0.00     0.070 A 
ATOM      9  C   UNL d   1      28.838 -16.380  -2.635  0.00  0.00     0.037 A 
ATOM     10  C   UNL d   1      30.111 -16.610  -3.125  0.00  0.00     0.009 A 
ATOM     11  C   UNL d   1      31.042 -17.252  -2.342  0.00  0.00    -0.062 A 
ATOM     12  C   UNL d   1      32.391 -17.503  -2.929  0.00  0.00     0.048 C 
ATOM     13  C   UNL d   1      30.667 -17.655  -1.055  0.00  0.00     0.009 A 
ATOM     14  C   UNL d   1      29.376 -17.375  -0.555  0.00  0.00     0.037 A 
ENDBRANCH   7   8
ENDBRANCH   5   7
ENDBRANCH   1   5
BRANCH   3  15
ATOM     15  N   UNL d   1      22.924 -18.780   0.015  0.00  0.00    -0.249 N 
ATOM     16  C   UNL d   1      21.551 -18.702  -0.133  0.00  0.00     0.335 C 
ATOM     17  O   UNL d   1      21.036 -17.891  -0.888  0.00  0.00    -0.246 OA
ATOM     18  N   UNL d   1      20.832 -19.622   0.614  0.00  0.00    -0.338 N 
ATOM     19  H   UNL d   1      21.316 -20.224   1.263  0.00  0.00     0.164 HD
ATOM     20  H   UNL d   1      23.406 -19.417   0.642  0.00  0.00     0.192 HD
BRANCH  18  21
ATOM     21  C   UNL d   1      19.359 -19.692   0.552  0.00  0.00     0.078 C 
ATOM     22  C   UNL d   1      18.862 -19.708  -0.895  0.00  0.00     0.032 C 
ATOM     23  C   UNL d   1      18.787 -20.926   1.264  0.00  0.00     0.032 C 
ENDBRANCH  18  21
ENDBRANCH   3  15
TORSDOF 5
ENDMDL
MODEL 9
REMARK VINA RESULT:    -6.510      3.916      8.023
REMARK INTER + INTRA:          -9.280
REMARK INTER:                  -8.001
REMARK INTRA:                  -1.279
REMARK CONF_INDEPENDENT:        1.492
REMARK UNBOUND:                -1.279
REMARK  5 active torsions:
REMARK  status: ('A' for Active; 'I' for Inactive)
REMARK    1  A    between atoms: C_5  and  O_6 
REMARK    2  A    between atoms: C_7  and  O_6 
REMARK    3  A    between atoms: C_7  and  C_9 
REMARK       I    between atoms: C_9  and  N_11 
REMARK    4  A    between atoms: N_11  and  N_12 
REMARK       I    between atoms: N_12  and  C_13 
REMARK       I    between atoms: C_13  and  N_15 
REMARK    5  A    between atoms: N_15  and  C_16 
ROOT
ATOM      1  C   UNL d   1      25.984 -16.885   0.100  0.00  0.00     0.265 C 
ATOM      2  O   UNL d   1      26.368 -17.927   0.637  0.00  0.00    -0.269 OA
ATOM      3  N   UNL d   1      26.593 -15.675   0.394  0.00  0.00    -0.264 N 
ATOM      4  H   UNL d   1      26.326 -14.781  -0.015  0.00  0.00     0.190 HD
ENDROOT
BRANCH   1   5
ATOM      5  C   UNL d   1      24.851 -16.863  -0.977  0.00  0.00     0.218 C 
ATOM      6  C   UNL d   1      25.331 -16.087  -2.211  0.00  0.00     0.050 C 
BRANCH   5   7
ATOM      7  O   UNL d   1      24.240 -18.144  -1.237  0.00  0.00    -0.337 OA
BRANCH   7   8
ATOM      8  C   UNL d   1      23.022 -18.517  -0.736  0.00  0.00     0.070 A 
ATOM      9  C   UNL d   1      22.664 -18.575   0.606  0.00  0.00     0.037 A 
ATOM     10  C   UNL d   1      21.404 -18.933   1.051  0.00  0.00     0.009 A 
ATOM     11  C   UNL d   1      20.445 -19.332   0.147  0.00  0.00    -0.062 A 
ATOM     12  C   UNL d   1      19.112 -19.738   0.681  0.00  0.00     0.048 C 
ATOM     13  C   UNL d   1      20.780 -19.358  -1.212  0.00  0.00     0.009 A 
ATOM     14  C   UNL d   1      22.058 -18.949  -1.652  0.00  0.00     0.037 A 
ENDBRANCH   7   8
ENDBRANCH   5   7
ENDBRANCH   1   5
BRANCH   3  15
ATOM     15  N   UNL d   1      27.646 -15.646   1.366  0.00  0.00    -0.249 N 
ATOM     16  C   UNL d   1      27.775 -14.531   2.176  0.00  0.00     0.335 C 
ATOM     17  O   UNL d   1      27.042 -13.562   2.049  0.00  0.00    -0.246 OA
ATOM     18  N   UNL d   1      28.769 -14.624   3.138  0.00  0.00    -0.338 N 
ATOM     19  H   UNL d   1      29.378 -15.428   3.150  0.00  0.00     0.164 HD
ATOM     20  H   UNL d   1      28.239 -16.468   1.411  0.00  0.00     0.192 HD
BRANCH  18  21
ATOM     21  C   UNL d   1      29.021 -13.534   4.101  0.00  0.00     0.078 C 
ATOM     22  C   UNL d   1      27.736 -13.115   4.819  0.00  0.00     0.032 C 
ATOM     23  C   UNL d   1      30.061 -13.906   5.168  0.00  0.00     0.032 C 
ENDBRANCH  18  21
ENDBRANCH   3  15
TORSDOF 5
ENDMDL
