MODEL 1
REMARK VINA RESULT:    -9.424      0.000      0.000
REMARK INTER + INTRA:         -12.902
REMARK INTER:                 -11.810
REMARK INTRA:                  -1.092
REMARK CONF_INDEPENDENT:        2.386
REMARK UNBOUND:                -1.092
REMARK  8 active torsions:
REMARK  status: ('A' for Active; 'I' for Inactive)
REMARK    1  A    between atoms: N_2  and  C_4 
REMARK    2  A    between atoms: C_7  and  N_8 
REMARK       I    between atoms: N_8  and  C_9 
REMARK       I    between atoms: C_9  and  N_11 
REMARK    3  A    between atoms: N_11  and  C_12 
REMARK    4  A    between atoms: C_13  and  C_12 
REMARK    5  A    between atoms: C_17  and  C_18 
REMARK    6  A    between atoms: C_18  and  N_19 
REMARK       I    between atoms: N_19  and  C_20 
REMARK       I    between atoms: C_20  and  N_22 
REMARK    7  A    between atoms: N_22  and  C_23 
REMARK    8  A    between atoms: C_26  and  N_27 
ROOT
ATOM      1  C   UNL d   1      28.241 -14.366  -0.001  0.00  0.00     0.004 C 
ATOM      2  C   UNL d   1      28.724 -15.823   0.028  0.00  0.00     0.006 C 
ATOM      3  C   UNL d   1      27.609 -16.804   0.397  0.00  0.00     0.001 C 
ATOM      4  C   UNL d   1      26.443 -16.684  -0.559  0.00  0.00     0.006 C 
ATOM      5  C   UNL d   1      25.936 -15.235  -0.736  0.00  0.00     0.004 C 
ATOM      6  C   UNL d   1      27.079 -14.229  -0.988  0.00  0.00     0.012 C 
ENDROOT
BRANCH   1   7
ATOM      7  C   UNL d   1      27.836 -13.889   1.390  0.00  0.00     0.129 C 
BRANCH   7   8
ATOM      8  N   UNL d   1      28.563 -14.542   2.472  0.00  0.00    -0.342 N 
ATOM      9  C   UNL d   1      28.491 -13.948   3.709  0.00  0.00     0.320 C 
ATOM     10  N   UNL d   1      29.221 -14.559   4.713  0.00  0.00    -0.309 N 
ATOM     11  O   UNL d   1      27.805 -12.934   3.823  0.00  0.00    -0.247 OA
ATOM     12  H   UNL d   1      29.697 -15.424   4.505  0.00  0.00     0.170 HD
ATOM     13  H   UNL d   1      29.051 -15.410   2.316  0.00  0.00     0.164 HD
BRANCH  10  14
ATOM     14  C   UNL d   1      29.248 -14.100   6.068  0.00  0.00     0.036 A 
ATOM     15  C   UNL d   1      30.282 -14.449   6.945  0.00  0.00     0.032 A 
ATOM     16  C   UNL d   1      30.216 -14.084   8.317  0.00  0.00     0.031 A 
ATOM     17  C   UNL d   1      29.155 -13.328   8.840  0.00  0.00     0.029 A 
ATOM     18  C   UNL d   1      28.173 -12.946   7.935  0.00  0.00     0.031 A 
ATOM     19  C   UNL d   1      28.226 -13.311   6.589  0.00  0.00     0.032 A 
BRANCH  17  20
ATOM     20  N   UNL d   1      29.067 -12.979  10.179  0.00  0.00    -0.390 N 
ATOM     21  C   UNL d   1      27.781 -12.575  10.736  0.00  0.00     0.149 C 
ATOM     22  C   UNL d   1      30.282 -12.684  10.922  0.00  0.00     0.149 C 
ENDBRANCH  17  20
ENDBRANCH  10  14
ENDBRANCH   7   8
ENDBRANCH   1   7
BRANCH   5  23
ATOM     23  C   UNL d   1      24.960 -15.201  -1.918  0.00  0.00     0.129 C 
BRANCH  23  24
ATOM     24  N   UNL d   1      24.336 -16.514  -2.021  0.00  0.00    -0.342 N 
ATOM     25  C   UNL d   1      23.263 -16.872  -1.275  0.00  0.00     0.320 C 
ATOM     26  O   UNL d   1      22.569 -16.032  -0.698  0.00  0.00    -0.247 OA
ATOM     27  N   UNL d   1      23.076 -18.241  -1.244  0.00  0.00    -0.309 N 
ATOM     28  H   UNL d   1      23.853 -18.858  -1.434  0.00  0.00     0.170 HD
ATOM     29  H   UNL d   1      24.889 -17.275  -2.378  0.00  0.00     0.164 HD
BRANCH  27  30
ATOM     30  C   UNL d   1      21.909 -18.799  -0.707  0.00  0.00     0.036 A 
ATOM     31  C   UNL d   1      20.852 -19.219  -1.501  0.00  0.00     0.032 A 
ATOM     32  C   UNL d   1      19.683 -19.712  -0.890  0.00  0.00     0.031 A 
ATOM     33  C   UNL d   1      19.545 -19.851   0.507  0.00  0.00     0.029 A 
ATOM     34  C   UNL d   1      20.624 -19.368   1.257  0.00  0.00     0.031 A 
ATOM     35  C   UNL d   1      21.780 -18.863   0.670  0.00  0.00     0.032 A 
BRANCH  33  36
ATOM     36  N   UNL d   1      18.427 -20.409   1.109  0.00  0.00    -0.390 N 
ATOM     37  C   UNL d   1      17.697 -21.536   0.533  0.00  0.00     0.149 C 
ATOM     38  C   UNL d   1      18.026 -20.075   2.480  0.00  0.00     0.149 C 
ENDBRANCH  33  36
ENDBRANCH  27  30
ENDBRANCH  23  24
ENDBRANCH   5  23
TORSDOF 8
ENDMDL
MODEL 2
REMARK VINA RESULT:    -9.036      4.816      8.052
REMARK INTER + INTRA:         -12.449
REMARK INTER:                 -11.423
REMARK INTRA:                  -1.027
REMARK CONF_INDEPENDENT:        2.386
REMARK UNBOUND:                -1.027
REMARK  8 active torsions:
REMARK  status: ('A' for Active; 'I' for Inactive)
REMARK    1  A    between atoms: N_2  and  C_4 
REMARK    2  A    between atoms: C_7  and  N_8 
REMARK       I    between atoms: N_8  and  C_9 
REMARK       I    between atoms: C_9  and  N_11 
REMARK    3  A    between atoms: N_11  and  C_12 
REMARK    4  A    between atoms: C_13  and  C_12 
REMARK    5  A    between atoms: C_17  and  C_18 
REMARK    6  A    between atoms: C_18  and  N_19 
REMARK       I    between atoms: N_19  and  C_20 
REMARK       I    between atoms: C_20  and  N_22 
REMARK    7  A    between atoms: N_22  and  C_23 
REMARK    8  A    between atoms: C_26  and  N_27 
ROOT
ATOM      1  C   UNL d   1      27.314 -15.792  -0.667  0.00  0.00     0.004 C 
ATOM      2  C   UNL d   1      26.245 -16.892  -0.716  0.00  0.00     0.006 C 
ATOM      3  C   UNL d   1      24.842 -16.338  -0.971  0.00  0.00     0.001 C 
ATOM      4  C   UNL d   1      24.800 -15.542  -2.258  0.00  0.00     0.006 C 
ATOM      5  C   UNL d   1      25.901 -14.462  -2.353  0.00  0.00     0.004 C 
ATOM      6  C   UNL d   1      27.298 -14.999  -1.977  0.00  0.00     0.012 C 
ENDROOT
BRANCH   1   7
ATOM      7  C   UNL d   1      27.106 -14.871   0.532  0.00  0.00     0.129 C 
BRANCH   7   8
ATOM      8  N   UNL d   1      27.924 -15.216   1.689  0.00  0.00    -0.342 N 
ATOM      9  C   UNL d   1      27.759 -14.444   2.812  0.00  0.00     0.320 C 
ATOM     10  N   UNL d   1      28.574 -14.760   3.885  0.00  0.00    -0.309 N 
ATOM     11  O   UNL d   1      26.924 -13.542   2.775  0.00  0.00    -0.247 OA
ATOM     12  H   UNL d   1      29.178 -15.564   3.811  0.00  0.00     0.170 HD
ATOM     13  H   UNL d   1      28.541 -16.013   1.666  0.00  0.00     0.164 HD
BRANCH  10  14
ATOM     14  C   UNL d   1      28.526 -14.084   5.145  0.00  0.00     0.036 A 
ATOM     15  C   UNL d   1      27.780 -12.913   5.327  0.00  0.00     0.032 A 
ATOM     16  C   UNL d   1      27.854 -12.196   6.552  0.00  0.00     0.031 A 
ATOM     17  C   UNL d   1      28.626 -12.643   7.635  0.00  0.00     0.029 A 
ATOM     18  C   UNL d   1      29.309 -13.838   7.447  0.00  0.00     0.031 A 
ATOM     19  C   UNL d   1      29.250 -14.541   6.244  0.00  0.00     0.032 A 
BRANCH  17  20
ATOM     20  N   UNL d   1      28.722 -11.945   8.830  0.00  0.00    -0.390 N 
ATOM     21  C   UNL d   1      29.387 -10.647   8.855  0.00  0.00     0.149 C 
ATOM     22  C   UNL d   1      28.482 -12.639  10.085  0.00  0.00     0.149 C 
ENDBRANCH  17  20
ENDBRANCH  10  14
ENDBRANCH   7   8
ENDBRANCH   1   7
BRANCH   5  23
ATOM     23  C   UNL d   1      25.933 -13.925  -3.788  0.00  0.00     0.129 C 
BRANCH  23  24
ATOM     24  N   UNL d   1      27.327 -13.834  -4.203  0.00  0.00    -0.342 N 
ATOM     25  C   UNL d   1      27.916 -14.768  -4.987  0.00  0.00     0.320 C 
ATOM     26  O   UNL d   1      27.252 -15.575  -5.641  0.00  0.00    -0.247 OA
ATOM     27  N   UNL d   1      29.297 -14.700  -4.940  0.00  0.00    -0.309 N 
ATOM     28  H   UNL d   1      29.752 -14.270  -4.148  0.00  0.00     0.170 HD
ATOM     29  H   UNL d   1      27.953 -13.280  -3.641  0.00  0.00     0.164 HD
BRANCH  27  30
ATOM     30  C   UNL d   1      30.087 -15.433  -5.835  0.00  0.00     0.036 A 
ATOM     31  C   UNL d   1      30.862 -14.826  -6.812  0.00  0.00     0.032 A 
ATOM     32  C   UNL d   1      31.583 -15.628  -7.718  0.00  0.00     0.031 A 
ATOM     33  C   UNL d   1      31.598 -17.037  -7.655  0.00  0.00     0.029 A 
ATOM     34  C   UNL d   1      30.760 -17.592  -6.679  0.00  0.00     0.031 A 
ATOM     35  C   UNL d   1      30.030 -16.815  -5.786  0.00  0.00     0.032 A 
BRANCH  33  36
ATOM     36  N   UNL d   1      32.367 -17.828  -8.495  0.00  0.00    -0.390 N 
ATOM     37  C   UNL d   1      32.038 -19.221  -8.790  0.00  0.00     0.149 C 
ATOM     38  C   UNL d   1      33.431 -17.275  -9.338  0.00  0.00     0.149 C 
ENDBRANCH  33  36
ENDBRANCH  27  30
ENDBRANCH  23  24
ENDBRANCH   5  23
TORSDOF 8
ENDMDL
MODEL 3
REMARK VINA RESULT:    -8.977      3.721     11.098
REMARK INTER + INTRA:         -12.493
REMARK INTER:                 -11.363
REMARK INTRA:                  -1.130
REMARK CONF_INDEPENDENT:        2.386
REMARK UNBOUND:                -1.130
REMARK  8 active torsions:
REMARK  status: ('A' for Active; 'I' for Inactive)
REMARK    1  A    between atoms: N_2  and  C_4 
REMARK    2  A    between atoms: C_7  and  N_8 
REMARK       I    between atoms: N_8  and  C_9 
REMARK       I    between atoms: C_9  and  N_11 
REMARK    3  A    between atoms: N_11  and  C_12 
REMARK    4  A    between atoms: C_13  and  C_12 
REMARK    5  A    between atoms: C_17  and  C_18 
REMARK    6  A    between atoms: C_18  and  N_19 
REMARK       I    between atoms: N_19  and  C_20 
REMARK       I    between atoms: C_20  and  N_22 
REMARK    7  A    between atoms: N_22  and  C_23 
REMARK    8  A    between atoms: C_26  and  N_27 
ROOT
ATOM      1  C   UNL d   1      24.896 -16.296  -1.000  0.00  0.00     0.004 C 
ATOM      2  C   UNL d   1      25.045 -17.572  -0.160  0.00  0.00     0.006 C 
ATOM      3  C   UNL d   1      26.484 -18.089  -0.125  0.00  0.00     0.001 C 
ATOM      4  C   UNL d   1      27.427 -17.029   0.405  0.00  0.00     0.006 C 
ATOM      5  C   UNL d   1      27.292 -15.668  -0.313  0.00  0.00     0.004 C 
ATOM      6  C   UNL d   1      25.826 -15.209  -0.453  0.00  0.00     0.012 C 
ENDROOT
BRANCH   1   7
ATOM      7  C   UNL d   1      25.180 -16.567  -2.474  0.00  0.00     0.129 C 
BRANCH   7   8
ATOM      8  N   UNL d   1      26.069 -15.591  -3.093  0.00  0.00    -0.342 N 
ATOM      9  C   UNL d   1      25.519 -14.375  -3.416  0.00  0.00     0.320 C 
ATOM     10  N   UNL d   1      26.367 -13.478  -4.041  0.00  0.00    -0.309 N 
ATOM     11  O   UNL d   1      24.336 -14.186  -3.141  0.00  0.00    -0.247 OA
ATOM     12  H   UNL d   1      27.337 -13.732  -4.156  0.00  0.00     0.170 HD
ATOM     13  H   UNL d   1      27.047 -15.796  -3.227  0.00  0.00     0.164 HD
BRANCH  10  14
ATOM     14  C   UNL d   1      25.981 -12.156  -4.428  0.00  0.00     0.036 A 
ATOM     15  C   UNL d   1      25.801 -11.804  -5.771  0.00  0.00     0.032 A 
ATOM     16  C   UNL d   1      25.542 -10.454  -6.133  0.00  0.00     0.031 A 
ATOM     17  C   UNL d   1      25.408  -9.436  -5.175  0.00  0.00     0.029 A 
ATOM     18  C   UNL d   1      25.534  -9.825  -3.848  0.00  0.00     0.031 A 
ATOM     19  C   UNL d   1      25.799 -11.146  -3.487  0.00  0.00     0.032 A 
BRANCH  17  20
ATOM     20  N   UNL d   1      25.173  -8.111  -5.513  0.00  0.00    -0.390 N 
ATOM     21  C   UNL d   1      23.834  -7.699  -5.920  0.00  0.00     0.149 C 
ATOM     22  C   UNL d   1      26.297  -7.234  -5.795  0.00  0.00     0.149 C 
ENDBRANCH  17  20
ENDBRANCH  10  14
ENDBRANCH   7   8
ENDBRANCH   1   7
BRANCH   5  23
ATOM     23  C   UNL d   1      28.079 -14.619   0.482  0.00  0.00     0.129 C 
BRANCH  23  24
ATOM     24  N   UNL d   1      28.155 -15.069   1.865  0.00  0.00    -0.342 N 
ATOM     25  C   UNL d   1      28.312 -14.212   2.903  0.00  0.00     0.320 C 
ATOM     26  O   UNL d   1      28.095 -13.004   2.781  0.00  0.00    -0.247 OA
ATOM     27  N   UNL d   1      28.739 -14.849   4.053  0.00  0.00    -0.309 N 
ATOM     28  H   UNL d   1      29.217 -15.736   3.987  0.00  0.00     0.170 HD
ATOM     29  H   UNL d   1      28.441 -16.018   2.039  0.00  0.00     0.164 HD
BRANCH  27  30
ATOM     30  C   UNL d   1      28.757 -14.182   5.285  0.00  0.00     0.036 A 
ATOM     31  C   UNL d   1      27.768 -13.286   5.659  0.00  0.00     0.032 A 
ATOM     32  C   UNL d   1      27.882 -12.604   6.886  0.00  0.00     0.031 A 
ATOM     33  C   UNL d   1      28.941 -12.822   7.791  0.00  0.00     0.029 A 
ATOM     34  C   UNL d   1      29.933 -13.701   7.337  0.00  0.00     0.031 A 
ATOM     35  C   UNL d   1      29.843 -14.371   6.122  0.00  0.00     0.032 A 
BRANCH  33  36
ATOM     36  N   UNL d   1      29.019 -12.211   9.034  0.00  0.00    -0.390 N 
ATOM     37  C   UNL d   1      29.818 -11.012   9.278  0.00  0.00     0.149 C 
ATOM     38  C   UNL d   1      28.128 -12.572  10.142  0.00  0.00     0.149 C 
ENDBRANCH  33  36
ENDBRANCH  27  30
ENDBRANCH  23  24
ENDBRANCH   5  23
TORSDOF 8
ENDMDL
MODEL 4
REMARK VINA RESULT:    -8.515      4.431      7.638
REMARK INTER + INTRA:         -11.933
REMARK INTER:                 -10.901
REMARK INTRA:                  -1.032
REMARK CONF_INDEPENDENT:        2.386
REMARK UNBOUND:                -1.032
REMARK  8 active torsions:
REMARK  status: ('A' for Active; 'I' for Inactive)
REMARK    1  A    between atoms: N_2  and  C_4 
REMARK    2  A    between atoms: C_7  and  N_8 
REMARK       I    between atoms: N_8  and  C_9 
REMARK       I    between atoms: C_9  and  N_11 
REMARK    3  A    between atoms: N_11  and  C_12 
REMARK    4  A    between atoms: C_13  and  C_12 
REMARK    5  A    between atoms: C_17  and  C_18 
REMARK    6  A    between atoms: C_18  and  N_19 
REMARK       I    between atoms: N_19  and  C_20 
REMARK       I    between atoms: C_20  and  N_22 
REMARK    7  A    between atoms: N_22  and  C_23 
REMARK    8  A    between atoms: C_26  and  N_27 
ROOT
ATOM      1  C   UNL d   1      27.318 -16.640  -0.576  0.00  0.00     0.004 C 
ATOM      2  C   UNL d   1      26.084 -17.474  -0.208  0.00  0.00     0.006 C 
ATOM      3  C   UNL d   1      24.772 -16.761  -0.542  0.00  0.00     0.001 C 
ATOM      4  C   UNL d   1      24.710 -16.398  -2.010  0.00  0.00     0.006 C 
ATOM      5  C   UNL d   1      25.956 -15.633  -2.510  0.00  0.00     0.004 C 
ATOM      6  C   UNL d   1      27.279 -16.292  -2.067  0.00  0.00     0.012 C 
ENDROOT
BRANCH   1   7
ATOM      7  C   UNL d   1      27.409 -15.379   0.277  0.00  0.00     0.129 C 
BRANCH   7   8
ATOM      8  N   UNL d   1      28.331 -15.492   1.401  0.00  0.00    -0.342 N 
ATOM      9  C   UNL d   1      28.046 -14.736   2.511  0.00  0.00     0.320 C 
ATOM     10  N   UNL d   1      28.955 -14.825   3.550  0.00  0.00    -0.309 N 
ATOM     11  O   UNL d   1      27.030 -14.044   2.491  0.00  0.00    -0.247 OA
ATOM     12  H   UNL d   1      29.720 -15.478   3.467  0.00  0.00     0.170 HD
ATOM     13  H   UNL d   1      29.109 -16.133   1.368  0.00  0.00     0.164 HD
BRANCH  10  14
ATOM     14  C   UNL d   1      28.811 -14.131   4.793  0.00  0.00     0.036 A 
ATOM     15  C   UNL d   1      27.929 -13.054   4.940  0.00  0.00     0.032 A 
ATOM     16  C   UNL d   1      27.902 -12.305   6.148  0.00  0.00     0.031 A 
ATOM     17  C   UNL d   1      28.707 -12.634   7.250  0.00  0.00     0.029 A 
ATOM     18  C   UNL d   1      29.530 -13.742   7.097  0.00  0.00     0.031 A 
ATOM     19  C   UNL d   1      29.570 -14.474   5.910  0.00  0.00     0.032 A 
BRANCH  17  20
ATOM     20  N   UNL d   1      28.704 -11.903   8.429  0.00  0.00    -0.390 N 
ATOM     21  C   UNL d   1      28.157 -12.497   9.643  0.00  0.00     0.149 C 
ATOM     22  C   UNL d   1      28.915 -10.465   8.379  0.00  0.00     0.149 C 
ENDBRANCH  17  20
ENDBRANCH  10  14
ENDBRANCH   7   8
ENDBRANCH   1   7
BRANCH   5  23
ATOM     23  C   UNL d   1      25.907 -15.571  -4.041  0.00  0.00     0.129 C 
BRANCH  23  24
ATOM     24  N   UNL d   1      26.472 -14.294  -4.456  0.00  0.00    -0.342 N 
ATOM     25  C   UNL d   1      25.782 -13.131  -4.378  0.00  0.00     0.320 C 
ATOM     26  O   UNL d   1      24.769 -13.027  -3.682  0.00  0.00    -0.247 OA
ATOM     27  N   UNL d   1      26.337 -12.135  -5.160  0.00  0.00    -0.309 N 
ATOM     28  H   UNL d   1      26.927 -12.381  -5.942  0.00  0.00     0.170 HD
ATOM     29  H   UNL d   1      27.231 -14.305  -5.118  0.00  0.00     0.164 HD
BRANCH  27  30
ATOM     30  C   UNL d   1      25.901 -10.807  -5.056  0.00  0.00     0.036 A 
ATOM     31  C   UNL d   1      25.875 -10.127  -3.848  0.00  0.00     0.032 A 
ATOM     32  C   UNL d   1      25.366  -8.814  -3.807  0.00  0.00     0.031 A 
ATOM     33  C   UNL d   1      24.919  -8.126  -4.954  0.00  0.00     0.029 A 
ATOM     34  C   UNL d   1      24.925  -8.880  -6.134  0.00  0.00     0.031 A 
ATOM     35  C   UNL d   1      25.410 -10.182  -6.189  0.00  0.00     0.032 A 
BRANCH  33  36
ATOM     36  N   UNL d   1      24.489  -6.808  -4.931  0.00  0.00    -0.390 N 
ATOM     37  C   UNL d   1      23.518  -6.275  -5.885  0.00  0.00     0.149 C 
ATOM     38  C   UNL d   1      24.787  -5.904  -3.816  0.00  0.00     0.149 C 
ENDBRANCH  33  36
ENDBRANCH  27  30
ENDBRANCH  23  24
ENDBRANCH   5  23
TORSDOF 8
ENDMDL
MODEL 5
REMARK VINA RESULT:    -8.339      6.296      9.290
REMARK INTER + INTRA:         -11.919
REMARK INTER:                 -10.726
REMARK INTRA:                  -1.193
REMARK CONF_INDEPENDENT:        2.386
REMARK UNBOUND:                -1.193
REMARK  8 active torsions:
REMARK  status: ('A' for Active; 'I' for Inactive)
REMARK    1  A    between atoms: N_2  and  C_4 
REMARK    2  A    between atoms: C_7  and  N_8 
REMARK       I    between atoms: N_8  and  C_9 
REMARK       I    between atoms: C_9  and  N_11 
REMARK    3  A    between atoms: N_11  and  C_12 
REMARK    4  A    between atoms: C_13  and  C_12 
REMARK    5  A    between atoms: C_17  and  C_18 
REMARK    6  A    between atoms: C_18  and  N_19 
REMARK       I    between atoms: N_19  and  C_20 
REMARK       I    between atoms: C_20  and  N_22 
REMARK    7  A    between atoms: N_22  and  C_23 
REMARK    8  A    between atoms: C_26  and  N_27 
ROOT
ATOM      1  C   UNL d   1      28.529 -12.487  -5.875  0.00  0.00     0.004 C 
ATOM      2  C   UNL d   1      27.441 -11.410  -5.770  0.00  0.00     0.006 C 
ATOM      3  C   UNL d   1      26.134 -11.950  -5.186  0.00  0.00     0.001 C 
ATOM      4  C   UNL d   1      26.364 -12.564  -3.821  0.00  0.00     0.006 C 
ATOM      5  C   UNL d   1      27.510 -13.600  -3.795  0.00  0.00     0.004 C 
ATOM      6  C   UNL d   1      28.789 -13.094  -4.494  0.00  0.00     0.012 C 
ENDROOT
BRANCH   1   7
ATOM      7  C   UNL d   1      28.145 -13.566  -6.883  0.00  0.00     0.129 C 
BRANCH   7   8
ATOM      8  N   UNL d   1      29.238 -14.469  -7.224  0.00  0.00    -0.342 N 
ATOM      9  C   UNL d   1      29.349 -15.612  -6.471  0.00  0.00     0.320 C 
ATOM     10  N   UNL d   1      30.417 -16.436  -6.782  0.00  0.00    -0.309 N 
ATOM     11  O   UNL d   1      28.514 -15.806  -5.590  0.00  0.00    -0.247 OA
ATOM     12  H   UNL d   1      30.998 -16.195  -7.571  0.00  0.00     0.170 HD
ATOM     13  H   UNL d   1      29.844 -14.274  -8.005  0.00  0.00     0.164 HD
BRANCH  10  14
ATOM     14  C   UNL d   1      30.679 -17.680  -6.125  0.00  0.00     0.036 A 
ATOM     15  C   UNL d   1      30.548 -18.906  -6.787  0.00  0.00     0.032 A 
ATOM     16  C   UNL d   1      30.692 -20.128  -6.074  0.00  0.00     0.031 A 
ATOM     17  C   UNL d   1      31.013 -20.164  -4.708  0.00  0.00     0.029 A 
ATOM     18  C   UNL d   1      31.194 -18.933  -4.091  0.00  0.00     0.031 A 
ATOM     19  C   UNL d   1      31.044 -17.730  -4.782  0.00  0.00     0.032 A 
BRANCH  17  20
ATOM     20  N   UNL d   1      31.139 -21.347  -3.996  0.00  0.00    -0.390 N 
ATOM     21  C   UNL d   1      31.160 -21.310  -2.537  0.00  0.00     0.149 C 
ATOM     22  C   UNL d   1      31.591 -22.548  -4.678  0.00  0.00     0.149 C 
ENDBRANCH  17  20
ENDBRANCH  10  14
ENDBRANCH   7   8
ENDBRANCH   1   7
BRANCH   5  23
ATOM     23  C   UNL d   1      27.828 -13.936  -2.333  0.00  0.00     0.129 C 
BRANCH  23  24
ATOM     24  N   UNL d   1      27.305 -15.267  -2.054  0.00  0.00    -0.342 N 
ATOM     25  C   UNL d   1      26.011 -15.486  -1.720  0.00  0.00     0.320 C 
ATOM     26  O   UNL d   1      25.139 -14.639  -1.925  0.00  0.00    -0.247 OA
ATOM     27  N   UNL d   1      25.820 -16.724  -1.135  0.00  0.00    -0.309 N 
ATOM     28  H   UNL d   1      26.597 -17.196  -0.694  0.00  0.00     0.170 HD
ATOM     29  H   UNL d   1      27.955 -15.980  -1.767  0.00  0.00     0.164 HD
BRANCH  27  30
ATOM     30  C   UNL d   1      24.532 -17.227  -0.912  0.00  0.00     0.036 A 
ATOM     31  C   UNL d   1      23.419 -16.405  -0.819  0.00  0.00     0.032 A 
ATOM     32  C   UNL d   1      22.163 -16.974  -0.531  0.00  0.00     0.031 A 
ATOM     33  C   UNL d   1      21.964 -18.361  -0.378  0.00  0.00     0.029 A 
ATOM     34  C   UNL d   1      23.131 -19.134  -0.435  0.00  0.00     0.031 A 
ATOM     35  C   UNL d   1      24.381 -18.587  -0.704  0.00  0.00     0.032 A 
BRANCH  33  36
ATOM     36  N   UNL d   1      20.718 -18.933  -0.172  0.00  0.00    -0.390 N 
ATOM     37  C   UNL d   1      19.872 -19.404  -1.266  0.00  0.00     0.149 C 
ATOM     38  C   UNL d   1      20.246 -19.329   1.159  0.00  0.00     0.149 C 
ENDBRANCH  33  36
ENDBRANCH  27  30
ENDBRANCH  23  24
ENDBRANCH   5  23
TORSDOF 8
ENDMDL
MODEL 6
REMARK VINA RESULT:    -7.425      5.905     11.691
REMARK INTER + INTRA:         -13.257
REMARK INTER:                  -9.811
REMARK INTRA:                  -3.446
REMARK CONF_INDEPENDENT:        2.386
REMARK UNBOUND:                -3.446
REMARK  8 active torsions:
REMARK  status: ('A' for Active; 'I' for Inactive)
REMARK    1  A    between atoms: N_2  and  C_4 
REMARK    2  A    between atoms: C_7  and  N_8 
REMARK       I    between atoms: N_8  and  C_9 
REMARK       I    between atoms: C_9  and  N_11 
REMARK    3  A    between atoms: N_11  and  C_12 
REMARK    4  A    between atoms: C_13  and  C_12 
REMARK    5  A    between atoms: C_17  and  C_18 
REMARK    6  A    between atoms: C_18  and  N_19 
REMARK       I    between atoms: N_19  and  C_20 
REMARK       I    between atoms: C_20  and  N_22 
REMARK    7  A    between atoms: N_22  and  C_23 
REMARK    8  A    between atoms: C_26  and  N_27 
ROOT
ATOM      1  C   UNL d   1      24.388 -15.950  -0.849  0.00  0.00     0.004 C 
ATOM      2  C   UNL d   1      23.727 -17.144  -0.145  0.00  0.00     0.006 C 
ATOM      3  C   UNL d   1      24.566 -18.420  -0.240  0.00  0.00     0.001 C 
ATOM      4  C   UNL d   1      25.949 -18.203   0.334  0.00  0.00     0.006 C 
ATOM      5  C   UNL d   1      26.670 -16.964  -0.240  0.00  0.00     0.004 C 
ATOM      6  C   UNL d   1      25.777 -15.706  -0.253  0.00  0.00     0.012 C 
ENDROOT
BRANCH   1   7
ATOM      7  C   UNL d   1      24.470 -16.172  -2.356  0.00  0.00     0.129 C 
BRANCH   7   8
ATOM      8  N   UNL d   1      25.826 -16.113  -2.887  0.00  0.00    -0.342 N 
ATOM      9  C   UNL d   1      26.051 -15.215  -3.902  0.00  0.00     0.320 C 
ATOM     10  N   UNL d   1      27.334 -15.203  -4.422  0.00  0.00    -0.309 N 
ATOM     11  O   UNL d   1      25.112 -14.513  -4.270  0.00  0.00    -0.247 OA
ATOM     12  H   UNL d   1      28.034 -15.788  -3.991  0.00  0.00     0.170 HD
ATOM     13  H   UNL d   1      26.562 -16.675  -2.489  0.00  0.00     0.164 HD
BRANCH  10  14
ATOM     14  C   UNL d   1      27.761 -14.320  -5.463  0.00  0.00     0.036 A 
ATOM     15  C   UNL d   1      27.362 -12.978  -5.503  0.00  0.00     0.032 A 
ATOM     16  C   UNL d   1      27.699 -12.160  -6.616  0.00  0.00     0.031 A 
ATOM     17  C   UNL d   1      28.474 -12.634  -7.685  0.00  0.00     0.029 A 
ATOM     18  C   UNL d   1      28.905 -13.952  -7.591  0.00  0.00     0.031 A 
ATOM     19  C   UNL d   1      28.569 -14.763  -6.507  0.00  0.00     0.032 A 
BRANCH  17  20
ATOM     20  N   UNL d   1      28.796 -11.854  -8.786  0.00  0.00    -0.390 N 
ATOM     21  C   UNL d   1      27.806 -10.927  -9.325  0.00  0.00     0.149 C 
ATOM     22  C   UNL d   1      29.953 -12.200  -9.595  0.00  0.00     0.149 C 
ENDBRANCH  17  20
ENDBRANCH  10  14
ENDBRANCH   7   8
ENDBRANCH   1   7
BRANCH   5  23
ATOM     23  C   UNL d   1      27.919 -16.692   0.606  0.00  0.00     0.129 C 
BRANCH  23  24
ATOM     24  N   UNL d   1      29.084 -17.099  -0.169  0.00  0.00    -0.342 N 
ATOM     25  C   UNL d   1      29.183 -16.885  -1.503  0.00  0.00     0.320 C 
ATOM     26  O   UNL d   1      28.454 -16.077  -2.083  0.00  0.00    -0.247 OA
ATOM     27  N   UNL d   1      30.158 -17.669  -2.092  0.00  0.00    -0.309 N 
ATOM     28  H   UNL d   1      30.454 -18.523  -1.641  0.00  0.00     0.170 HD
ATOM     29  H   UNL d   1      29.660 -17.840   0.196  0.00  0.00     0.164 HD
BRANCH  27  30
ATOM     30  C   UNL d   1      30.561 -17.448  -3.415  0.00  0.00     0.036 A 
ATOM     31  C   UNL d   1      31.040 -16.222  -3.851  0.00  0.00     0.032 A 
ATOM     32  C   UNL d   1      31.369 -16.053  -5.209  0.00  0.00     0.031 A 
ATOM     33  C   UNL d   1      31.283 -17.094  -6.157  0.00  0.00     0.029 A 
ATOM     34  C   UNL d   1      30.749 -18.294  -5.668  0.00  0.00     0.031 A 
ATOM     35  C   UNL d   1      30.405 -18.472  -4.333  0.00  0.00     0.032 A 
BRANCH  33  36
ATOM     36  N   UNL d   1      31.679 -16.956  -7.479  0.00  0.00    -0.390 N 
ATOM     37  C   UNL d   1      32.184 -15.698  -8.026  0.00  0.00     0.149 C 
ATOM     38  C   UNL d   1      31.848 -18.106  -8.373  0.00  0.00     0.149 C 
ENDBRANCH  33  36
ENDBRANCH  27  30
ENDBRANCH  23  24
ENDBRANCH   5  23
TORSDOF 8
ENDMDL
