MODEL 1
REMARK VINA RESULT:    -8.749      0.000      0.000
REMARK INTER + INTRA:         -12.840
REMARK INTER:                 -10.837
REMARK INTRA:                  -2.002
REMARK CONF_INDEPENDENT:        2.088
REMARK UNBOUND:                -2.002
REMARK  7 active torsions:
REMARK  status: ('A' for Active; 'I' for Inactive)
REMARK    1  A    between atoms: C_8  and  N_9 
REMARK       I    between atoms: N_9  and  C_10 
REMARK    2  A    between atoms: C_10  and  C_12 
REMARK    3  A    between atoms: C_12  and  C_13 
REMARK    4  A    between atoms: C_13  and  C_14 
REMARK    5  A    between atoms: C_16  and  C_17 
REMARK    6  A    between atoms: C_17  and  S_18 
REMARK    7  A    between atoms: S_18  and  C_19 
ROOT
ATOM      1  C   UNL d   1      25.487 -15.483  -3.014  0.00  0.00     0.173 A 
ATOM      2  N   UNL d   1      25.638 -16.680  -2.507  0.00  0.00    -0.208 NA
ATOM      3  C   UNL d   1      24.584 -16.758  -1.654  0.00  0.00     0.165 A 
ATOM      4  N   UNL d   1      23.773 -15.695  -1.645  0.00  0.00    -0.110 NA
ATOM      5  O   UNL d   1      24.391 -14.824  -2.554  0.00  0.00    -0.196 OA
ENDROOT
BRANCH   1   6
ATOM      6  C   UNL d   1      26.363 -14.832  -3.981  0.00  0.00     0.098 C 
BRANCH   6   7
ATOM      7  C   UNL d   1      26.723 -13.353  -3.693  0.00  0.00     0.111 C 
BRANCH   7   8
ATOM      8  C   UNL d   1      27.265 -13.361  -2.290  0.00  0.00     0.222 C 
ATOM      9  N   UNL d   1      26.489 -13.780  -1.232  0.00  0.00    -0.327 N 
ATOM     10  H   UNL d   1      25.550 -14.105  -1.441  0.00  0.00     0.169 HD
ATOM     11  O   UNL d   1      28.429 -12.971  -2.229  0.00  0.00    -0.273 OA
BRANCH   9  12
ATOM     12  C   UNL d   1      26.863 -13.813   0.169  0.00  0.00     0.040 A 
ATOM     13  C   UNL d   1      26.667 -12.636   0.928  0.00  0.00     0.032 A 
ATOM     14  C   UNL d   1      27.016 -12.568   2.297  0.00  0.00     0.026 A 
ATOM     15  C   UNL d   1      27.578 -13.665   2.933  0.00  0.00     0.034 A 
ATOM     16  C   UNL d   1      27.780 -14.825   2.217  0.00  0.00     0.032 A 
ATOM     17 CL   UNL d   1      28.019 -13.627   4.592  0.00  0.00    -0.084 Cl
ATOM     18  C   UNL d   1      27.418 -14.919   0.860  0.00  0.00    -0.034 A 
ATOM     19  C   UNL d   1      27.674 -16.279   0.300  0.00  0.00     0.050 C 
ENDBRANCH   9  12
ENDBRANCH   7   8
ENDBRANCH   6   7
ENDBRANCH   1   6
BRANCH   3  20
ATOM     20  C   UNL d   1      24.335 -17.966  -0.834  0.00  0.00     0.160 C 
BRANCH  20  21
ATOM     21  S   UNL d   1      22.985 -19.018  -1.580  0.00  0.00    -0.115 SA
BRANCH  21  22
ATOM     22  C   UNL d   1      21.524 -18.462  -0.693  0.00  0.00     0.247 A 
ATOM     23  N   UNL d   1      20.247 -19.019  -1.191  0.00  0.00    -0.359 N 
ATOM     24  C   UNL d   1      19.658 -19.661  -0.264  0.00  0.00     0.057 A 
ATOM     25  H   UNL d   1      19.901 -18.999  -2.150  0.00  0.00     0.162 HD
ATOM     26  C   UNL d   1      18.442 -20.450  -0.337  0.00  0.00     0.031 A 
ATOM     27  C   UNL d   1      20.426 -19.524   1.006  0.00  0.00     0.057 A 
ATOM     28  C   UNL d   1      18.045 -20.991   0.823  0.00  0.00     0.002 A 
ATOM     29  C   UNL d   1      18.754 -20.822   2.082  0.00  0.00     0.002 A 
ATOM     30  C   UNL d   1      19.901 -20.133   2.227  0.00  0.00     0.031 A 
ATOM     31  N   UNL d   1      21.478 -18.833   0.770  0.00  0.00    -0.359 N 
ATOM     32  H   UNL d   1      22.178 -18.591   1.477  0.00  0.00     0.162 HD
ENDBRANCH  21  22
ENDBRANCH  20  21
ENDBRANCH   3  20
TORSDOF 7
ENDMDL
MODEL 2
REMARK VINA RESULT:    -8.055      5.506      9.043
REMARK INTER + INTRA:         -12.629
REMARK INTER:                 -10.143
REMARK INTRA:                  -2.486
REMARK CONF_INDEPENDENT:        2.088
REMARK UNBOUND:                -2.486
REMARK  7 active torsions:
REMARK  status: ('A' for Active; 'I' for Inactive)
REMARK    1  A    between atoms: C_8  and  N_9 
REMARK       I    between atoms: N_9  and  C_10 
REMARK    2  A    between atoms: C_10  and  C_12 
REMARK    3  A    between atoms: C_12  and  C_13 
REMARK    4  A    between atoms: C_13  and  C_14 
REMARK    5  A    between atoms: C_16  and  C_17 
REMARK    6  A    between atoms: C_17  and  S_18 
REMARK    7  A    between atoms: S_18  and  C_19 
ROOT
ATOM      1  C   UNL d   1      28.845 -15.227  -4.688  0.00  0.00     0.173 A 
ATOM      2  N   UNL d   1      30.011 -14.754  -5.048  0.00  0.00    -0.208 NA
ATOM      3  C   UNL d   1      29.919 -14.779  -6.403  0.00  0.00     0.165 A 
ATOM      4  N   UNL d   1      28.745 -15.197  -6.890  0.00  0.00    -0.110 NA
ATOM      5  O   UNL d   1      28.023 -15.515  -5.732  0.00  0.00    -0.196 OA
ENDROOT
BRANCH   1   6
ATOM      6  C   UNL d   1      28.386 -15.462  -3.325  0.00  0.00     0.098 C 
BRANCH   6   7
ATOM      7  C   UNL d   1      27.299 -14.495  -2.792  0.00  0.00     0.111 C 
BRANCH   7   8
ATOM      8  C   UNL d   1      26.102 -15.370  -2.539  0.00  0.00     0.222 C 
ATOM      9  N   UNL d   1      25.817 -15.835  -1.274  0.00  0.00    -0.327 N 
ATOM     10  H   UNL d   1      26.432 -15.544  -0.520  0.00  0.00     0.169 HD
ATOM     11  O   UNL d   1      25.452 -15.591  -3.559  0.00  0.00    -0.273 OA
BRANCH   9  12
ATOM     12  C   UNL d   1      24.725 -16.706  -0.886  0.00  0.00     0.040 A 
ATOM     13  C   UNL d   1      23.414 -16.312  -1.243  0.00  0.00     0.032 A 
ATOM     14  C   UNL d   1      22.284 -17.088  -0.894  0.00  0.00     0.026 A 
ATOM     15  C   UNL d   1      22.436 -18.264  -0.174  0.00  0.00     0.034 A 
ATOM     16  C   UNL d   1      23.702 -18.671   0.187  0.00  0.00     0.032 A 
ATOM     17 CL   UNL d   1      21.093 -19.237   0.272  0.00  0.00    -0.084 Cl
ATOM     18  C   UNL d   1      24.840 -17.924  -0.170  0.00  0.00    -0.034 A 
ATOM     19  C   UNL d   1      26.107 -18.577   0.273  0.00  0.00     0.050 C 
ENDBRANCH   9  12
ENDBRANCH   7   8
ENDBRANCH   6   7
ENDBRANCH   1   6
BRANCH   3  20
ATOM     20  C   UNL d   1      31.031 -14.321  -7.267  0.00  0.00     0.160 C 
BRANCH  20  21
ATOM     21  S   UNL d   1      32.229 -15.711  -7.612  0.00  0.00    -0.115 SA
BRANCH  21  22
ATOM     22  C   UNL d   1      31.148 -17.144  -7.693  0.00  0.00     0.247 A 
ATOM     23  N   UNL d   1      31.834 -18.423  -7.983  0.00  0.00    -0.359 N 
ATOM     24  C   UNL d   1      31.634 -19.251  -7.037  0.00  0.00     0.057 A 
ATOM     25  H   UNL d   1      32.463 -18.620  -8.760  0.00  0.00     0.162 HD
ATOM     26  C   UNL d   1      32.200 -20.575  -6.856  0.00  0.00     0.031 A 
ATOM     27  C   UNL d   1      30.698 -18.658  -6.042  0.00  0.00     0.057 A 
ATOM     28  C   UNL d   1      31.775 -21.230  -5.766  0.00  0.00     0.002 A 
ATOM     29  C   UNL d   1      30.820 -20.686  -4.814  0.00  0.00     0.002 A 
ATOM     30  C   UNL d   1      30.275 -19.459  -4.894  0.00  0.00     0.031 A 
ATOM     31  N   UNL d   1      30.408 -17.468  -6.417  0.00  0.00    -0.359 N 
ATOM     32  H   UNL d   1      29.780 -16.840  -5.908  0.00  0.00     0.162 HD
ENDBRANCH  21  22
ENDBRANCH  20  21
ENDBRANCH   3  20
TORSDOF 7
ENDMDL
MODEL 3
REMARK VINA RESULT:    -8.001      4.354      8.773
REMARK INTER + INTRA:         -12.867
REMARK INTER:                 -10.090
REMARK INTRA:                  -2.778
REMARK CONF_INDEPENDENT:        2.088
REMARK UNBOUND:                -2.778
REMARK  7 active torsions:
REMARK  status: ('A' for Active; 'I' for Inactive)
REMARK    1  A    between atoms: C_8  and  N_9 
REMARK       I    between atoms: N_9  and  C_10 
REMARK    2  A    between atoms: C_10  and  C_12 
REMARK    3  A    between atoms: C_12  and  C_13 
REMARK    4  A    between atoms: C_13  and  C_14 
REMARK    5  A    between atoms: C_16  and  C_17 
REMARK    6  A    between atoms: C_17  and  S_18 
REMARK    7  A    between atoms: S_18  and  C_19 
ROOT
ATOM      1  C   UNL d   1      28.245 -14.749  -4.418  0.00  0.00     0.173 A 
ATOM      2  N   UNL d   1      29.122 -14.070  -5.112  0.00  0.00    -0.208 NA
ATOM      3  C   UNL d   1      28.772 -14.379  -6.388  0.00  0.00     0.165 A 
ATOM      4  N   UNL d   1      27.703 -15.173  -6.512  0.00  0.00    -0.110 NA
ATOM      5  O   UNL d   1      27.353 -15.436  -5.181  0.00  0.00    -0.196 OA
ENDROOT
BRANCH   1   6
ATOM      6  C   UNL d   1      28.158 -14.826  -2.965  0.00  0.00     0.098 C 
BRANCH   6   7
ATOM      7  C   UNL d   1      27.037 -13.989  -2.301  0.00  0.00     0.111 C 
BRANCH   7   8
ATOM      8  C   UNL d   1      25.876 -14.939  -2.177  0.00  0.00     0.222 C 
ATOM      9  N   UNL d   1      25.623 -15.600  -0.994  0.00  0.00    -0.327 N 
ATOM     10  H   UNL d   1      26.235 -15.402  -0.208  0.00  0.00     0.169 HD
ATOM     11  O   UNL d   1      25.223 -15.028  -3.214  0.00  0.00    -0.273 OA
BRANCH   9  12
ATOM     12  C   UNL d   1      24.569 -16.561  -0.737  0.00  0.00     0.040 A 
ATOM     13  C   UNL d   1      23.249 -16.198  -1.094  0.00  0.00     0.032 A 
ATOM     14  C   UNL d   1      22.153 -17.063  -0.867  0.00  0.00     0.026 A 
ATOM     15  C   UNL d   1      22.348 -18.299  -0.269  0.00  0.00     0.034 A 
ATOM     16  C   UNL d   1      23.623 -18.678   0.089  0.00  0.00     0.032 A 
ATOM     17 CL   UNL d   1      21.047 -19.380   0.027  0.00  0.00    -0.084 Cl
ATOM     18  C   UNL d   1      24.729 -17.841  -0.149  0.00  0.00    -0.034 A 
ATOM     19  C   UNL d   1      26.016 -18.472   0.266  0.00  0.00     0.050 C 
ENDBRANCH   9  12
ENDBRANCH   7   8
ENDBRANCH   6   7
ENDBRANCH   1   6
BRANCH   3  20
ATOM     20  C   UNL d   1      29.503 -13.826  -7.551  0.00  0.00     0.160 C 
BRANCH  20  21
ATOM     21  S   UNL d   1      29.303 -11.973  -7.651  0.00  0.00    -0.115 SA
BRANCH  21  22
ATOM     22  C   UNL d   1      27.544 -11.755  -7.356  0.00  0.00     0.247 A 
ATOM     23  N   UNL d   1      27.066 -12.261  -6.051  0.00  0.00    -0.359 N 
ATOM     24  C   UNL d   1      26.542 -11.315  -5.380  0.00  0.00     0.057 A 
ATOM     25  H   UNL d   1      27.206 -13.194  -5.665  0.00  0.00     0.162 HD
ATOM     26  C   UNL d   1      26.044 -11.336  -4.017  0.00  0.00     0.031 A 
ATOM     27  C   UNL d   1      26.511 -10.074  -6.204  0.00  0.00     0.057 A 
ATOM     28  C   UNL d   1      25.515 -10.183  -3.587  0.00  0.00     0.002 A 
ATOM     29  C   UNL d   1      25.428  -8.978  -4.397  0.00  0.00     0.002 A 
ATOM     30  C   UNL d   1      25.892  -8.868  -5.656  0.00  0.00     0.031 A 
ATOM     31  N   UNL d   1      27.065 -10.323  -7.331  0.00  0.00    -0.359 N 
ATOM     32  H   UNL d   1      27.173  -9.637  -8.084  0.00  0.00     0.162 HD
ENDBRANCH  21  22
ENDBRANCH  20  21
ENDBRANCH   3  20
TORSDOF 7
ENDMDL
MODEL 4
REMARK VINA RESULT:    -7.392      3.997      8.179
REMARK INTER + INTRA:         -13.044
REMARK INTER:                  -9.480
REMARK INTRA:                  -3.564
REMARK CONF_INDEPENDENT:        2.088
REMARK UNBOUND:                -3.564
REMARK  7 active torsions:
REMARK  status: ('A' for Active; 'I' for Inactive)
REMARK    1  A    between atoms: C_8  and  N_9 
REMARK       I    between atoms: N_9  and  C_10 
REMARK    2  A    between atoms: C_10  and  C_12 
REMARK    3  A    between atoms: C_12  and  C_13 
REMARK    4  A    between atoms: C_13  and  C_14 
REMARK    5  A    between atoms: C_16  and  C_17 
REMARK    6  A    between atoms: C_17  and  S_18 
REMARK    7  A    between atoms: S_18  and  C_19 
ROOT
ATOM      1  C   UNL d   1      26.467 -12.790  -2.467  0.00  0.00     0.173 A 
ATOM      2  N   UNL d   1      27.042 -11.933  -3.272  0.00  0.00    -0.208 NA
ATOM      3  C   UNL d   1      26.370 -12.144  -4.434  0.00  0.00     0.165 A 
ATOM      4  N   UNL d   1      25.387 -13.050  -4.371  0.00  0.00    -0.110 NA
ATOM      5  O   UNL d   1      25.461 -13.499  -3.045  0.00  0.00    -0.196 OA
ENDROOT
BRANCH   1   6
ATOM      6  C   UNL d   1      26.809 -13.035  -1.071  0.00  0.00     0.098 C 
BRANCH   6   7
ATOM      7  C   UNL d   1      27.686 -14.280  -0.789  0.00  0.00     0.111 C 
BRANCH   7   8
ATOM      8  C   UNL d   1      26.708 -15.352  -0.393  0.00  0.00     0.222 C 
ATOM      9  N   UNL d   1      25.597 -15.620  -1.163  0.00  0.00    -0.327 N 
ATOM     10  H   UNL d   1      25.481 -15.082  -2.017  0.00  0.00     0.169 HD
ATOM     11  O   UNL d   1      27.026 -15.924   0.648  0.00  0.00    -0.273 OA
BRANCH   9  12
ATOM     12  C   UNL d   1      24.559 -16.595  -0.894  0.00  0.00     0.040 A 
ATOM     13  C   UNL d   1      23.219 -16.210  -1.137  0.00  0.00     0.032 A 
ATOM     14  C   UNL d   1      22.138 -17.088  -0.888  0.00  0.00     0.026 A 
ATOM     15  C   UNL d   1      22.368 -18.358  -0.382  0.00  0.00     0.034 A 
ATOM     16  C   UNL d   1      23.663 -18.759  -0.136  0.00  0.00     0.032 A 
ATOM     17 CL   UNL d   1      21.086 -19.456  -0.064  0.00  0.00    -0.084 Cl
ATOM     18  C   UNL d   1      24.753 -17.909  -0.398  0.00  0.00    -0.034 A 
ATOM     19  C   UNL d   1      26.063 -18.564  -0.111  0.00  0.00     0.050 C 
ENDBRANCH   9  12
ENDBRANCH   7   8
ENDBRANCH   6   7
ENDBRANCH   1   6
BRANCH   3  20
ATOM     20  C   UNL d   1      26.682 -11.380  -5.663  0.00  0.00     0.160 C 
BRANCH  20  21
ATOM     21  S   UNL d   1      28.081 -12.171  -6.611  0.00  0.00    -0.115 SA
BRANCH  21  22
ATOM     22  C   UNL d   1      27.779 -13.925  -6.357  0.00  0.00     0.247 A 
ATOM     23  N   UNL d   1      28.745 -14.824  -7.025  0.00  0.00    -0.359 N 
ATOM     24  C   UNL d   1      29.331 -15.556  -6.165  0.00  0.00     0.057 A 
ATOM     25  H   UNL d   1      29.007 -14.821  -8.011  0.00  0.00     0.162 HD
ATOM     26  C   UNL d   1      30.417 -16.498  -6.363  0.00  0.00     0.031 A 
ATOM     27  C   UNL d   1      28.747 -15.307  -4.816  0.00  0.00     0.057 A 
ATOM     28  C   UNL d   1      30.809 -17.152  -5.261  0.00  0.00     0.002 A 
ATOM     29  C   UNL d   1      30.214 -16.960  -3.948  0.00  0.00     0.002 A 
ATOM     30  C   UNL d   1      29.227 -16.087  -3.676  0.00  0.00     0.031 A 
ATOM     31  N   UNL d   1      27.857 -14.393  -4.923  0.00  0.00    -0.359 N 
ATOM     32  H   UNL d   1      27.303 -14.034  -4.140  0.00  0.00     0.162 HD
ENDBRANCH  21  22
ENDBRANCH  20  21
ENDBRANCH   3  20
TORSDOF 7
ENDMDL
MODEL 5
REMARK VINA RESULT:    -7.019      4.519      8.670
REMARK INTER + INTRA:         -12.610
REMARK INTER:                  -9.107
REMARK INTRA:                  -3.504
REMARK CONF_INDEPENDENT:        2.088
REMARK UNBOUND:                -3.504
REMARK  7 active torsions:
REMARK  status: ('A' for Active; 'I' for Inactive)
REMARK    1  A    between atoms: C_8  and  N_9 
REMARK       I    between atoms: N_9  and  C_10 
REMARK    2  A    between atoms: C_10  and  C_12 
REMARK    3  A    between atoms: C_12  and  C_13 
REMARK    4  A    between atoms: C_13  and  C_14 
REMARK    5  A    between atoms: C_16  and  C_17 
REMARK    6  A    between atoms: C_17  and  S_18 
REMARK    7  A    between atoms: S_18  and  C_19 
ROOT
ATOM      1  C   UNL d   1      28.372 -13.772   1.127  0.00  0.00     0.173 A 
ATOM      2  N   UNL d   1      28.342 -12.477   0.935  0.00  0.00    -0.208 NA
ATOM      3  C   UNL d   1      27.161 -12.135   1.513  0.00  0.00     0.165 A 
ATOM      4  N   UNL d   1      26.491 -13.141   2.086  0.00  0.00    -0.110 NA
ATOM      5  O   UNL d   1      27.301 -14.251   1.812  0.00  0.00    -0.196 OA
ENDROOT
BRANCH   1   6
ATOM      6  C   UNL d   1      29.411 -14.692   0.679  0.00  0.00     0.098 C 
BRANCH   6   7
ATOM      7  C   UNL d   1      29.353 -15.117  -0.809  0.00  0.00     0.111 C 
BRANCH   7   8
ATOM      8  C   UNL d   1      28.208 -16.090  -0.882  0.00  0.00     0.222 C 
ATOM      9  N   UNL d   1      26.936 -15.719  -0.502  0.00  0.00    -0.327 N 
ATOM     10  H   UNL d   1      26.802 -14.760  -0.196  0.00  0.00     0.169 HD
ATOM     11  O   UNL d   1      28.547 -17.192  -1.309  0.00  0.00    -0.273 OA
BRANCH   9  12
ATOM     12  C   UNL d   1      25.749 -16.551  -0.488  0.00  0.00     0.040 A 
ATOM     13  C   UNL d   1      24.620 -16.095  -1.210  0.00  0.00     0.032 A 
ATOM     14  C   UNL d   1      23.413 -16.830  -1.242  0.00  0.00     0.026 A 
ATOM     15  C   UNL d   1      23.300 -18.025  -0.546  0.00  0.00     0.034 A 
ATOM     16  C   UNL d   1      24.384 -18.492   0.165  0.00  0.00     0.032 A 
ATOM     17 CL   UNL d   1      21.854 -18.950  -0.555  0.00  0.00    -0.084 Cl
ATOM     18  C   UNL d   1      25.601 -17.787   0.190  0.00  0.00    -0.034 A 
ATOM     19  C   UNL d   1      26.652 -18.501   0.974  0.00  0.00     0.050 C 
ENDBRANCH   9  12
ENDBRANCH   7   8
ENDBRANCH   6   7
ENDBRANCH   1   6
BRANCH   3  20
ATOM     20  C   UNL d   1      26.687 -10.733   1.544  0.00  0.00     0.160 C 
BRANCH  20  21
ATOM     21  S   UNL d   1      26.576 -10.099   3.296  0.00  0.00    -0.115 SA
BRANCH  21  22
ATOM     22  C   UNL d   1      28.123 -10.669   4.013  0.00  0.00     0.247 A 
ATOM     23  N   UNL d   1      28.276 -10.391   5.458  0.00  0.00    -0.359 N 
ATOM     24  C   UNL d   1      28.435 -11.478   6.099  0.00  0.00     0.057 A 
ATOM     25  H   UNL d   1      28.175  -9.490   5.925  0.00  0.00     0.162 HD
ATOM     26  C   UNL d   1      28.517 -11.683   7.533  0.00  0.00     0.031 A 
ATOM     27  C   UNL d   1      28.513 -12.617   5.141  0.00  0.00     0.057 A 
ATOM     28  C   UNL d   1      28.719 -12.952   7.915  0.00  0.00     0.002 A 
ATOM     29  C   UNL d   1      28.851 -14.067   6.991  0.00  0.00     0.002 A 
ATOM     30  C   UNL d   1      28.757 -13.965   5.652  0.00  0.00     0.031 A 
ATOM     31  N   UNL d   1      28.351 -12.160   3.956  0.00  0.00    -0.359 N 
ATOM     32  H   UNL d   1      28.361 -12.737   3.110  0.00  0.00     0.162 HD
ENDBRANCH  21  22
ENDBRANCH  20  21
ENDBRANCH   3  20
TORSDOF 7
ENDMDL
MODEL 6
REMARK VINA RESULT:    -6.923      4.121      7.704
REMARK INTER + INTRA:         -13.015
REMARK INTER:                  -9.011
REMARK INTRA:                  -4.004
REMARK CONF_INDEPENDENT:        2.088
REMARK UNBOUND:                -4.004
REMARK  7 active torsions:
REMARK  status: ('A' for Active; 'I' for Inactive)
REMARK    1  A    between atoms: C_8  and  N_9 
REMARK       I    between atoms: N_9  and  C_10 
REMARK    2  A    between atoms: C_10  and  C_12 
REMARK    3  A    between atoms: C_12  and  C_13 
REMARK    4  A    between atoms: C_13  and  C_14 
REMARK    5  A    between atoms: C_16  and  C_17 
REMARK    6  A    between atoms: C_17  and  S_18 
REMARK    7  A    between atoms: S_18  and  C_19 
ROOT
ATOM      1  C   UNL d   1      27.324 -13.755  -4.009  0.00  0.00     0.173 A 
ATOM      2  N   UNL d   1      28.393 -13.621  -4.754  0.00  0.00    -0.208 NA
ATOM      3  C   UNL d   1      28.195 -14.572  -5.703  0.00  0.00     0.165 A 
ATOM      4  N   UNL d   1      27.045 -15.248  -5.606  0.00  0.00    -0.110 NA
ATOM      5  O   UNL d   1      26.462 -14.707  -4.452  0.00  0.00    -0.196 OA
ENDROOT
BRANCH   1   6
ATOM      6  C   UNL d   1      27.008 -13.004  -2.800  0.00  0.00     0.098 C 
BRANCH   6   7
ATOM      7  C   UNL d   1      27.650 -13.518  -1.488  0.00  0.00     0.111 C 
BRANCH   7   8
ATOM      8  C   UNL d   1      26.594 -14.389  -0.863  0.00  0.00     0.222 C 
ATOM      9  N   UNL d   1      26.038 -15.439  -1.560  0.00  0.00    -0.327 N 
ATOM     10  H   UNL d   1      26.386 -15.614  -2.498  0.00  0.00     0.169 HD
ATOM     11  O   UNL d   1      26.323 -14.054   0.288  0.00  0.00    -0.273 OA
BRANCH   9  12
ATOM     12  C   UNL d   1      24.997 -16.339  -1.103  0.00  0.00     0.040 A 
ATOM     13  C   UNL d   1      23.654 -15.952  -1.320  0.00  0.00     0.032 A 
ATOM     14  C   UNL d   1      22.571 -16.757  -0.895  0.00  0.00     0.026 A 
ATOM     15  C   UNL d   1      22.804 -17.955  -0.236  0.00  0.00     0.034 A 
ATOM     16  C   UNL d   1      24.103 -18.356  -0.012  0.00  0.00     0.032 A 
ATOM     17 CL   UNL d   1      21.520 -18.963   0.298  0.00  0.00    -0.084 Cl
ATOM     18  C   UNL d   1      25.193 -17.580  -0.447  0.00  0.00    -0.034 A 
ATOM     19  C   UNL d   1      26.504 -18.230  -0.149  0.00  0.00     0.050 C 
ENDBRANCH   9  12
ENDBRANCH   7   8
ENDBRANCH   6   7
ENDBRANCH   1   6
BRANCH   3  20
ATOM     20  C   UNL d   1      29.171 -14.796  -6.794  0.00  0.00     0.160 C 
BRANCH  20  21
ATOM     21  S   UNL d   1      30.608 -15.833  -6.208  0.00  0.00    -0.115 SA
BRANCH  21  22
ATOM     22  C   UNL d   1      29.818 -16.990  -5.081  0.00  0.00     0.247 A 
ATOM     23  N   UNL d   1      30.739 -17.943  -4.424  0.00  0.00    -0.359 N 
ATOM     24  C   UNL d   1      30.674 -17.814  -3.160  0.00  0.00     0.057 A 
ATOM     25  H   UNL d   1      31.414 -18.557  -4.878  0.00  0.00     0.162 HD
ATOM     26  C   UNL d   1      31.473 -18.465  -2.138  0.00  0.00     0.031 A 
ATOM     27  C   UNL d   1      29.617 -16.823  -2.811  0.00  0.00     0.057 A 
ATOM     28  C   UNL d   1      31.151 -18.148  -0.877  0.00  0.00     0.002 A 
ATOM     29  C   UNL d   1      30.087 -17.224  -0.518  0.00  0.00     0.002 A 
ATOM     30  C   UNL d   1      29.322 -16.558  -1.403  0.00  0.00     0.031 A 
ATOM     31  N   UNL d   1      29.119 -16.364  -3.898  0.00  0.00    -0.359 N 
ATOM     32  H   UNL d   1      28.371 -15.666  -3.939  0.00  0.00     0.162 HD
ENDBRANCH  21  22
ENDBRANCH  20  21
ENDBRANCH   3  20
TORSDOF 7
ENDMDL
MODEL 7
REMARK VINA RESULT:    -6.914      3.913      5.068
REMARK INTER + INTRA:         -12.771
REMARK INTER:                  -9.002
REMARK INTRA:                  -3.769
REMARK CONF_INDEPENDENT:        2.088
REMARK UNBOUND:                -3.769
REMARK  7 active torsions:
REMARK  status: ('A' for Active; 'I' for Inactive)
REMARK    1  A    between atoms: C_8  and  N_9 
REMARK       I    between atoms: N_9  and  C_10 
REMARK    2  A    between atoms: C_10  and  C_12 
REMARK    3  A    between atoms: C_12  and  C_13 
REMARK    4  A    between atoms: C_13  and  C_14 
REMARK    5  A    between atoms: C_16  and  C_17 
REMARK    6  A    between atoms: C_17  and  S_18 
REMARK    7  A    between atoms: S_18  and  C_19 
ROOT
ATOM      1  C   UNL d   1      26.836 -13.937  -4.500  0.00  0.00     0.173 A 
ATOM      2  N   UNL d   1      28.075 -13.976  -4.078  0.00  0.00    -0.208 NA
ATOM      3  C   UNL d   1      28.452 -15.234  -4.424  0.00  0.00     0.165 A 
ATOM      4  N   UNL d   1      27.528 -15.950  -5.074  0.00  0.00    -0.110 NA
ATOM      5  O   UNL d   1      26.430 -15.080  -5.113  0.00  0.00    -0.196 OA
ENDROOT
BRANCH   1   6
ATOM      6  C   UNL d   1      25.906 -12.823  -4.364  0.00  0.00     0.098 C 
BRANCH   6   7
ATOM      7  C   UNL d   1      26.272 -11.750  -3.309  0.00  0.00     0.111 C 
BRANCH   7   8
ATOM      8  C   UNL d   1      26.425 -12.517  -2.024  0.00  0.00     0.222 C 
ATOM      9  N   UNL d   1      27.078 -11.967  -0.943  0.00  0.00    -0.327 N 
ATOM     10  H   UNL d   1      27.429 -11.019  -1.042  0.00  0.00     0.169 HD
ATOM     11  O   UNL d   1      25.909 -13.631  -2.072  0.00  0.00    -0.273 OA
BRANCH   9  12
ATOM     12  C   UNL d   1      27.328 -12.593   0.341  0.00  0.00     0.040 A 
ATOM     13  C   UNL d   1      27.819 -13.920   0.339  0.00  0.00     0.032 A 
ATOM     14  C   UNL d   1      28.078 -14.618   1.542  0.00  0.00     0.026 A 
ATOM     15  C   UNL d   1      27.839 -14.015   2.768  0.00  0.00     0.034 A 
ATOM     16  C   UNL d   1      27.359 -12.723   2.799  0.00  0.00     0.032 A 
ATOM     17 CL   UNL d   1      28.136 -14.825   4.252  0.00  0.00    -0.084 Cl
ATOM     18  C   UNL d   1      27.118 -12.004   1.614  0.00  0.00    -0.034 A 
ATOM     19  C   UNL d   1      26.657 -10.610   1.882  0.00  0.00     0.050 C 
ENDBRANCH   9  12
ENDBRANCH   7   8
ENDBRANCH   6   7
ENDBRANCH   1   6
BRANCH   3  20
ATOM     20  C   UNL d   1      29.813 -15.744  -4.141  0.00  0.00     0.160 C 
BRANCH  20  21
ATOM     21  S   UNL d   1      29.774 -17.064  -2.822  0.00  0.00    -0.115 SA
BRANCH  21  22
ATOM     22  C   UNL d   1      28.665 -16.357  -1.597  0.00  0.00     0.247 A 
ATOM     23  N   UNL d   1      27.309 -16.042  -2.097  0.00  0.00    -0.359 N 
ATOM     24  C   UNL d   1      26.436 -16.687  -1.434  0.00  0.00     0.057 A 
ATOM     25  H   UNL d   1      27.071 -15.477  -2.912  0.00  0.00     0.162 HD
ATOM     26  C   UNL d   1      25.003 -16.760  -1.650  0.00  0.00     0.031 A 
ATOM     27  C   UNL d   1      27.100 -17.438  -0.331  0.00  0.00     0.057 A 
ATOM     28  C   UNL d   1      24.331 -17.504  -0.760  0.00  0.00     0.002 A 
ATOM     29  C   UNL d   1      24.957 -18.200   0.353  0.00  0.00     0.002 A 
ATOM     30  C   UNL d   1      26.279 -18.206   0.604  0.00  0.00     0.031 A 
ATOM     31  N   UNL d   1      28.363 -17.243  -0.412  0.00  0.00    -0.359 N 
ATOM     32  H   UNL d   1      29.050 -17.647   0.231  0.00  0.00     0.162 HD
ENDBRANCH  21  22
ENDBRANCH  20  21
ENDBRANCH   3  20
TORSDOF 7
ENDMDL
MODEL 8
REMARK VINA RESULT:    -6.721      4.174      7.552
REMARK INTER + INTRA:         -12.538
REMARK INTER:                  -8.809
REMARK INTRA:                  -3.729
REMARK CONF_INDEPENDENT:        2.088
REMARK UNBOUND:                -3.729
REMARK  7 active torsions:
REMARK  status: ('A' for Active; 'I' for Inactive)
REMARK    1  A    between atoms: C_8  and  N_9 
REMARK       I    between atoms: N_9  and  C_10 
REMARK    2  A    between atoms: C_10  and  C_12 
REMARK    3  A    between atoms: C_12  and  C_13 
REMARK    4  A    between atoms: C_13  and  C_14 
REMARK    5  A    between atoms: C_16  and  C_17 
REMARK    6  A    between atoms: C_17  and  S_18 
REMARK    7  A    between atoms: S_18  and  C_19 
ROOT
ATOM      1  C   UNL d   1      29.315 -15.145  -1.619  0.00  0.00     0.173 A 
ATOM      2  N   UNL d   1      28.725 -14.480  -2.581  0.00  0.00    -0.208 NA
ATOM      3  C   UNL d   1      28.427 -15.468  -3.464  0.00  0.00     0.165 A 
ATOM      4  N   UNL d   1      28.761 -16.703  -3.076  0.00  0.00    -0.110 NA
ATOM      5  O   UNL d   1      29.375 -16.485  -1.835  0.00  0.00    -0.196 OA
ENDROOT
BRANCH   1   6
ATOM      6  C   UNL d   1      29.887 -14.586  -0.401  0.00  0.00     0.098 C 
BRANCH   6   7
ATOM      7  C   UNL d   1      28.909 -13.825   0.529  0.00  0.00     0.111 C 
BRANCH   7   8
ATOM      8  C   UNL d   1      27.572 -14.467   0.280  0.00  0.00     0.222 C 
ATOM      9  N   UNL d   1      27.457 -15.832   0.125  0.00  0.00    -0.327 N 
ATOM     10  H   UNL d   1      28.305 -16.384   0.210  0.00  0.00     0.169 HD
ATOM     11  O   UNL d   1      26.653 -13.652   0.245  0.00  0.00    -0.273 OA
BRANCH   9  12
ATOM     12  C   UNL d   1      26.248 -16.583  -0.148  0.00  0.00     0.040 A 
ATOM     13  C   UNL d   1      25.167 -15.892  -0.744  0.00  0.00     0.032 A 
ATOM     14  C   UNL d   1      23.942 -16.538  -1.034  0.00  0.00     0.026 A 
ATOM     15  C   UNL d   1      23.765 -17.878  -0.725  0.00  0.00     0.034 A 
ATOM     16  C   UNL d   1      24.802 -18.576  -0.144  0.00  0.00     0.032 A 
ATOM     17 CL   UNL d   1      22.296 -18.702  -1.057  0.00  0.00    -0.084 Cl
ATOM     18  C   UNL d   1      26.036 -17.957   0.131  0.00  0.00    -0.034 A 
ATOM     19  C   UNL d   1      27.030 -18.910   0.707  0.00  0.00     0.050 C 
ENDBRANCH   9  12
ENDBRANCH   7   8
ENDBRANCH   6   7
ENDBRANCH   1   6
BRANCH   3  20
ATOM     20  C   UNL d   1      27.733 -15.186  -4.742  0.00  0.00     0.160 C 
BRANCH  20  21
ATOM     21  S   UNL d   1      25.912 -15.575  -4.618  0.00  0.00    -0.115 SA
BRANCH  21  22
ATOM     22  C   UNL d   1      25.276 -14.167  -3.699  0.00  0.00     0.247 A 
ATOM     23  N   UNL d   1      26.184 -13.646  -2.655  0.00  0.00    -0.359 N 
ATOM     24  C   UNL d   1      26.464 -12.427  -2.886  0.00  0.00     0.057 A 
ATOM     25  H   UNL d   1      26.624 -14.176  -1.902  0.00  0.00     0.162 HD
ATOM     26  C   UNL d   1      27.393 -11.560  -2.185  0.00  0.00     0.031 A 
ATOM     27  C   UNL d   1      25.688 -11.950  -4.065  0.00  0.00     0.057 A 
ATOM     28  C   UNL d   1      27.454 -10.302  -2.645  0.00  0.00     0.002 A 
ATOM     29  C   UNL d   1      26.663  -9.806  -3.760  0.00  0.00     0.002 A 
ATOM     30  C   UNL d   1      25.804 -10.552  -4.479  0.00  0.00     0.031 A 
ATOM     31  N   UNL d   1      25.001 -12.930  -4.521  0.00  0.00    -0.359 N 
ATOM     32  H   UNL d   1      24.378 -12.869  -5.331  0.00  0.00     0.162 HD
ENDBRANCH  21  22
ENDBRANCH  20  21
ENDBRANCH   3  20
TORSDOF 7
ENDMDL
MODEL 9
REMARK VINA RESULT:    -6.109      3.983      5.132
REMARK INTER + INTRA:         -12.985
REMARK INTER:                  -8.198
REMARK INTRA:                  -4.787
REMARK CONF_INDEPENDENT:        2.088
REMARK UNBOUND:                -4.787
REMARK  7 active torsions:
REMARK  status: ('A' for Active; 'I' for Inactive)
REMARK    1  A    between atoms: C_8  and  N_9 
REMARK       I    between atoms: N_9  and  C_10 
REMARK    2  A    between atoms: C_10  and  C_12 
REMARK    3  A    between atoms: C_12  and  C_13 
REMARK    4  A    between atoms: C_13  and  C_14 
REMARK    5  A    between atoms: C_16  and  C_17 
REMARK    6  A    between atoms: C_17  and  S_18 
REMARK    7  A    between atoms: S_18  and  C_19 
ROOT
ATOM      1  C   UNL d   1      27.567 -13.913  -5.067  0.00  0.00     0.173 A 
ATOM      2  N   UNL d   1      28.728 -13.881  -4.462  0.00  0.00    -0.208 NA
ATOM      3  C   UNL d   1      29.039 -15.200  -4.382  0.00  0.00     0.165 A 
ATOM      4  N   UNL d   1      28.156 -16.033  -4.944  0.00  0.00    -0.110 NA
ATOM      5  O   UNL d   1      27.153 -15.165  -5.395  0.00  0.00    -0.196 OA
ENDROOT
BRANCH   1   6
ATOM      6  C   UNL d   1      26.727 -12.768  -5.395  0.00  0.00     0.098 C 
BRANCH   6   7
ATOM      7  C   UNL d   1      25.530 -12.503  -4.447  0.00  0.00     0.111 C 
BRANCH   7   8
ATOM      8  C   UNL d   1      25.934 -13.131  -3.141  0.00  0.00     0.222 C 
ATOM      9  N   UNL d   1      26.742 -12.459  -2.251  0.00  0.00    -0.327 N 
ATOM     10  H   UNL d   1      27.032 -11.518  -2.501  0.00  0.00     0.169 HD
ATOM     11  O   UNL d   1      25.462 -14.256  -2.990  0.00  0.00    -0.273 OA
BRANCH   9  12
ATOM     12  C   UNL d   1      27.235 -12.945  -0.977  0.00  0.00     0.040 A 
ATOM     13  C   UNL d   1      26.280 -13.325  -0.005  0.00  0.00     0.032 A 
ATOM     14  C   UNL d   1      26.665 -13.796   1.272  0.00  0.00     0.026 A 
ATOM     15  C   UNL d   1      28.008 -13.886   1.610  0.00  0.00     0.034 A 
ATOM     16  C   UNL d   1      28.960 -13.522   0.683  0.00  0.00     0.032 A 
ATOM     17 CL   UNL d   1      28.521 -14.450   3.148  0.00  0.00    -0.084 Cl
ATOM     18  C   UNL d   1      28.596 -13.073  -0.600  0.00  0.00    -0.034 A 
ATOM     19  C   UNL d   1      29.785 -12.787  -1.457  0.00  0.00     0.050 C 
ENDBRANCH   9  12
ENDBRANCH   7   8
ENDBRANCH   6   7
ENDBRANCH   1   6
BRANCH   3  20
ATOM     20  C   UNL d   1      30.299 -15.666  -3.757  0.00  0.00     0.160 C 
BRANCH  20  21
ATOM     21  S   UNL d   1      29.972 -17.010  -2.505  0.00  0.00    -0.115 SA
BRANCH  21  22
ATOM     22  C   UNL d   1      28.697 -16.277  -1.472  0.00  0.00     0.247 A 
ATOM     23  N   UNL d   1      27.399 -16.060  -2.148  0.00  0.00    -0.359 N 
ATOM     24  C   UNL d   1      26.479 -16.700  -1.546  0.00  0.00     0.057 A 
ATOM     25  H   UNL d   1      27.238 -15.563  -3.024  0.00  0.00     0.162 HD
ATOM     26  C   UNL d   1      25.086 -16.856  -1.922  0.00  0.00     0.031 A 
ATOM     27  C   UNL d   1      27.035 -17.344  -0.322  0.00  0.00     0.057 A 
ATOM     28  C   UNL d   1      24.342 -17.570  -1.065  0.00  0.00     0.002 A 
ATOM     29  C   UNL d   1      24.858 -18.159   0.161  0.00  0.00     0.002 A 
ATOM     30  C   UNL d   1      26.140 -18.086   0.564  0.00  0.00     0.031 A 
ATOM     31  N   UNL d   1      28.290 -17.094  -0.269  0.00  0.00    -0.359 N 
ATOM     32  H   UNL d   1      28.911 -17.422   0.477  0.00  0.00     0.162 HD
ENDBRANCH  21  22
ENDBRANCH  20  21
ENDBRANCH   3  20
TORSDOF 7
ENDMDL
