MODEL 1
REMARK VINA RESULT:    -8.705      0.000      0.000
REMARK INTER + INTRA:         -12.045
REMARK INTER:                 -10.495
REMARK INTRA:                  -1.550
REMARK CONF_INDEPENDENT:        1.790
REMARK UNBOUND:                -1.550
REMARK  6 active torsions:
REMARK  status: ('A' for Active; 'I' for Inactive)
REMARK    1  A    between atoms: C_2  and  C_3 
REMARK       I    between atoms: C_2  and  N_15 
REMARK    2  A    between atoms: C_3  and  C_4 
REMARK    3  A    between atoms: N_15  and  N_16 
REMARK    4  A    between atoms: C_17  and  C_18 
REMARK    5  A    between atoms: C_21  and  C_22 
REMARK    6  A    between atoms: C_25  and  N_26 
ROOT
ATOM      1  N   UNL d   1      30.573 -15.484   0.206  0.00  0.00    -0.182 NA
ATOM      2  C   UNL d   1      31.096 -15.387   1.397  0.00  0.00     0.175 C 
ENDROOT
BRANCH   1   3
ATOM      3  N   UNL d   1      31.125 -16.380  -0.666  0.00  0.00    -0.247 N 
ATOM      4  C   UNL d   1      30.477 -17.530  -1.083  0.00  0.00     0.241 C 
ATOM      5  O   UNL d   1      31.060 -18.297  -1.854  0.00  0.00    -0.271 OA
ATOM      6  H   UNL d   1      32.063 -16.251  -1.033  0.00  0.00     0.192 HD
BRANCH   4   7
ATOM      7  C   UNL d   1      29.068 -17.779  -0.550  0.00  0.00     0.144 C 
BRANCH   7   8
ATOM      8  C   UNL d   1      28.002 -16.925  -1.233  0.00  0.00    -0.038 A 
ATOM      9  C   UNL d   1      28.425 -15.936  -2.135  0.00  0.00     0.010 A 
ATOM     10  C   UNL d   1      27.503 -15.107  -2.765  0.00  0.00     0.020 A 
ATOM     11  C   UNL d   1      26.137 -15.250  -2.502  0.00  0.00     0.022 A 
ATOM     12 BR   UNL d   1      24.978 -14.070  -3.453  0.00  0.00    -0.050 Br
ATOM     13  C   UNL d   1      25.660 -16.226  -1.588  0.00  0.00    -0.008 A 
ATOM     14  C   UNL d   1      24.289 -16.421  -1.269  0.00  0.00     0.013 A 
ATOM     15  C   UNL d   1      26.617 -17.068  -0.948  0.00  0.00    -0.018 A 
ATOM     16  C   UNL d   1      23.870 -17.414  -0.378  0.00  0.00     0.001 A 
ATOM     17  C   UNL d   1      24.806 -18.224   0.237  0.00  0.00     0.001 A 
ATOM     18  C   UNL d   1      26.156 -18.038  -0.034  0.00  0.00     0.013 A 
ENDBRANCH   7   8
ENDBRANCH   4   7
ENDBRANCH   1   3
BRANCH   2  19
ATOM     19  C   UNL d   1      30.493 -14.473   2.348  0.00  0.00     0.095 A 
ATOM     20  C   UNL d   1      30.621 -14.478   3.722  0.00  0.00     0.041 A 
ATOM     21  C   UNL d   1      29.814 -13.442   4.219  0.00  0.00     0.041 A 
ATOM     22  C   UNL d   1      29.230 -12.819   3.134  0.00  0.00     0.088 A 
ATOM     23  O   UNL d   1      29.650 -13.436   1.970  0.00  0.00    -0.308 OA
BRANCH  22  24
ATOM     24  C   UNL d   1      28.332 -11.650   3.098  0.00  0.00     0.020 A 
ATOM     25  C   UNL d   1      28.669 -10.449   3.752  0.00  0.00     0.018 A 
ATOM     26  C   UNL d   1      27.916  -9.270   3.550  0.00  0.00     0.037 A 
ATOM     27  C   UNL d   1      26.816  -9.280   2.682  0.00  0.00     0.104 A 
ATOM     28  C   UNL d   1      26.462 -10.457   2.023  0.00  0.00     0.060 A 
ATOM     29  C   UNL d   1      27.210 -11.625   2.235  0.00  0.00     0.049 A 
ATOM     30 CL   UNL d   1      26.687 -13.032   1.365  0.00  0.00    -0.083 Cl
BRANCH  27  31
ATOM     31  N   UNL d   1      26.033  -8.053   2.457  0.00  0.00    -0.116 N 
ATOM     32  O   UNL d   1      25.157  -8.076   1.588  0.00  0.00    -0.532 OA
ATOM     33  O   UNL d   1      26.305  -7.062   3.159  0.00  0.00    -0.532 OA
ENDBRANCH  27  31
ENDBRANCH  22  24
ENDBRANCH   2  19
TORSDOF 6
ENDMDL
MODEL 2
REMARK VINA RESULT:    -8.579      3.958      5.625
REMARK INTER + INTRA:         -11.782
REMARK INTER:                 -10.369
REMARK INTRA:                  -1.413
REMARK CONF_INDEPENDENT:        1.790
REMARK UNBOUND:                -1.413
REMARK  6 active torsions:
REMARK  status: ('A' for Active; 'I' for Inactive)
REMARK    1  A    between atoms: C_2  and  C_3 
REMARK       I    between atoms: C_2  and  N_15 
REMARK    2  A    between atoms: C_3  and  C_4 
REMARK    3  A    between atoms: N_15  and  N_16 
REMARK    4  A    between atoms: C_17  and  C_18 
REMARK    5  A    between atoms: C_21  and  C_22 
REMARK    6  A    between atoms: C_25  and  N_26 
ROOT
ATOM      1  N   UNL d   1      26.922 -12.385  -4.910  0.00  0.00    -0.182 NA
ATOM      2  C   UNL d   1      25.841 -11.669  -5.048  0.00  0.00     0.175 C 
ENDROOT
BRANCH   1   3
ATOM      3  N   UNL d   1      26.949 -13.622  -5.492  0.00  0.00    -0.247 N 
ATOM      4  C   UNL d   1      26.167 -14.680  -5.061  0.00  0.00     0.241 C 
ATOM      5  O   UNL d   1      26.272 -15.770  -5.629  0.00  0.00    -0.271 OA
ATOM      6  H   UNL d   1      27.575 -13.830  -6.264  0.00  0.00     0.192 HD
BRANCH   4   7
ATOM      7  C   UNL d   1      25.216 -14.426  -3.894  0.00  0.00     0.144 C 
BRANCH   7   8
ATOM      8  C   UNL d   1      25.881 -14.575  -2.527  0.00  0.00    -0.038 A 
ATOM      9  C   UNL d   1      26.781 -13.579  -2.117  0.00  0.00     0.010 A 
ATOM     10  C   UNL d   1      27.440 -13.674  -0.896  0.00  0.00     0.020 A 
ATOM     11  C   UNL d   1      27.214 -14.773  -0.062  0.00  0.00     0.022 A 
ATOM     12 BR   UNL d   1      28.159 -14.768   1.596  0.00  0.00    -0.050 Br
ATOM     13  C   UNL d   1      26.323 -15.813  -0.437  0.00  0.00    -0.008 A 
ATOM     14  C   UNL d   1      26.051 -16.959   0.359  0.00  0.00     0.013 A 
ATOM     15  C   UNL d   1      25.655 -15.702  -1.692  0.00  0.00    -0.018 A 
ATOM     16  C   UNL d   1      25.146 -17.945  -0.047  0.00  0.00     0.001 A 
ATOM     17  C   UNL d   1      24.506 -17.827  -1.266  0.00  0.00     0.001 A 
ATOM     18  C   UNL d   1      24.773 -16.732  -2.078  0.00  0.00     0.013 A 
ENDBRANCH   7   8
ENDBRANCH   4   7
ENDBRANCH   1   3
BRANCH   2  19
ATOM     19  C   UNL d   1      25.814 -10.336  -4.474  0.00  0.00     0.095 A 
ATOM     20  C   UNL d   1      25.663  -9.135  -5.137  0.00  0.00     0.041 A 
ATOM     21  C   UNL d   1      25.756  -8.116  -4.175  0.00  0.00     0.041 A 
ATOM     22  C   UNL d   1      25.940  -8.723  -2.949  0.00  0.00     0.088 A 
ATOM     23  O   UNL d   1      25.966 -10.095  -3.115  0.00  0.00    -0.308 OA
BRANCH  22  24
ATOM     24  C   UNL d   1      26.054  -8.113  -1.611  0.00  0.00     0.020 A 
ATOM     25  C   UNL d   1      25.265  -7.007  -1.242  0.00  0.00     0.018 A 
ATOM     26  C   UNL d   1      25.222  -6.552   0.095  0.00  0.00     0.037 A 
ATOM     27  C   UNL d   1      25.968  -7.208   1.083  0.00  0.00     0.104 A 
ATOM     28  C   UNL d   1      26.757  -8.306   0.744  0.00  0.00     0.060 A 
ATOM     29  C   UNL d   1      26.801  -8.746  -0.588  0.00  0.00     0.049 A 
ATOM     30 CL   UNL d   1      27.811 -10.121  -0.903  0.00  0.00    -0.083 Cl
BRANCH  27  31
ATOM     31  N   UNL d   1      25.919  -6.748   2.482  0.00  0.00    -0.116 N 
ATOM     32  O   UNL d   1      25.155  -5.821   2.761  0.00  0.00    -0.532 OA
ATOM     33  O   UNL d   1      26.658  -7.325   3.301  0.00  0.00    -0.532 OA
ENDBRANCH  27  31
ENDBRANCH  22  24
ENDBRANCH   2  19
TORSDOF 6
ENDMDL
MODEL 3
REMARK VINA RESULT:    -8.554      4.814      7.026
REMARK INTER + INTRA:         -12.493
REMARK INTER:                 -10.344
REMARK INTRA:                  -2.149
REMARK CONF_INDEPENDENT:        1.790
REMARK UNBOUND:                -2.149
REMARK  6 active torsions:
REMARK  status: ('A' for Active; 'I' for Inactive)
REMARK    1  A    between atoms: C_2  and  C_3 
REMARK       I    between atoms: C_2  and  N_15 
REMARK    2  A    between atoms: C_3  and  C_4 
REMARK    3  A    between atoms: N_15  and  N_16 
REMARK    4  A    between atoms: C_17  and  C_18 
REMARK    5  A    between atoms: C_21  and  C_22 
REMARK    6  A    between atoms: C_25  and  N_26 
ROOT
ATOM      1  N   UNL d   1      29.445 -14.731  -3.735  0.00  0.00    -0.182 NA
ATOM      2  C   UNL d   1      29.366 -15.411  -2.625  0.00  0.00     0.175 C 
ENDROOT
BRANCH   1   3
ATOM      3  N   UNL d   1      30.545 -14.918  -4.524  0.00  0.00    -0.247 N 
ATOM      4  C   UNL d   1      30.470 -15.164  -5.884  0.00  0.00     0.241 C 
ATOM      5  O   UNL d   1      31.514 -15.345  -6.517  0.00  0.00    -0.271 OA
ATOM      6  H   UNL d   1      31.484 -14.909  -4.135  0.00  0.00     0.192 HD
BRANCH   4   7
ATOM      7  C   UNL d   1      29.082 -15.201  -6.519  0.00  0.00     0.144 C 
BRANCH   7   8
ATOM      8  C   UNL d   1      28.248 -13.956  -6.225  0.00  0.00    -0.038 A 
ATOM      9  C   UNL d   1      28.666 -12.734  -6.775  0.00  0.00     0.010 A 
ATOM     10  C   UNL d   1      27.965 -11.561  -6.517  0.00  0.00     0.020 A 
ATOM     11  C   UNL d   1      26.830 -11.588  -5.701  0.00  0.00     0.022 A 
ATOM     12 BR   UNL d   1      25.944  -9.916  -5.451  0.00  0.00    -0.050 Br
ATOM     13  C   UNL d   1      26.374 -12.796  -5.111  0.00  0.00    -0.008 A 
ATOM     14  C   UNL d   1      25.235 -12.894  -4.266  0.00  0.00     0.013 A 
ATOM     15  C   UNL d   1      27.105 -13.991  -5.382  0.00  0.00    -0.018 A 
ATOM     16  C   UNL d   1      24.814 -14.114  -3.728  0.00  0.00     0.001 A 
ATOM     17  C   UNL d   1      25.530 -15.265  -3.998  0.00  0.00     0.001 A 
ATOM     18  C   UNL d   1      26.664 -15.195  -4.797  0.00  0.00     0.013 A 
ENDBRANCH   7   8
ENDBRANCH   4   7
ENDBRANCH   1   3
BRANCH   2  19
ATOM     19  C   UNL d   1      28.184 -15.256  -1.800  0.00  0.00     0.095 A 
ATOM     20  C   UNL d   1      27.892 -14.228  -0.925  0.00  0.00     0.041 A 
ATOM     21  C   UNL d   1      26.668 -14.539  -0.312  0.00  0.00     0.041 A 
ATOM     22  C   UNL d   1      26.233 -15.737  -0.844  0.00  0.00     0.088 A 
ATOM     23  O   UNL d   1      27.153 -16.187  -1.773  0.00  0.00    -0.308 OA
BRANCH  22  24
ATOM     24  C   UNL d   1      24.990 -16.483  -0.576  0.00  0.00     0.020 A 
ATOM     25  C   UNL d   1      23.735 -15.974  -0.962  0.00  0.00     0.018 A 
ATOM     26  C   UNL d   1      22.570 -16.771  -0.895  0.00  0.00     0.037 A 
ATOM     27  C   UNL d   1      22.651 -18.095  -0.444  0.00  0.00     0.104 A 
ATOM     28  C   UNL d   1      23.882 -18.623  -0.056  0.00  0.00     0.060 A 
ATOM     29  C   UNL d   1      25.033 -17.821  -0.118  0.00  0.00     0.049 A 
ATOM     30 CL   UNL d   1      26.513 -18.575   0.385  0.00  0.00    -0.083 Cl
BRANCH  27  31
ATOM     31  N   UNL d   1      21.444 -18.937  -0.381  0.00  0.00    -0.116 N 
ATOM     32  O   UNL d   1      20.914 -19.110   0.719  0.00  0.00    -0.532 OA
ATOM     33  O   UNL d   1      21.030 -19.426  -1.449  0.00  0.00    -0.532 OA
ENDBRANCH  27  31
ENDBRANCH  22  24
ENDBRANCH   2  19
TORSDOF 6
ENDMDL
MODEL 4
REMARK VINA RESULT:    -8.450      4.401      8.247
REMARK INTER + INTRA:         -11.834
REMARK INTER:                 -10.240
REMARK INTRA:                  -1.594
REMARK CONF_INDEPENDENT:        1.790
REMARK UNBOUND:                -1.594
REMARK  6 active torsions:
REMARK  status: ('A' for Active; 'I' for Inactive)
REMARK    1  A    between atoms: C_2  and  C_3 
REMARK       I    between atoms: C_2  and  N_15 
REMARK    2  A    between atoms: C_3  and  C_4 
REMARK    3  A    between atoms: N_15  and  N_16 
REMARK    4  A    between atoms: C_17  and  C_18 
REMARK    5  A    between atoms: C_21  and  C_22 
REMARK    6  A    between atoms: C_25  and  N_26 
ROOT
ATOM      1  N   UNL d   1      28.013 -12.464   0.440  0.00  0.00    -0.182 NA
ATOM      2  C   UNL d   1      28.850 -13.463   0.471  0.00  0.00     0.175 C 
ENDROOT
BRANCH   1   3
ATOM      3  N   UNL d   1      28.516 -11.202   0.590  0.00  0.00    -0.247 N 
ATOM      4  C   UNL d   1      28.114 -10.339   1.596  0.00  0.00     0.241 C 
ATOM      5  O   UNL d   1      28.603  -9.208   1.643  0.00  0.00    -0.271 OA
ATOM      6  H   UNL d   1      29.201 -10.825  -0.058  0.00  0.00     0.192 HD
BRANCH   4   7
ATOM      7  C   UNL d   1      27.076 -10.852   2.591  0.00  0.00     0.144 C 
BRANCH   7   8
ATOM      8  C   UNL d   1      27.652 -11.133   3.978  0.00  0.00    -0.038 A 
ATOM      9  C   UNL d   1      27.985 -10.037   4.790  0.00  0.00     0.010 A 
ATOM     10  C   UNL d   1      28.542 -10.229   6.050  0.00  0.00     0.020 A 
ATOM     11  C   UNL d   1      28.779 -11.524   6.521  0.00  0.00     0.022 A 
ATOM     12 BR   UNL d   1      29.519 -11.649   8.276  0.00  0.00    -0.050 Br
ATOM     13  C   UNL d   1      28.472 -12.664   5.733  0.00  0.00    -0.008 A 
ATOM     14  C   UNL d   1      28.693 -14.006   6.146  0.00  0.00     0.013 A 
ATOM     15  C   UNL d   1      27.903 -12.452   4.442  0.00  0.00    -0.018 A 
ATOM     16  C   UNL d   1      28.351 -15.095   5.339  0.00  0.00     0.001 A 
ATOM     17  C   UNL d   1      27.801 -14.878   4.090  0.00  0.00     0.001 A 
ATOM     18  C   UNL d   1      27.599 -13.576   3.648  0.00  0.00     0.013 A 
ENDBRANCH   7   8
ENDBRANCH   4   7
ENDBRANCH   1   3
BRANCH   2  19
ATOM     19  C   UNL d   1      28.337 -14.805   0.269  0.00  0.00     0.095 A 
ATOM     20  C   UNL d   1      29.046 -15.989   0.274  0.00  0.00     0.041 A 
ATOM     21  C   UNL d   1      28.136 -17.019  -0.020  0.00  0.00     0.041 A 
ATOM     22  C   UNL d   1      26.894 -16.437  -0.177  0.00  0.00     0.088 A 
ATOM     23  O   UNL d   1      26.999 -15.072   0.011  0.00  0.00    -0.308 OA
BRANCH  22  24
ATOM     24  C   UNL d   1      25.592 -17.073  -0.451  0.00  0.00     0.020 A 
ATOM     25  C   UNL d   1      25.098 -18.110   0.364  0.00  0.00     0.018 A 
ATOM     26  C   UNL d   1      23.771 -18.577   0.231  0.00  0.00     0.037 A 
ATOM     27  C   UNL d   1      22.918 -18.004  -0.721  0.00  0.00     0.104 A 
ATOM     28  C   UNL d   1      23.383 -16.976  -1.541  0.00  0.00     0.060 A 
ATOM     29  C   UNL d   1      24.705 -16.523  -1.408  0.00  0.00     0.049 A 
ATOM     30 CL   UNL d   1      25.182 -15.240  -2.473  0.00  0.00    -0.083 Cl
BRANCH  27  31
ATOM     31  N   UNL d   1      21.530 -18.476  -0.859  0.00  0.00    -0.116 N 
ATOM     32  O   UNL d   1      20.649 -17.637  -1.061  0.00  0.00    -0.532 OA
ATOM     33  O   UNL d   1      21.329 -19.701  -0.762  0.00  0.00    -0.532 OA
ENDBRANCH  27  31
ENDBRANCH  22  24
ENDBRANCH   2  19
TORSDOF 6
ENDMDL
MODEL 5
REMARK VINA RESULT:    -8.121      4.514      8.815
REMARK INTER + INTRA:         -11.038
REMARK INTER:                  -9.911
REMARK INTRA:                  -1.126
REMARK CONF_INDEPENDENT:        1.790
REMARK UNBOUND:                -1.126
REMARK  6 active torsions:
REMARK  status: ('A' for Active; 'I' for Inactive)
REMARK    1  A    between atoms: C_2  and  C_3 
REMARK       I    between atoms: C_2  and  N_15 
REMARK    2  A    between atoms: C_3  and  C_4 
REMARK    3  A    between atoms: N_15  and  N_16 
REMARK    4  A    between atoms: C_17  and  C_18 
REMARK    5  A    between atoms: C_21  and  C_22 
REMARK    6  A    between atoms: C_25  and  N_26 
ROOT
ATOM      1  N   UNL d   1      30.182 -13.565   1.926  0.00  0.00    -0.182 NA
ATOM      2  C   UNL d   1      29.536 -13.655   0.797  0.00  0.00     0.175 C 
ENDROOT
BRANCH   1   3
ATOM      3  N   UNL d   1      30.672 -12.341   2.288  0.00  0.00    -0.247 N 
ATOM      4  C   UNL d   1      30.017 -11.489   3.161  0.00  0.00     0.241 C 
ATOM      5  O   UNL d   1      30.520 -10.392   3.414  0.00  0.00    -0.271 OA
ATOM      6  H   UNL d   1      31.544 -11.986   1.906  0.00  0.00     0.192 HD
BRANCH   4   7
ATOM      7  C   UNL d   1      28.695 -11.969   3.756  0.00  0.00     0.144 C 
BRANCH   7   8
ATOM      8  C   UNL d   1      28.829 -12.498   5.183  0.00  0.00    -0.038 A 
ATOM      9  C   UNL d   1      28.736 -13.883   5.386  0.00  0.00     0.010 A 
ATOM     10  C   UNL d   1      28.820 -14.422   6.666  0.00  0.00     0.020 A 
ATOM     11  C   UNL d   1      28.997 -13.581   7.769  0.00  0.00     0.022 A 
ATOM     12 BR   UNL d   1      29.125 -14.449   9.465  0.00  0.00    -0.050 Br
ATOM     13  C   UNL d   1      29.085 -12.172   7.617  0.00  0.00    -0.008 A 
ATOM     14  C   UNL d   1      29.258 -11.261   8.693  0.00  0.00     0.013 A 
ATOM     15  C   UNL d   1      28.995 -11.635   6.299  0.00  0.00    -0.018 A 
ATOM     16  C   UNL d   1      29.361  -9.882   8.487  0.00  0.00     0.001 A 
ATOM     17  C   UNL d   1      29.272  -9.372   7.205  0.00  0.00     0.001 A 
ATOM     18  C   UNL d   1      29.075 -10.237   6.136  0.00  0.00     0.013 A 
ENDBRANCH   7   8
ENDBRANCH   4   7
ENDBRANCH   1   3
BRANCH   2  19
ATOM     19  C   UNL d   1      28.972 -14.937   0.421  0.00  0.00     0.095 A 
ATOM     20  C   UNL d   1      29.642 -16.124   0.204  0.00  0.00     0.041 A 
ATOM     21  C   UNL d   1      28.687 -17.075  -0.192  0.00  0.00     0.041 A 
ATOM     22  C   UNL d   1      27.457 -16.449  -0.186  0.00  0.00     0.088 A 
ATOM     23  O   UNL d   1      27.614 -15.131   0.203  0.00  0.00    -0.308 OA
BRANCH  22  24
ATOM     24  C   UNL d   1      26.123 -17.005  -0.479  0.00  0.00     0.020 A 
ATOM     25  C   UNL d   1      25.526 -17.959   0.367  0.00  0.00     0.018 A 
ATOM     26  C   UNL d   1      24.175 -18.338   0.205  0.00  0.00     0.037 A 
ATOM     27  C   UNL d   1      23.401 -17.758  -0.808  0.00  0.00     0.104 A 
ATOM     28  C   UNL d   1      23.967 -16.810  -1.660  0.00  0.00     0.060 A 
ATOM     29  C   UNL d   1      25.313 -16.446  -1.497  0.00  0.00     0.049 A 
ATOM     30 CL   UNL d   1      25.919 -15.257  -2.606  0.00  0.00    -0.083 Cl
BRANCH  27  31
ATOM     31  N   UNL d   1      21.988 -18.138  -0.977  0.00  0.00    -0.116 N 
ATOM     32  O   UNL d   1      21.728 -19.326  -1.192  0.00  0.00    -0.532 OA
ATOM     33  O   UNL d   1      21.136 -17.234  -0.894  0.00  0.00    -0.532 OA
ENDBRANCH  27  31
ENDBRANCH  22  24
ENDBRANCH   2  19
TORSDOF 6
ENDMDL
MODEL 6
REMARK VINA RESULT:    -7.979      4.553      7.648
REMARK INTER + INTRA:         -12.139
REMARK INTER:                  -9.768
REMARK INTRA:                  -2.371
REMARK CONF_INDEPENDENT:        1.790
REMARK UNBOUND:                -2.371
REMARK  6 active torsions:
REMARK  status: ('A' for Active; 'I' for Inactive)
REMARK    1  A    between atoms: C_2  and  C_3 
REMARK       I    between atoms: C_2  and  N_15 
REMARK    2  A    between atoms: C_3  and  C_4 
REMARK    3  A    between atoms: N_15  and  N_16 
REMARK    4  A    between atoms: C_17  and  C_18 
REMARK    5  A    between atoms: C_21  and  C_22 
REMARK    6  A    between atoms: C_25  and  N_26 
ROOT
ATOM      1  N   UNL d   1      26.942 -11.745  -1.405  0.00  0.00    -0.182 NA
ATOM      2  C   UNL d   1      27.794 -12.704  -1.169  0.00  0.00     0.175 C 
ENDROOT
BRANCH   1   3
ATOM      3  N   UNL d   1      27.402 -10.459  -1.381  0.00  0.00    -0.247 N 
ATOM      4  C   UNL d   1      27.283  -9.590  -2.451  0.00  0.00     0.241 C 
ATOM      5  O   UNL d   1      27.748  -8.452  -2.351  0.00  0.00    -0.271 OA
ATOM      6  H   UNL d   1      27.885 -10.085  -0.569  0.00  0.00     0.192 HD
BRANCH   4   7
ATOM      7  C   UNL d   1      26.576 -10.105  -3.703  0.00  0.00     0.144 C 
BRANCH   7   8
ATOM      8  C   UNL d   1      27.289 -11.287  -4.357  0.00  0.00    -0.038 A 
ATOM      9  C   UNL d   1      28.539 -11.059  -4.953  0.00  0.00     0.010 A 
ATOM     10  C   UNL d   1      29.222 -12.089  -5.591  0.00  0.00     0.020 A 
ATOM     11  C   UNL d   1      28.665 -13.370  -5.647  0.00  0.00     0.022 A 
ATOM     12 BR   UNL d   1      29.717 -14.698  -6.525  0.00  0.00    -0.050 Br
ATOM     13  C   UNL d   1      27.398 -13.649  -5.070  0.00  0.00    -0.008 A 
ATOM     14  C   UNL d   1      26.771 -14.924  -5.096  0.00  0.00     0.013 A 
ATOM     15  C   UNL d   1      26.708 -12.582  -4.422  0.00  0.00    -0.018 A 
ATOM     16  C   UNL d   1      25.530 -15.152  -4.492  0.00  0.00     0.001 A 
ATOM     17  C   UNL d   1      24.870 -14.111  -3.867  0.00  0.00     0.001 A 
ATOM     18  C   UNL d   1      25.446 -12.846  -3.850  0.00  0.00     0.013 A 
ENDBRANCH   7   8
ENDBRANCH   4   7
ENDBRANCH   1   3
BRANCH   2  19
ATOM     19  C   UNL d   1      27.330 -14.077  -1.236  0.00  0.00     0.095 A 
ATOM     20  C   UNL d   1      28.002 -15.172  -1.740  0.00  0.00     0.041 A 
ATOM     21  C   UNL d   1      27.136 -16.273  -1.643  0.00  0.00     0.041 A 
ATOM     22  C   UNL d   1      25.966 -15.825  -1.062  0.00  0.00     0.088 A 
ATOM     23  O   UNL d   1      26.075 -14.473  -0.793  0.00  0.00    -0.308 OA
BRANCH  22  24
ATOM     24  C   UNL d   1      24.754 -16.582  -0.697  0.00  0.00     0.020 A 
ATOM     25  C   UNL d   1      23.471 -16.127  -1.059  0.00  0.00     0.018 A 
ATOM     26  C   UNL d   1      22.331 -16.945  -0.895  0.00  0.00     0.037 A 
ATOM     27  C   UNL d   1      22.465 -18.237  -0.368  0.00  0.00     0.104 A 
ATOM     28  C   UNL d   1      23.723 -18.711  -0.002  0.00  0.00     0.060 A 
ATOM     29  C   UNL d   1      24.850 -17.889  -0.162  0.00  0.00     0.049 A 
ATOM     30 CL   UNL d   1      26.368 -18.575   0.322  0.00  0.00    -0.083 Cl
BRANCH  27  31
ATOM     31  N   UNL d   1      21.283 -19.101  -0.204  0.00  0.00    -0.116 N 
ATOM     32  O   UNL d   1      20.838 -19.265   0.935  0.00  0.00    -0.532 OA
ATOM     33  O   UNL d   1      20.803 -19.617  -1.230  0.00  0.00    -0.532 OA
ENDBRANCH  27  31
ENDBRANCH  22  24
ENDBRANCH   2  19
TORSDOF 6
ENDMDL
MODEL 7
REMARK VINA RESULT:    -7.892      1.304      2.263
REMARK INTER + INTRA:         -11.264
REMARK INTER:                  -9.682
REMARK INTRA:                  -1.582
REMARK CONF_INDEPENDENT:        1.790
REMARK UNBOUND:                -1.582
REMARK  6 active torsions:
REMARK  status: ('A' for Active; 'I' for Inactive)
REMARK    1  A    between atoms: C_2  and  C_3 
REMARK       I    between atoms: C_2  and  N_15 
REMARK    2  A    between atoms: C_3  and  C_4 
REMARK    3  A    between atoms: N_15  and  N_16 
REMARK    4  A    between atoms: C_17  and  C_18 
REMARK    5  A    between atoms: C_21  and  C_22 
REMARK    6  A    between atoms: C_25  and  N_26 
ROOT
ATOM      1  N   UNL d   1      30.599 -15.115   0.394  0.00  0.00    -0.182 NA
ATOM      2  C   UNL d   1      30.801 -15.172   1.681  0.00  0.00     0.175 C 
ENDROOT
BRANCH   1   3
ATOM      3  N   UNL d   1      31.311 -15.964  -0.405  0.00  0.00    -0.247 N 
ATOM      4  C   UNL d   1      30.994 -16.205  -1.731  0.00  0.00     0.241 C 
ATOM      5  O   UNL d   1      31.678 -17.006  -2.373  0.00  0.00    -0.271 OA
ATOM      6  H   UNL d   1      32.106 -16.486  -0.047  0.00  0.00     0.192 HD
BRANCH   4   7
ATOM      7  C   UNL d   1      29.799 -15.456  -2.317  0.00  0.00     0.144 C 
BRANCH   7   8
ATOM      8  C   UNL d   1      28.453 -15.979  -1.822  0.00  0.00    -0.038 A 
ATOM      9  C   UNL d   1      28.453 -17.051  -0.915  0.00  0.00     0.010 A 
ATOM     10  C   UNL d   1      27.258 -17.591  -0.451  0.00  0.00     0.020 A 
ATOM     11  C   UNL d   1      26.037 -17.069  -0.889  0.00  0.00     0.022 A 
ATOM     12 BR   UNL d   1      24.473 -17.880  -0.155  0.00  0.00    -0.050 Br
ATOM     13  C   UNL d   1      25.984 -15.994  -1.815  0.00  0.00    -0.008 A 
ATOM     14  C   UNL d   1      24.780 -15.420  -2.307  0.00  0.00     0.013 A 
ATOM     15  C   UNL d   1      27.217 -15.452  -2.284  0.00  0.00    -0.018 A 
ATOM     16  C   UNL d   1      24.782 -14.346  -3.202  0.00  0.00     0.001 A 
ATOM     17  C   UNL d   1      25.984 -13.829  -3.649  0.00  0.00     0.001 A 
ATOM     18  C   UNL d   1      27.176 -14.388  -3.208  0.00  0.00     0.013 A 
ENDBRANCH   7   8
ENDBRANCH   4   7
ENDBRANCH   1   3
BRANCH   2  19
ATOM     19  C   UNL d   1      30.019 -14.307   2.545  0.00  0.00     0.095 A 
ATOM     20  C   UNL d   1      29.813 -14.435   3.904  0.00  0.00     0.041 A 
ATOM     21  C   UNL d   1      28.947 -13.400   4.292  0.00  0.00     0.041 A 
ATOM     22  C   UNL d   1      28.663 -12.656   3.164  0.00  0.00     0.088 A 
ATOM     23  O   UNL d   1      29.328 -13.196   2.078  0.00  0.00    -0.308 OA
BRANCH  22  24
ATOM     24  C   UNL d   1      27.841 -11.439   3.028  0.00  0.00     0.020 A 
ATOM     25  C   UNL d   1      27.880 -10.419   3.997  0.00  0.00     0.018 A 
ATOM     26  C   UNL d   1      27.258  -9.171   3.771  0.00  0.00     0.037 A 
ATOM     27  C   UNL d   1      26.591  -8.928   2.563  0.00  0.00     0.104 A 
ATOM     28  C   UNL d   1      26.538  -9.922   1.587  0.00  0.00     0.060 A 
ATOM     29  C   UNL d   1      27.152 -11.162   1.822  0.00  0.00     0.049 A 
ATOM     30 CL   UNL d   1      27.030 -12.328   0.543  0.00  0.00    -0.083 Cl
BRANCH  27  31
ATOM     31  N   UNL d   1      25.949  -7.625   2.314  0.00  0.00    -0.116 N 
ATOM     32  O   UNL d   1      26.229  -6.688   3.066  0.00  0.00    -0.532 OA
ATOM     33  O   UNL d   1      25.159  -7.550   1.356  0.00  0.00    -0.532 OA
ENDBRANCH  27  31
ENDBRANCH  22  24
ENDBRANCH   2  19
TORSDOF 6
ENDMDL
MODEL 8
REMARK VINA RESULT:    -7.765      5.108      7.781
REMARK INTER + INTRA:         -11.063
REMARK INTER:                  -9.555
REMARK INTRA:                  -1.508
REMARK CONF_INDEPENDENT:        1.790
REMARK UNBOUND:                -1.508
REMARK  6 active torsions:
REMARK  status: ('A' for Active; 'I' for Inactive)
REMARK    1  A    between atoms: C_2  and  C_3 
REMARK       I    between atoms: C_2  and  N_15 
REMARK    2  A    between atoms: C_3  and  C_4 
REMARK    3  A    between atoms: N_15  and  N_16 
REMARK    4  A    between atoms: C_17  and  C_18 
REMARK    5  A    between atoms: C_21  and  C_22 
REMARK    6  A    between atoms: C_25  and  N_26 
ROOT
ATOM      1  N   UNL d   1      29.529 -15.903  -3.834  0.00  0.00    -0.182 NA
ATOM      2  C   UNL d   1      29.624 -15.533  -2.588  0.00  0.00     0.175 C 
ENDROOT
BRANCH   1   3
ATOM      3  N   UNL d   1      30.471 -15.445  -4.712  0.00  0.00    -0.247 N 
ATOM      4  C   UNL d   1      30.167 -14.986  -5.982  0.00  0.00     0.241 C 
ATOM      5  O   UNL d   1      31.083 -14.612  -6.718  0.00  0.00    -0.271 OA
ATOM      6  H   UNL d   1      31.459 -15.445  -4.475  0.00  0.00     0.192 HD
BRANCH   4   7
ATOM      7  C   UNL d   1      28.696 -14.976  -6.394  0.00  0.00     0.144 C 
BRANCH   7   8
ATOM      8  C   UNL d   1      27.956 -13.709  -5.969  0.00  0.00    -0.038 A 
ATOM      9  C   UNL d   1      27.374 -13.681  -4.692  0.00  0.00     0.010 A 
ATOM     10  C   UNL d   1      26.661 -12.567  -4.260  0.00  0.00     0.020 A 
ATOM     11  C   UNL d   1      26.515 -11.459  -5.101  0.00  0.00     0.022 A 
ATOM     12 BR   UNL d   1      25.540  -9.987  -4.377  0.00  0.00    -0.050 Br
ATOM     13  C   UNL d   1      27.075 -11.444  -6.406  0.00  0.00    -0.008 A 
ATOM     14  C   UNL d   1      26.960 -10.357  -7.313  0.00  0.00     0.013 A 
ATOM     15  C   UNL d   1      27.801 -12.594  -6.836  0.00  0.00    -0.018 A 
ATOM     16  C   UNL d   1      27.550 -10.384  -8.581  0.00  0.00     0.001 A 
ATOM     17  C   UNL d   1      28.251 -11.503  -8.987  0.00  0.00     0.001 A 
ATOM     18  C   UNL d   1      28.356 -12.593  -8.132  0.00  0.00     0.013 A 
ENDBRANCH   7   8
ENDBRANCH   4   7
ENDBRANCH   1   3
BRANCH   2  19
ATOM     19  C   UNL d   1      28.657 -16.047  -1.636  0.00  0.00     0.095 A 
ATOM     20  C   UNL d   1      28.822 -16.228  -0.278  0.00  0.00     0.041 A 
ATOM     21  C   UNL d   1      27.637 -16.799   0.213  0.00  0.00     0.041 A 
ATOM     22  C   UNL d   1      26.772 -16.933  -0.854  0.00  0.00     0.088 A 
ATOM     23  O   UNL d   1      27.382 -16.461  -2.002  0.00  0.00    -0.308 OA
BRANCH  22  24
ATOM     24  C   UNL d   1      25.386 -17.436  -0.877  0.00  0.00     0.020 A 
ATOM     25  C   UNL d   1      25.021 -18.604  -0.180  0.00  0.00     0.018 A 
ATOM     26  C   UNL d   1      23.665 -18.973  -0.030  0.00  0.00     0.037 A 
ATOM     27  C   UNL d   1      22.655 -18.169  -0.574  0.00  0.00     0.104 A 
ATOM     28  C   UNL d   1      22.990 -17.007  -1.269  0.00  0.00     0.060 A 
ATOM     29  C   UNL d   1      24.340 -16.652  -1.420  0.00  0.00     0.049 A 
ATOM     30 CL   UNL d   1      24.648 -15.188  -2.299  0.00  0.00    -0.083 Cl
BRANCH  27  31
ATOM     31  N   UNL d   1      21.239 -18.539  -0.413  0.00  0.00    -0.116 N 
ATOM     32  O   UNL d   1      20.389 -17.840  -0.970  0.00  0.00    -0.532 OA
ATOM     33  O   UNL d   1      20.983 -19.540   0.282  0.00  0.00    -0.532 OA
ENDBRANCH  27  31
ENDBRANCH  22  24
ENDBRANCH   2  19
TORSDOF 6
ENDMDL
MODEL 9
REMARK VINA RESULT:    -6.790      3.103      4.303
REMARK INTER + INTRA:         -11.180
REMARK INTER:                  -8.580
REMARK INTRA:                  -2.600
REMARK CONF_INDEPENDENT:        1.790
REMARK UNBOUND:                -2.600
REMARK  6 active torsions:
REMARK  status: ('A' for Active; 'I' for Inactive)
REMARK    1  A    between atoms: C_2  and  C_3 
REMARK       I    between atoms: C_2  and  N_15 
REMARK    2  A    between atoms: C_3  and  C_4 
REMARK    3  A    between atoms: N_15  and  N_16 
REMARK    4  A    between atoms: C_17  and  C_18 
REMARK    5  A    between atoms: C_21  and  C_22 
REMARK    6  A    between atoms: C_25  and  N_26 
ROOT
ATOM      1  N   UNL d   1      30.139 -14.177  -3.877  0.00  0.00    -0.182 NA
ATOM      2  C   UNL d   1      29.904 -15.085  -2.971  0.00  0.00     0.175 C 
ENDROOT
BRANCH   1   3
ATOM      3  N   UNL d   1      30.920 -14.524  -4.944  0.00  0.00    -0.247 N 
ATOM      4  C   UNL d   1      30.414 -15.093  -6.101  0.00  0.00     0.241 C 
ATOM      5  O   UNL d   1      31.194 -15.397  -7.007  0.00  0.00    -0.271 OA
ATOM      6  H   UNL d   1      31.928 -14.402  -4.925  0.00  0.00     0.192 HD
BRANCH   4   7
ATOM      7  C   UNL d   1      28.905 -15.311  -6.179  0.00  0.00     0.144 C 
BRANCH   7   8
ATOM      8  C   UNL d   1      28.094 -14.050  -5.886  0.00  0.00    -0.038 A 
ATOM      9  C   UNL d   1      28.471 -12.859  -6.524  0.00  0.00     0.010 A 
ATOM     10  C   UNL d   1      27.790 -11.672  -6.274  0.00  0.00     0.020 A 
ATOM     11  C   UNL d   1      26.718 -11.655  -5.377  0.00  0.00     0.022 A 
ATOM     12 BR   UNL d   1      25.852  -9.970  -5.146  0.00  0.00    -0.050 Br
ATOM     13  C   UNL d   1      26.306 -12.831  -4.698  0.00  0.00    -0.008 A 
ATOM     14  C   UNL d   1      25.230 -12.884  -3.770  0.00  0.00     0.013 A 
ATOM     15  C   UNL d   1      27.015 -14.040  -4.962  0.00  0.00    -0.018 A 
ATOM     16  C   UNL d   1      24.850 -14.075  -3.144  0.00  0.00     0.001 A 
ATOM     17  C   UNL d   1      25.544 -15.240  -3.407  0.00  0.00     0.001 A 
ATOM     18  C   UNL d   1      26.618 -15.214  -4.289  0.00  0.00     0.013 A 
ENDBRANCH   7   8
ENDBRANCH   4   7
ENDBRANCH   1   3
BRANCH   2  19
ATOM     19  C   UNL d   1      29.041 -14.745  -1.856  0.00  0.00     0.095 A 
ATOM     20  C   UNL d   1      28.435 -15.606  -0.963  0.00  0.00     0.041 A 
ATOM     21  C   UNL d   1      27.654 -14.825  -0.096  0.00  0.00     0.041 A 
ATOM     22  C   UNL d   1      27.820 -13.506  -0.469  0.00  0.00     0.088 A 
ATOM     23  O   UNL d   1      28.684 -13.439  -1.547  0.00  0.00    -0.308 OA
BRANCH  22  24
ATOM     24  C   UNL d   1      27.259 -12.285   0.137  0.00  0.00     0.020 A 
ATOM     25  C   UNL d   1      26.752 -12.287   1.451  0.00  0.00     0.018 A 
ATOM     26  C   UNL d   1      26.406 -11.084   2.105  0.00  0.00     0.037 A 
ATOM     27  C   UNL d   1      26.571  -9.857   1.448  0.00  0.00     0.104 A 
ATOM     28  C   UNL d   1      27.071  -9.826   0.147  0.00  0.00     0.060 A 
ATOM     29  C   UNL d   1      27.404 -11.028  -0.498  0.00  0.00     0.049 A 
ATOM     30 CL   UNL d   1      28.020 -10.879  -2.113  0.00  0.00    -0.083 Cl
BRANCH  27  31
ATOM     31  N   UNL d   1      26.224  -8.596   2.126  0.00  0.00    -0.116 N 
ATOM     32  O   UNL d   1      25.530  -7.780   1.513  0.00  0.00    -0.532 OA
ATOM     33  O   UNL d   1      26.655  -8.429   3.282  0.00  0.00    -0.532 OA
ENDBRANCH  27  31
ENDBRANCH  22  24
ENDBRANCH   2  19
TORSDOF 6
ENDMDL
