MODEL 1
REMARK VINA RESULT:    -7.055      0.000      0.000
REMARK INTER + INTRA:         -14.528
REMARK INTER:                 -10.933
REMARK INTRA:                  -3.595
REMARK CONF_INDEPENDENT:        3.878
REMARK UNBOUND:                -3.595
REMARK  13 active torsions:
REMARK  status: ('A' for Active; 'I' for Inactive)
REMARK    1  A    between atoms: C_2  and  C_3 
REMARK    2  A    between atoms: C_3  and  C_4 
REMARK    3  A    between atoms: C_4  and  C_5 
REMARK    4  A    between atoms: C_5  and  C_6 
REMARK    5  A    between atoms: C_6  and  N_7 
REMARK       I    between atoms: N_7  and  C_8 
REMARK    6  A    between atoms: N_7  and  C_17 
REMARK    7  A    between atoms: C_8  and  C_10 
REMARK    8  A    between atoms: C_17  and  C_18 
REMARK    9  A    between atoms: C_17  and  C_25 
REMARK       I    between atoms: C_18  and  N_20 
REMARK   10  A    between atoms: N_20  and  C_21 
REMARK   11  A    between atoms: C_26  and  O_27 
REMARK   12  A    between atoms: C_29  and  O_30 
REMARK   13  A    between atoms: C_32  and  O_33 
ROOT
ATOM      1  C   UNL d   1      27.666 -14.672  -2.759  0.00  0.00     0.218 C 
ENDROOT
BRANCH   1   2
ATOM      2  N   UNL d   1      26.922 -15.721  -1.880  0.00  0.00    -0.330 N 
ATOM      3  C   UNL d   1      25.518 -15.965  -2.078  0.00  0.00     0.254 C 
ATOM      4  O   UNL d   1      24.868 -15.502  -3.013  0.00  0.00    -0.267 OA
BRANCH   2   5
ATOM      5  C   UNL d   1      27.839 -16.654  -1.164  0.00  0.00     0.127 C 
BRANCH   5   6
ATOM      6  C   UNL d   1      28.200 -16.292   0.232  0.00  0.00     0.020 C 
BRANCH   6   7
ATOM      7  C   UNL d   1      28.221 -14.875   0.705  0.00  0.00     0.002 C 
BRANCH   7   8
ATOM      8  C   UNL d   1      26.760 -14.417   0.743  0.00  0.00    -0.000 C 
BRANCH   8   9
ATOM      9  C   UNL d   1      26.610 -13.239   1.666  0.00  0.00    -0.005 C 
ATOM     10  C   UNL d   1      27.967 -12.709   2.078  0.00  0.00     0.005 C 
ENDBRANCH   8   9
ENDBRANCH   7   8
ENDBRANCH   6   7
ENDBRANCH   5   6
ENDBRANCH   2   5
BRANCH   3  11
ATOM     11  C   UNL d   1      24.650 -16.807  -1.200  0.00  0.00     0.032 C 
ATOM     12  C   UNL d   1      25.017 -18.008  -0.578  0.00  0.00     0.020 C 
ATOM     13  C   UNL d   1      24.008 -18.898  -0.180  0.00  0.00     0.043 C 
ATOM     14  C   UNL d   1      22.682 -18.485  -0.173  0.00  0.00     0.116 C 
ATOM     15  F   UNL d   1      21.719 -19.352   0.164  0.00  0.00    -0.206 F 
ATOM     16  C   UNL d   1      22.350 -17.186  -0.519  0.00  0.00     0.043 C 
ATOM     17  C   UNL d   1      23.330 -16.356  -1.058  0.00  0.00     0.020 C 
ENDBRANCH   3  11
ENDBRANCH   1   2
BRANCH   1  18
ATOM     18  C   UNL d   1      28.367 -15.340  -4.006  0.00  0.00     0.246 C 
ATOM     19  O   UNL d   1      27.764 -15.939  -4.864  0.00  0.00    -0.271 OA
ATOM     20  N   UNL d   1      29.748 -15.324  -4.174  0.00  0.00    -0.351 N 
ATOM     21  H   UNL d   1      30.380 -14.857  -3.541  0.00  0.00     0.163 HD
BRANCH  20  22
ATOM     22  C   UNL d   1      30.304 -16.034  -5.351  0.00  0.00     0.022 C 
ATOM     23  C   UNL d   1      30.031 -17.567  -5.315  0.00  0.00     0.037 C 
ATOM     24  C   UNL d   1      29.716 -15.413  -6.632  0.00  0.00     0.037 C 
ATOM     25  C   UNL d   1      31.827 -15.859  -5.374  0.00  0.00     0.037 C 
ENDBRANCH  20  22
ENDBRANCH   1  18
BRANCH   1  26
ATOM     26  C   UNL d   1      26.824 -13.391  -3.071  0.00  0.00     0.040 C 
ATOM     27  C   UNL d   1      26.035 -13.351  -4.249  0.00  0.00     0.080 C 
ATOM     28  C   UNL d   1      25.530 -12.146  -4.764  0.00  0.00     0.073 C 
ATOM     29  C   UNL d   1      25.722 -10.962  -4.066  0.00  0.00     0.071 C 
ATOM     30  C   UNL d   1      26.388 -10.966  -2.868  0.00  0.00     0.073 C 
ATOM     31  C   UNL d   1      26.890 -12.160  -2.364  0.00  0.00     0.080 C 
BRANCH  27  32
ATOM     32  O   UNL d   1      25.810 -14.457  -5.038  0.00  0.00    -0.360 OA
ATOM     33  H   UNL d   1      25.987 -15.250  -4.508  0.00  0.00     0.217 HD
ENDBRANCH  27  32
BRANCH  29  34
ATOM     34  O   UNL d   1      25.245  -9.759  -4.484  0.00  0.00    -0.361 OA
ATOM     35  H   UNL d   1      24.577  -9.921  -5.165  0.00  0.00     0.217 HD
ENDBRANCH  29  34
BRANCH  31  36
ATOM     36  O   UNL d   1      27.299 -12.020  -1.073  0.00  0.00    -0.360 OA
ATOM     37  H   UNL d   1      27.884 -11.248  -0.979  0.00  0.00     0.217 HD
ENDBRANCH  31  36
ENDBRANCH   1  26
TORSDOF 13
ENDMDL
MODEL 2
REMARK VINA RESULT:    -6.662      2.257      5.165
REMARK INTER + INTRA:         -14.488
REMARK INTER:                 -10.540
REMARK INTRA:                  -3.948
REMARK CONF_INDEPENDENT:        3.878
REMARK UNBOUND:                -3.948
REMARK  13 active torsions:
REMARK  status: ('A' for Active; 'I' for Inactive)
REMARK    1  A    between atoms: C_2  and  C_3 
REMARK    2  A    between atoms: C_3  and  C_4 
REMARK    3  A    between atoms: C_4  and  C_5 
REMARK    4  A    between atoms: C_5  and  C_6 
REMARK    5  A    between atoms: C_6  and  N_7 
REMARK       I    between atoms: N_7  and  C_8 
REMARK    6  A    between atoms: N_7  and  C_17 
REMARK    7  A    between atoms: C_8  and  C_10 
REMARK    8  A    between atoms: C_17  and  C_18 
REMARK    9  A    between atoms: C_17  and  C_25 
REMARK       I    between atoms: C_18  and  N_20 
REMARK   10  A    between atoms: N_20  and  C_21 
REMARK   11  A    between atoms: C_26  and  O_27 
REMARK   12  A    between atoms: C_29  and  O_30 
REMARK   13  A    between atoms: C_32  and  O_33 
ROOT
ATOM      1  C   UNL d   1      26.513 -12.916  -4.197  0.00  0.00     0.218 C 
ENDROOT
BRANCH   1   2
ATOM      2  N   UNL d   1      26.294 -13.757  -2.904  0.00  0.00    -0.330 N 
ATOM      3  C   UNL d   1      25.580 -15.004  -2.966  0.00  0.00     0.254 C 
ATOM      4  O   UNL d   1      25.243 -15.549  -4.015  0.00  0.00    -0.267 OA
BRANCH   2   5
ATOM      5  C   UNL d   1      27.189 -13.362  -1.780  0.00  0.00     0.127 C 
BRANCH   5   6
ATOM      6  C   UNL d   1      28.350 -14.250  -1.507  0.00  0.00     0.020 C 
BRANCH   6   7
ATOM      7  C   UNL d   1      29.192 -14.814  -2.605  0.00  0.00     0.002 C 
BRANCH   7   8
ATOM      8  C   UNL d   1      28.828 -16.299  -2.700  0.00  0.00    -0.000 C 
BRANCH   8   9
ATOM      9  C   UNL d   1      29.983 -17.081  -3.260  0.00  0.00    -0.005 C 
ATOM     10  C   UNL d   1      30.042 -16.940  -4.766  0.00  0.00     0.005 C 
ENDBRANCH   8   9
ENDBRANCH   7   8
ENDBRANCH   6   7
ENDBRANCH   5   6
ENDBRANCH   2   5
BRANCH   3  11
ATOM     11  C   UNL d   1      25.150 -15.819  -1.789  0.00  0.00     0.032 C 
ATOM     12  C   UNL d   1      25.992 -16.494  -0.896  0.00  0.00     0.020 C 
ATOM     13  C   UNL d   1      25.467 -17.557  -0.145  0.00  0.00     0.043 C 
ATOM     14  C   UNL d   1      24.095 -17.765  -0.102  0.00  0.00     0.116 C 
ATOM     15  F   UNL d   1      23.603 -18.807   0.578  0.00  0.00    -0.206 F 
ATOM     16  C   UNL d   1      23.234 -16.906  -0.765  0.00  0.00     0.043 C 
ATOM     17  C   UNL d   1      23.763 -15.950  -1.629  0.00  0.00     0.020 C 
ENDBRANCH   3  11
ENDBRANCH   1   2
BRANCH   1  18
ATOM     18  C   UNL d   1      26.396 -11.367  -3.917  0.00  0.00     0.246 C 
ATOM     19  O   UNL d   1      27.006 -10.803  -3.040  0.00  0.00    -0.271 OA
ATOM     20  N   UNL d   1      25.536 -10.547  -4.641  0.00  0.00    -0.351 N 
ATOM     21  H   UNL d   1      24.968 -10.876  -5.408  0.00  0.00     0.163 HD
BRANCH  20  22
ATOM     22  C   UNL d   1      25.463  -9.117  -4.254  0.00  0.00     0.022 C 
ATOM     23  C   UNL d   1      25.155  -8.917  -2.741  0.00  0.00     0.037 C 
ATOM     24  C   UNL d   1      26.790  -8.431  -4.628  0.00  0.00     0.037 C 
ATOM     25  C   UNL d   1      24.325  -8.442  -5.027  0.00  0.00     0.037 C 
ENDBRANCH  20  22
ENDBRANCH   1  18
BRANCH   1  26
ATOM     26  C   UNL d   1      27.757 -13.353  -5.039  0.00  0.00     0.040 C 
ATOM     27  C   UNL d   1      28.892 -12.504  -5.087  0.00  0.00     0.080 C 
ATOM     28  C   UNL d   1      29.890 -12.655  -6.064  0.00  0.00     0.073 C 
ATOM     29  C   UNL d   1      29.827 -13.713  -6.959  0.00  0.00     0.071 C 
ATOM     30  C   UNL d   1      28.804 -14.622  -6.884  0.00  0.00     0.073 C 
ATOM     31  C   UNL d   1      27.816 -14.467  -5.919  0.00  0.00     0.080 C 
BRANCH  27  32
ATOM     32  O   UNL d   1      29.041 -11.404  -4.273  0.00  0.00    -0.360 OA
ATOM     33  H   UNL d   1      28.682 -11.622  -3.398  0.00  0.00     0.217 HD
ENDBRANCH  27  32
BRANCH  29  34
ATOM     34  O   UNL d   1      30.766 -13.943  -7.916  0.00  0.00    -0.361 OA
ATOM     35  H   UNL d   1      30.386 -13.704  -8.773  0.00  0.00     0.217 HD
ENDBRANCH  29  34
BRANCH  31  36
ATOM     36  O   UNL d   1      27.029 -15.575  -5.833  0.00  0.00    -0.360 OA
ATOM     37  H   UNL d   1      26.585 -15.615  -4.968  0.00  0.00     0.217 HD
ENDBRANCH  31  36
ENDBRANCH   1  26
TORSDOF 13
ENDMDL
MODEL 3
REMARK VINA RESULT:    -6.554      3.000      5.931
REMARK INTER + INTRA:         -14.382
REMARK INTER:                 -10.432
REMARK INTRA:                  -3.950
REMARK CONF_INDEPENDENT:        3.878
REMARK UNBOUND:                -3.950
REMARK  13 active torsions:
REMARK  status: ('A' for Active; 'I' for Inactive)
REMARK    1  A    between atoms: C_2  and  C_3 
REMARK    2  A    between atoms: C_3  and  C_4 
REMARK    3  A    between atoms: C_4  and  C_5 
REMARK    4  A    between atoms: C_5  and  C_6 
REMARK    5  A    between atoms: C_6  and  N_7 
REMARK       I    between atoms: N_7  and  C_8 
REMARK    6  A    between atoms: N_7  and  C_17 
REMARK    7  A    between atoms: C_8  and  C_10 
REMARK    8  A    between atoms: C_17  and  C_18 
REMARK    9  A    between atoms: C_17  and  C_25 
REMARK       I    between atoms: C_18  and  N_20 
REMARK   10  A    between atoms: N_20  and  C_21 
REMARK   11  A    between atoms: C_26  and  O_27 
REMARK   12  A    between atoms: C_29  and  O_30 
REMARK   13  A    between atoms: C_32  and  O_33 
ROOT
ATOM      1  C   UNL d   1      25.481 -15.388  -1.066  0.00  0.00     0.218 C 
ENDROOT
BRANCH   1   2
ATOM      2  N   UNL d   1      26.856 -15.593  -0.362  0.00  0.00    -0.330 N 
ATOM      3  C   UNL d   1      27.934 -16.244  -1.058  0.00  0.00     0.254 C 
ATOM      4  O   UNL d   1      27.903 -16.531  -2.253  0.00  0.00    -0.267 OA
BRANCH   2   5
ATOM      5  C   UNL d   1      27.036 -14.743   0.849  0.00  0.00     0.127 C 
BRANCH   5   6
ATOM      6  C   UNL d   1      27.323 -13.302   0.616  0.00  0.00     0.020 C 
BRANCH   6   7
ATOM      7  C   UNL d   1      27.483 -12.333   1.741  0.00  0.00     0.002 C 
BRANCH   7   8
ATOM      8  C   UNL d   1      28.321 -13.050   2.805  0.00  0.00    -0.000 C 
BRANCH   8   9
ATOM      9  C   UNL d   1      27.424 -13.657   3.848  0.00  0.00    -0.005 C 
ATOM     10  C   UNL d   1      28.121 -14.803   4.548  0.00  0.00     0.005 C 
ENDBRANCH   8   9
ENDBRANCH   7   8
ENDBRANCH   6   7
ENDBRANCH   5   6
ENDBRANCH   2   5
BRANCH   3  11
ATOM     11  C   UNL d   1      29.235 -16.658  -0.450  0.00  0.00     0.032 C 
ATOM     12  C   UNL d   1      30.001 -15.914   0.456  0.00  0.00     0.020 C 
ATOM     13  C   UNL d   1      31.368 -16.202   0.581  0.00  0.00     0.043 C 
ATOM     14  C   UNL d   1      31.888 -17.357   0.013  0.00  0.00     0.116 C 
ATOM     15  F   UNL d   1      33.201 -17.605   0.096  0.00  0.00    -0.206 F 
ATOM     16  C   UNL d   1      31.059 -18.250  -0.646  0.00  0.00     0.043 C 
ATOM     17  C   UNL d   1      29.739 -17.887  -0.901  0.00  0.00     0.020 C 
ENDBRANCH   3  11
ENDBRANCH   1   2
BRANCH   1  18
ATOM     18  C   UNL d   1      25.648 -14.797  -2.521  0.00  0.00     0.246 C 
ATOM     19  O   UNL d   1      24.741 -14.723  -3.315  0.00  0.00    -0.271 OA
ATOM     20  N   UNL d   1      26.878 -14.362  -3.007  0.00  0.00    -0.351 N 
ATOM     21  H   UNL d   1      27.723 -14.359  -2.455  0.00  0.00     0.163 HD
BRANCH  20  22
ATOM     22  C   UNL d   1      26.931 -13.880  -4.408  0.00  0.00     0.022 C 
ATOM     23  C   UNL d   1      25.938 -12.712  -4.681  0.00  0.00     0.037 C 
ATOM     24  C   UNL d   1      28.373 -13.447  -4.732  0.00  0.00     0.037 C 
ATOM     25  C   UNL d   1      26.536 -15.022  -5.350  0.00  0.00     0.037 C 
ENDBRANCH  20  22
ENDBRANCH   1  18
BRANCH   1  26
ATOM     26  C   UNL d   1      24.516 -16.612  -0.948  0.00  0.00     0.040 C 
ATOM     27  C   UNL d   1      23.126 -16.419  -1.151  0.00  0.00     0.080 C 
ATOM     28  C   UNL d   1      22.177 -17.370  -0.741  0.00  0.00     0.073 C 
ATOM     29  C   UNL d   1      22.597 -18.578  -0.201  0.00  0.00     0.071 C 
ATOM     30  C   UNL d   1      23.934 -18.854  -0.083  0.00  0.00     0.073 C 
ATOM     31  C   UNL d   1      24.870 -17.909  -0.485  0.00  0.00     0.080 C 
BRANCH  27  32
ATOM     32  O   UNL d   1      22.595 -15.249  -1.645  0.00  0.00    -0.360 OA
ATOM     33  H   UNL d   1      23.134 -14.965  -2.400  0.00  0.00     0.217 HD
ENDBRANCH  27  32
BRANCH  29  34
ATOM     34  O   UNL d   1      21.743 -19.559   0.196  0.00  0.00    -0.361 OA
ATOM     35  H   UNL d   1      22.270 -20.303   0.521  0.00  0.00     0.217 HD
ENDBRANCH  29  34
BRANCH  31  36
ATOM     36  O   UNL d   1      26.124 -18.438  -0.523  0.00  0.00    -0.360 OA
ATOM     37  H   UNL d   1      26.648 -18.029  -1.233  0.00  0.00     0.217 HD
ENDBRANCH  31  36
ENDBRANCH   1  26
TORSDOF 13
ENDMDL
MODEL 4
REMARK VINA RESULT:    -6.533      3.121      6.433
REMARK INTER + INTRA:         -14.261
REMARK INTER:                 -10.411
REMARK INTRA:                  -3.850
REMARK CONF_INDEPENDENT:        3.878
REMARK UNBOUND:                -3.850
REMARK  13 active torsions:
REMARK  status: ('A' for Active; 'I' for Inactive)
REMARK    1  A    between atoms: C_2  and  C_3 
REMARK    2  A    between atoms: C_3  and  C_4 
REMARK    3  A    between atoms: C_4  and  C_5 
REMARK    4  A    between atoms: C_5  and  C_6 
REMARK    5  A    between atoms: C_6  and  N_7 
REMARK       I    between atoms: N_7  and  C_8 
REMARK    6  A    between atoms: N_7  and  C_17 
REMARK    7  A    between atoms: C_8  and  C_10 
REMARK    8  A    between atoms: C_17  and  C_18 
REMARK    9  A    between atoms: C_17  and  C_25 
REMARK       I    between atoms: C_18  and  N_20 
REMARK   10  A    between atoms: N_20  and  C_21 
REMARK   11  A    between atoms: C_26  and  O_27 
REMARK   12  A    between atoms: C_29  and  O_30 
REMARK   13  A    between atoms: C_32  and  O_33 
ROOT
ATOM      1  C   UNL d   1      26.935 -15.400  -0.214  0.00  0.00     0.218 C 
ENDROOT
BRANCH   1   2
ATOM      2  N   UNL d   1      27.993 -16.538  -0.324  0.00  0.00    -0.330 N 
ATOM      3  C   UNL d   1      29.396 -16.230  -0.242  0.00  0.00     0.254 C 
ATOM      4  O   UNL d   1      29.837 -15.123   0.062  0.00  0.00    -0.267 OA
BRANCH   2   5
ATOM      5  C   UNL d   1      27.425 -17.900  -0.121  0.00  0.00     0.127 C 
BRANCH   5   6
ATOM      6  C   UNL d   1      26.108 -17.978   0.565  0.00  0.00     0.020 C 
BRANCH   6   7
ATOM      7  C   UNL d   1      24.887 -18.506  -0.117  0.00  0.00     0.002 C 
BRANCH   7   8
ATOM      8  C   UNL d   1      23.933 -17.316  -0.262  0.00  0.00    -0.000 C 
BRANCH   8   9
ATOM      9  C   UNL d   1      22.649 -17.758  -0.906  0.00  0.00    -0.005 C 
ATOM     10  C   UNL d   1      22.034 -18.906  -0.134  0.00  0.00     0.005 C 
ENDBRANCH   8   9
ENDBRANCH   7   8
ENDBRANCH   6   7
ENDBRANCH   5   6
ENDBRANCH   2   5
BRANCH   3  11
ATOM     11  C   UNL d   1      30.513 -17.187  -0.504  0.00  0.00     0.032 C 
ATOM     12  C   UNL d   1      30.586 -18.107  -1.559  0.00  0.00     0.020 C 
ATOM     13  C   UNL d   1      31.431 -19.219  -1.427  0.00  0.00     0.043 C 
ATOM     14  C   UNL d   1      32.356 -19.269  -0.393  0.00  0.00     0.116 C 
ATOM     15  F   UNL d   1      33.127 -20.353  -0.245  0.00  0.00    -0.206 F 
ATOM     16  C   UNL d   1      32.478 -18.210   0.491  0.00  0.00     0.043 C 
ATOM     17  C   UNL d   1      31.540 -17.183   0.452  0.00  0.00     0.020 C 
ENDBRANCH   3  11
ENDBRANCH   1   2
BRANCH   1  18
ATOM     18  C   UNL d   1      27.158 -14.511   1.072  0.00  0.00     0.246 C 
ATOM     19  O   UNL d   1      26.511 -13.520   1.314  0.00  0.00    -0.271 OA
ATOM     20  N   UNL d   1      28.159 -14.788   1.998  0.00  0.00    -0.351 N 
ATOM     21  H   UNL d   1      28.773 -15.586   1.930  0.00  0.00     0.163 HD
BRANCH  20  22
ATOM     22  C   UNL d   1      28.316 -13.853   3.138  0.00  0.00     0.022 C 
ATOM     23  C   UNL d   1      27.021 -13.722   3.993  0.00  0.00     0.037 C 
ATOM     24  C   UNL d   1      29.492 -14.327   4.013  0.00  0.00     0.037 C 
ATOM     25  C   UNL d   1      28.634 -12.453   2.603  0.00  0.00     0.037 C 
ENDBRANCH  20  22
ENDBRANCH   1  18
BRANCH   1  26
ATOM     26  C   UNL d   1      26.710 -14.608  -1.544  0.00  0.00     0.040 C 
ATOM     27  C   UNL d   1      27.359 -13.360  -1.724  0.00  0.00     0.080 C 
ATOM     28  C   UNL d   1      26.956 -12.451  -2.716  0.00  0.00     0.073 C 
ATOM     29  C   UNL d   1      25.956 -12.803  -3.611  0.00  0.00     0.071 C 
ATOM     30  C   UNL d   1      25.371 -14.040  -3.544  0.00  0.00     0.073 C 
ATOM     31  C   UNL d   1      25.770 -14.936  -2.558  0.00  0.00     0.080 C 
BRANCH  27  32
ATOM     32  O   UNL d   1      28.337 -12.894  -0.875  0.00  0.00    -0.360 OA
ATOM     33  H   UNL d   1      28.410 -13.508  -0.127  0.00  0.00     0.217 HD
ENDBRANCH  27  32
BRANCH  29  34
ATOM     34  O   UNL d   1      25.527 -11.990  -4.614  0.00  0.00    -0.361 OA
ATOM     35  H   UNL d   1      24.717 -11.551  -4.319  0.00  0.00     0.217 HD
ENDBRANCH  29  34
BRANCH  31  36
ATOM     36  O   UNL d   1      25.268 -16.181  -2.787  0.00  0.00    -0.360 OA
ATOM     37  H   UNL d   1      24.343 -16.238  -2.492  0.00  0.00     0.217 HD
ENDBRANCH  31  36
ENDBRANCH   1  26
TORSDOF 13
ENDMDL
MODEL 5
REMARK VINA RESULT:    -6.447      1.834      2.733
REMARK INTER + INTRA:         -14.317
REMARK INTER:                 -10.325
REMARK INTRA:                  -3.992
REMARK CONF_INDEPENDENT:        3.878
REMARK UNBOUND:                -3.992
REMARK  13 active torsions:
REMARK  status: ('A' for Active; 'I' for Inactive)
REMARK    1  A    between atoms: C_2  and  C_3 
REMARK    2  A    between atoms: C_3  and  C_4 
REMARK    3  A    between atoms: C_4  and  C_5 
REMARK    4  A    between atoms: C_5  and  C_6 
REMARK    5  A    between atoms: C_6  and  N_7 
REMARK       I    between atoms: N_7  and  C_8 
REMARK    6  A    between atoms: N_7  and  C_17 
REMARK    7  A    between atoms: C_8  and  C_10 
REMARK    8  A    between atoms: C_17  and  C_18 
REMARK    9  A    between atoms: C_17  and  C_25 
REMARK       I    between atoms: C_18  and  N_20 
REMARK   10  A    between atoms: N_20  and  C_21 
REMARK   11  A    between atoms: C_26  and  O_27 
REMARK   12  A    between atoms: C_29  and  O_30 
REMARK   13  A    between atoms: C_32  and  O_33 
ROOT
ATOM      1  C   UNL d   1      27.583 -14.057  -1.763  0.00  0.00     0.218 C 
ENDROOT
BRANCH   1   2
ATOM      2  N   UNL d   1      26.503 -14.821  -0.939  0.00  0.00    -0.330 N 
ATOM      3  C   UNL d   1      26.085 -16.137  -1.341  0.00  0.00     0.254 C 
ATOM      4  O   UNL d   1      26.633 -16.789  -2.228  0.00  0.00    -0.267 OA
BRANCH   2   5
ATOM      5  C   UNL d   1      26.282 -14.254   0.422  0.00  0.00     0.127 C 
BRANCH   5   6
ATOM      6  C   UNL d   1      27.350 -14.500   1.428  0.00  0.00     0.020 C 
BRANCH   6   7
ATOM      7  C   UNL d   1      27.912 -13.404   2.273  0.00  0.00     0.002 C 
BRANCH   7   8
ATOM      8  C   UNL d   1      28.896 -14.072   3.237  0.00  0.00    -0.000 C 
BRANCH   8   9
ATOM      9  C   UNL d   1      28.148 -14.808   4.314  0.00  0.00    -0.005 C 
ATOM     10  C   UNL d   1      27.479 -13.833   5.259  0.00  0.00     0.005 C 
ENDBRANCH   8   9
ENDBRANCH   7   8
ENDBRANCH   6   7
ENDBRANCH   5   6
ENDBRANCH   2   5
BRANCH   3  11
ATOM     11  C   UNL d   1      24.946 -16.905  -0.752  0.00  0.00     0.032 C 
ATOM     12  C   UNL d   1      25.004 -18.205  -0.233  0.00  0.00     0.020 C 
ATOM     13  C   UNL d   1      23.818 -18.950  -0.144  0.00  0.00     0.043 C 
ATOM     14  C   UNL d   1      22.591 -18.326  -0.326  0.00  0.00     0.116 C 
ATOM     15  F   UNL d   1      21.466 -19.050  -0.286  0.00  0.00    -0.206 F 
ATOM     16  C   UNL d   1      22.526 -16.962  -0.558  0.00  0.00     0.043 C 
ATOM     17  C   UNL d   1      23.703 -16.258  -0.797  0.00  0.00     0.020 C 
ENDBRANCH   3  11
ENDBRANCH   1   2
BRANCH   1  18
ATOM     18  C   UNL d   1      28.923 -14.884  -1.885  0.00  0.00     0.246 C 
ATOM     19  O   UNL d   1      29.896 -14.485  -2.478  0.00  0.00    -0.271 OA
ATOM     20  N   UNL d   1      29.055 -16.162  -1.352  0.00  0.00    -0.351 N 
ATOM     21  H   UNL d   1      28.327 -16.623  -0.826  0.00  0.00     0.163 HD
BRANCH  20  22
ATOM     22  C   UNL d   1      30.338 -16.871  -1.577  0.00  0.00     0.022 C 
ATOM     23  C   UNL d   1      31.568 -16.067  -1.061  0.00  0.00     0.037 C 
ATOM     24  C   UNL d   1      30.272 -18.250  -0.895  0.00  0.00     0.037 C 
ATOM     25  C   UNL d   1      30.545 -17.075  -3.081  0.00  0.00     0.037 C 
ENDBRANCH  20  22
ENDBRANCH   1  18
BRANCH   1  26
ATOM     26  C   UNL d   1      27.049 -13.445  -3.099  0.00  0.00     0.040 C 
ATOM     27  C   UNL d   1      27.762 -12.379  -3.705  0.00  0.00     0.080 C 
ATOM     28  C   UNL d   1      27.185 -11.569  -4.697  0.00  0.00     0.073 C 
ATOM     29  C   UNL d   1      25.914 -11.860  -5.173  0.00  0.00     0.071 C 
ATOM     30  C   UNL d   1      25.227 -12.944  -4.693  0.00  0.00     0.073 C 
ATOM     31  C   UNL d   1      25.800 -13.740  -3.709  0.00  0.00     0.080 C 
BRANCH  27  32
ATOM     32  O   UNL d   1      29.012 -11.981  -3.288  0.00  0.00    -0.360 OA
ATOM     33  H   UNL d   1      29.656 -12.650  -3.571  0.00  0.00     0.217 HD
ENDBRANCH  27  32
BRANCH  29  34
ATOM     34  O   UNL d   1      25.296 -11.140  -6.148  0.00  0.00    -0.361 OA
ATOM     35  H   UNL d   1      24.543 -10.682  -5.751  0.00  0.00     0.217 HD
ENDBRANCH  29  34
BRANCH  31  36
ATOM     36  O   UNL d   1      25.094 -14.891  -3.530  0.00  0.00    -0.360 OA
ATOM     37  H   UNL d   1      25.684 -15.664  -3.559  0.00  0.00     0.217 HD
ENDBRANCH  31  36
ENDBRANCH   1  26
TORSDOF 13
ENDMDL
MODEL 6
REMARK VINA RESULT:    -6.233      3.034      6.106
REMARK INTER + INTRA:         -14.833
REMARK INTER:                 -10.110
REMARK INTRA:                  -4.722
REMARK CONF_INDEPENDENT:        3.878
REMARK UNBOUND:                -4.722
REMARK  13 active torsions:
REMARK  status: ('A' for Active; 'I' for Inactive)
REMARK    1  A    between atoms: C_2  and  C_3 
REMARK    2  A    between atoms: C_3  and  C_4 
REMARK    3  A    between atoms: C_4  and  C_5 
REMARK    4  A    between atoms: C_5  and  C_6 
REMARK    5  A    between atoms: C_6  and  N_7 
REMARK       I    between atoms: N_7  and  C_8 
REMARK    6  A    between atoms: N_7  and  C_17 
REMARK    7  A    between atoms: C_8  and  C_10 
REMARK    8  A    between atoms: C_17  and  C_18 
REMARK    9  A    between atoms: C_17  and  C_25 
REMARK       I    between atoms: C_18  and  N_20 
REMARK   10  A    between atoms: N_20  and  C_21 
REMARK   11  A    between atoms: C_26  and  O_27 
REMARK   12  A    between atoms: C_29  and  O_30 
REMARK   13  A    between atoms: C_32  and  O_33 
ROOT
ATOM      1  C   UNL d   1      26.928 -15.335  -1.389  0.00  0.00     0.218 C 
ENDROOT
BRANCH   1   2
ATOM      2  N   UNL d   1      27.015 -14.279  -0.247  0.00  0.00    -0.330 N 
ATOM      3  C   UNL d   1      27.415 -14.677   1.076  0.00  0.00     0.254 C 
ATOM      4  O   UNL d   1      27.848 -15.793   1.354  0.00  0.00    -0.267 OA
BRANCH   2   5
ATOM      5  C   UNL d   1      27.038 -12.872  -0.739  0.00  0.00     0.127 C 
BRANCH   5   6
ATOM      6  C   UNL d   1      27.038 -12.681  -2.213  0.00  0.00     0.020 C 
BRANCH   6   7
ATOM      7  C   UNL d   1      25.906 -12.019  -2.928  0.00  0.00     0.002 C 
BRANCH   7   8
ATOM      8  C   UNL d   1      25.419 -13.023  -3.978  0.00  0.00    -0.000 C 
BRANCH   8   9
ATOM      9  C   UNL d   1      26.550 -13.920  -4.400  0.00  0.00    -0.005 C 
ATOM     10  C   UNL d   1      26.016 -15.223  -4.955  0.00  0.00     0.005 C 
ENDBRANCH   8   9
ENDBRANCH   7   8
ENDBRANCH   6   7
ENDBRANCH   5   6
ENDBRANCH   2   5
BRANCH   3  11
ATOM     11  C   UNL d   1      27.373 -13.811   2.294  0.00  0.00     0.032 C 
ATOM     12  C   UNL d   1      27.032 -12.453   2.334  0.00  0.00     0.020 C 
ATOM     13  C   UNL d   1      27.466 -11.680   3.421  0.00  0.00     0.043 C 
ATOM     14  C   UNL d   1      27.997 -12.299   4.545  0.00  0.00     0.116 C 
ATOM     15  F   UNL d   1      28.452 -11.554   5.560  0.00  0.00    -0.206 F 
ATOM     16  C   UNL d   1      28.067 -13.680   4.618  0.00  0.00     0.043 C 
ATOM     17  C   UNL d   1      27.780 -14.434   3.483  0.00  0.00     0.020 C 
ENDBRANCH   3  11
ENDBRANCH   1   2
BRANCH   1  18
ATOM     18  C   UNL d   1      28.357 -15.838  -1.834  0.00  0.00     0.246 C 
ATOM     19  O   UNL d   1      28.825 -15.624  -2.927  0.00  0.00    -0.271 OA
ATOM     20  N   UNL d   1      29.161 -16.613  -1.003  0.00  0.00    -0.351 N 
ATOM     21  H   UNL d   1      28.904 -16.866  -0.060  0.00  0.00     0.163 HD
BRANCH  20  22
ATOM     22  C   UNL d   1      30.459 -17.080  -1.545  0.00  0.00     0.022 C 
ATOM     23  C   UNL d   1      30.311 -17.826  -2.905  0.00  0.00     0.037 C 
ATOM     24  C   UNL d   1      31.401 -15.871  -1.695  0.00  0.00     0.037 C 
ATOM     25  C   UNL d   1      31.088 -18.075  -0.564  0.00  0.00     0.037 C 
ENDBRANCH  20  22
ENDBRANCH   1  18
BRANCH   1  26
ATOM     26  C   UNL d   1      25.870 -16.459  -1.138  0.00  0.00     0.040 C 
ATOM     27  C   UNL d   1      24.536 -16.264  -1.576  0.00  0.00     0.080 C 
ATOM     28  C   UNL d   1      23.476 -17.055  -1.104  0.00  0.00     0.073 C 
ATOM     29  C   UNL d   1      23.734 -18.120  -0.252  0.00  0.00     0.071 C 
ATOM     30  C   UNL d   1      25.021 -18.414   0.116  0.00  0.00     0.073 C 
ATOM     31  C   UNL d   1      26.067 -17.625  -0.350  0.00  0.00     0.080 C 
BRANCH  27  32
ATOM     32  O   UNL d   1      24.159 -15.220  -2.391  0.00  0.00    -0.360 OA
ATOM     33  H   UNL d   1      23.238 -14.993  -2.190  0.00  0.00     0.217 HD
ENDBRANCH  27  32
BRANCH  29  34
ATOM     34  O   UNL d   1      22.768 -18.948   0.229  0.00  0.00    -0.361 OA
ATOM     35  H   UNL d   1      23.118 -19.849   0.231  0.00  0.00     0.217 HD
ENDBRANCH  29  34
BRANCH  31  36
ATOM     36  O   UNL d   1      27.274 -18.198  -0.087  0.00  0.00    -0.360 OA
ATOM     37  H   UNL d   1      27.685 -17.790   0.695  0.00  0.00     0.217 HD
ENDBRANCH  31  36
ENDBRANCH   1  26
TORSDOF 13
ENDMDL
MODEL 7
REMARK VINA RESULT:    -6.165      1.991      5.548
REMARK INTER + INTRA:         -14.264
REMARK INTER:                 -10.043
REMARK INTRA:                  -4.221
REMARK CONF_INDEPENDENT:        3.878
REMARK UNBOUND:                -4.221
REMARK  13 active torsions:
REMARK  status: ('A' for Active; 'I' for Inactive)
REMARK    1  A    between atoms: C_2  and  C_3 
REMARK    2  A    between atoms: C_3  and  C_4 
REMARK    3  A    between atoms: C_4  and  C_5 
REMARK    4  A    between atoms: C_5  and  C_6 
REMARK    5  A    between atoms: C_6  and  N_7 
REMARK       I    between atoms: N_7  and  C_8 
REMARK    6  A    between atoms: N_7  and  C_17 
REMARK    7  A    between atoms: C_8  and  C_10 
REMARK    8  A    between atoms: C_17  and  C_18 
REMARK    9  A    between atoms: C_17  and  C_25 
REMARK       I    between atoms: C_18  and  N_20 
REMARK   10  A    between atoms: N_20  and  C_21 
REMARK   11  A    between atoms: C_26  and  O_27 
REMARK   12  A    between atoms: C_29  and  O_30 
REMARK   13  A    between atoms: C_32  and  O_33 
ROOT
ATOM      1  C   UNL d   1      27.284 -15.014  -1.904  0.00  0.00     0.218 C 
ENDROOT
BRANCH   1   2
ATOM      2  N   UNL d   1      25.856 -15.622  -1.761  0.00  0.00    -0.330 N 
ATOM      3  C   UNL d   1      25.554 -16.507  -0.668  0.00  0.00     0.254 C 
ATOM      4  O   UNL d   1      26.314 -16.714   0.276  0.00  0.00    -0.267 OA
BRANCH   2   5
ATOM      5  C   UNL d   1      24.826 -14.917  -2.575  0.00  0.00     0.127 C 
BRANCH   5   6
ATOM      6  C   UNL d   1      25.233 -13.629  -3.195  0.00  0.00     0.020 C 
BRANCH   6   7
ATOM      7  C   UNL d   1      25.569 -13.517  -4.647  0.00  0.00     0.002 C 
BRANCH   7   8
ATOM      8  C   UNL d   1      26.884 -12.736  -4.721  0.00  0.00    -0.000 C 
BRANCH   8   9
ATOM      9  C   UNL d   1      26.857 -11.583  -3.756  0.00  0.00    -0.005 C 
ATOM     10  C   UNL d   1      25.912 -10.505  -4.243  0.00  0.00     0.005 C 
ENDBRANCH   8   9
ENDBRANCH   7   8
ENDBRANCH   6   7
ENDBRANCH   5   6
ENDBRANCH   2   5
BRANCH   3  11
ATOM     11  C   UNL d   1      24.292 -17.292  -0.508  0.00  0.00     0.032 C 
ATOM     12  C   UNL d   1      24.198 -18.662  -0.233  0.00  0.00     0.020 C 
ATOM     13  C   UNL d   1      23.011 -19.336  -0.558  0.00  0.00     0.043 C 
ATOM     14  C   UNL d   1      21.877 -18.615  -0.904  0.00  0.00     0.116 C 
ATOM     15  F   UNL d   1      20.760 -19.264  -1.257  0.00  0.00    -0.206 F 
ATOM     16  C   UNL d   1      21.895 -17.230  -0.895  0.00  0.00     0.043 C 
ATOM     17  C   UNL d   1      23.109 -16.570  -0.723  0.00  0.00     0.020 C 
ENDBRANCH   3  11
ENDBRANCH   1   2
BRANCH   1  18
ATOM     18  C   UNL d   1      27.664 -14.111  -0.666  0.00  0.00     0.246 C 
ATOM     19  O   UNL d   1      28.090 -12.985  -0.773  0.00  0.00    -0.271 OA
ATOM     20  N   UNL d   1      27.578 -14.574   0.643  0.00  0.00    -0.351 N 
ATOM     21  H   UNL d   1      27.234 -15.492   0.886  0.00  0.00     0.163 HD
BRANCH  20  22
ATOM     22  C   UNL d   1      28.016 -13.661   1.725  0.00  0.00     0.022 C 
ATOM     23  C   UNL d   1      29.486 -13.176   1.546  0.00  0.00     0.037 C 
ATOM     24  C   UNL d   1      27.057 -12.457   1.781  0.00  0.00     0.037 C 
ATOM     25  C   UNL d   1      27.957 -14.400   3.066  0.00  0.00     0.037 C 
ENDBRANCH  20  22
ENDBRANCH   1  18
BRANCH   1  26
ATOM     26  C   UNL d   1      28.375 -16.046  -2.340  0.00  0.00     0.040 C 
ATOM     27  C   UNL d   1      29.098 -16.751  -1.345  0.00  0.00     0.080 C 
ATOM     28  C   UNL d   1      30.296 -17.425  -1.635  0.00  0.00     0.073 C 
ATOM     29  C   UNL d   1      30.753 -17.490  -2.943  0.00  0.00     0.071 C 
ATOM     30  C   UNL d   1      30.033 -16.913  -3.957  0.00  0.00     0.073 C 
ATOM     31  C   UNL d   1      28.851 -16.243  -3.665  0.00  0.00     0.080 C 
BRANCH  27  32
ATOM     32  O   UNL d   1      28.756 -16.726  -0.011  0.00  0.00    -0.360 OA
ATOM     33  H   UNL d   1      28.170 -17.479   0.167  0.00  0.00     0.217 HD
ENDBRANCH  27  32
BRANCH  29  34
ATOM     34  O   UNL d   1      31.888 -18.143  -3.309  0.00  0.00    -0.361 OA
ATOM     35  H   UNL d   1      32.512 -18.100  -2.571  0.00  0.00     0.217 HD
ENDBRANCH  29  34
BRANCH  31  36
ATOM     36  O   UNL d   1      28.155 -15.950  -4.798  0.00  0.00    -0.360 OA
ATOM     37  H   UNL d   1      27.819 -15.037  -4.769  0.00  0.00     0.217 HD
ENDBRANCH  31  36
ENDBRANCH   1  26
TORSDOF 13
ENDMDL
MODEL 8
REMARK VINA RESULT:    -6.162      2.983      6.330
REMARK INTER + INTRA:         -14.823
REMARK INTER:                 -10.040
REMARK INTRA:                  -4.782
REMARK CONF_INDEPENDENT:        3.878
REMARK UNBOUND:                -4.782
REMARK  13 active torsions:
REMARK  status: ('A' for Active; 'I' for Inactive)
REMARK    1  A    between atoms: C_2  and  C_3 
REMARK    2  A    between atoms: C_3  and  C_4 
REMARK    3  A    between atoms: C_4  and  C_5 
REMARK    4  A    between atoms: C_5  and  C_6 
REMARK    5  A    between atoms: C_6  and  N_7 
REMARK       I    between atoms: N_7  and  C_8 
REMARK    6  A    between atoms: N_7  and  C_17 
REMARK    7  A    between atoms: C_8  and  C_10 
REMARK    8  A    between atoms: C_17  and  C_18 
REMARK    9  A    between atoms: C_17  and  C_25 
REMARK       I    between atoms: C_18  and  N_20 
REMARK   10  A    between atoms: N_20  and  C_21 
REMARK   11  A    between atoms: C_26  and  O_27 
REMARK   12  A    between atoms: C_29  and  O_30 
REMARK   13  A    between atoms: C_32  and  O_33 
ROOT
ATOM      1  C   UNL d   1      29.199 -14.277   1.116  0.00  0.00     0.218 C 
ENDROOT
BRANCH   1   2
ATOM      2  N   UNL d   1      28.319 -15.381   0.456  0.00  0.00    -0.330 N 
ATOM      3  C   UNL d   1      26.919 -15.145   0.221  0.00  0.00     0.254 C 
ATOM      4  O   UNL d   1      26.375 -14.053   0.370  0.00  0.00    -0.267 OA
BRANCH   2   5
ATOM      5  C   UNL d   1      29.111 -16.448  -0.220  0.00  0.00     0.127 C 
BRANCH   5   6
ATOM      6  C   UNL d   1      29.026 -16.502  -1.703  0.00  0.00     0.020 C 
BRANCH   6   7
ATOM      7  C   UNL d   1      29.420 -15.345  -2.563  0.00  0.00     0.002 C 
BRANCH   7   8
ATOM      8  C   UNL d   1      28.440 -15.338  -3.741  0.00  0.00    -0.000 C 
BRANCH   8   9
ATOM      9  C   UNL d   1      27.083 -14.878  -3.283  0.00  0.00    -0.005 C 
ATOM     10  C   UNL d   1      26.036 -15.181  -4.334  0.00  0.00     0.005 C 
ENDBRANCH   8   9
ENDBRANCH   7   8
ENDBRANCH   6   7
ENDBRANCH   5   6
ENDBRANCH   2   5
BRANCH   3  11
ATOM     11  C   UNL d   1      25.930 -16.167  -0.238  0.00  0.00     0.032 C 
ATOM     12  C   UNL d   1      24.822 -15.936  -1.063  0.00  0.00     0.020 C 
ATOM     13  C   UNL d   1      23.758 -16.850  -1.036  0.00  0.00     0.043 C 
ATOM     14  C   UNL d   1      23.913 -18.076  -0.404  0.00  0.00     0.116 C 
ATOM     15  F   UNL d   1      22.880 -18.926  -0.342  0.00  0.00    -0.206 F 
ATOM     16  C   UNL d   1      25.125 -18.422   0.170  0.00  0.00     0.043 C 
ATOM     17  C   UNL d   1      26.124 -17.458   0.276  0.00  0.00     0.020 C 
ENDBRANCH   3  11
ENDBRANCH   1   2
BRANCH   1  18
ATOM     18  C   UNL d   1      29.109 -12.909   0.332  0.00  0.00     0.246 C 
ATOM     19  O   UNL d   1      29.949 -12.538  -0.453  0.00  0.00    -0.271 OA
ATOM     20  N   UNL d   1      28.069 -12.007   0.534  0.00  0.00    -0.351 N 
ATOM     21  H   UNL d   1      27.294 -12.184   1.156  0.00  0.00     0.163 HD
BRANCH  20  22
ATOM     22  C   UNL d   1      28.117 -10.726  -0.211  0.00  0.00     0.022 C 
ATOM     23  C   UNL d   1      29.473  -9.980  -0.040  0.00  0.00     0.037 C 
ATOM     24  C   UNL d   1      27.841 -11.005  -1.701  0.00  0.00     0.037 C 
ATOM     25  C   UNL d   1      27.028  -9.790   0.324  0.00  0.00     0.037 C 
ENDBRANCH  20  22
ENDBRANCH   1  18
BRANCH   1  26
ATOM     26  C   UNL d   1      29.033 -14.173   2.667  0.00  0.00     0.040 C 
ATOM     27  C   UNL d   1      30.147 -14.446   3.501  0.00  0.00     0.080 C 
ATOM     28  C   UNL d   1      30.001 -14.699   4.875  0.00  0.00     0.073 C 
ATOM     29  C   UNL d   1      28.750 -14.596   5.468  0.00  0.00     0.071 C 
ATOM     30  C   UNL d   1      27.660 -14.232   4.722  0.00  0.00     0.073 C 
ATOM     31  C   UNL d   1      27.808 -13.986   3.362  0.00  0.00     0.080 C 
BRANCH  27  32
ATOM     32  O   UNL d   1      31.426 -14.605   3.017  0.00  0.00    -0.360 OA
ATOM     33  H   UNL d   1      32.050 -14.397   3.730  0.00  0.00     0.217 HD
ENDBRANCH  27  32
BRANCH  29  34
ATOM     34  O   UNL d   1      28.530 -14.801   6.794  0.00  0.00    -0.361 OA
ATOM     35  H   UNL d   1      28.298 -15.732   6.920  0.00  0.00     0.217 HD
ENDBRANCH  29  34
BRANCH  31  36
ATOM     36  O   UNL d   1      26.691 -13.409   2.838  0.00  0.00    -0.360 OA
ATOM     37  H   UNL d   1      26.684 -13.492   1.869  0.00  0.00     0.217 HD
ENDBRANCH  31  36
ENDBRANCH   1  26
TORSDOF 13
ENDMDL
MODEL 9
REMARK VINA RESULT:    -6.119      2.066      5.529
REMARK INTER + INTRA:         -14.532
REMARK INTER:                  -9.997
REMARK INTRA:                  -4.535
REMARK CONF_INDEPENDENT:        3.878
REMARK UNBOUND:                -4.535
REMARK  13 active torsions:
REMARK  status: ('A' for Active; 'I' for Inactive)
REMARK    1  A    between atoms: C_2  and  C_3 
REMARK    2  A    between atoms: C_3  and  C_4 
REMARK    3  A    between atoms: C_4  and  C_5 
REMARK    4  A    between atoms: C_5  and  C_6 
REMARK    5  A    between atoms: C_6  and  N_7 
REMARK       I    between atoms: N_7  and  C_8 
REMARK    6  A    between atoms: N_7  and  C_17 
REMARK    7  A    between atoms: C_8  and  C_10 
REMARK    8  A    between atoms: C_17  and  C_18 
REMARK    9  A    between atoms: C_17  and  C_25 
REMARK       I    between atoms: C_18  and  N_20 
REMARK   10  A    between atoms: N_20  and  C_21 
REMARK   11  A    between atoms: C_26  and  O_27 
REMARK   12  A    between atoms: C_29  and  O_30 
REMARK   13  A    between atoms: C_32  and  O_33 
ROOT
ATOM      1  C   UNL d   1      27.483 -14.806  -1.704  0.00  0.00     0.218 C 
ENDROOT
BRANCH   1   2
ATOM      2  N   UNL d   1      26.101 -15.522  -1.633  0.00  0.00    -0.330 N 
ATOM      3  C   UNL d   1      25.758 -16.317  -0.484  0.00  0.00     0.254 C 
ATOM      4  O   UNL d   1      26.430 -16.360   0.545  0.00  0.00    -0.267 OA
BRANCH   2   5
ATOM      5  C   UNL d   1      25.108 -14.995  -2.611  0.00  0.00     0.127 C 
BRANCH   5   6
ATOM      6  C   UNL d   1      25.531 -14.959  -4.036  0.00  0.00     0.020 C 
BRANCH   6   7
ATOM      7  C   UNL d   1      26.219 -13.774  -4.630  0.00  0.00     0.002 C 
BRANCH   7   8
ATOM      8  C   UNL d   1      25.553 -12.541  -4.012  0.00  0.00    -0.000 C 
BRANCH   8   9
ATOM      9  C   UNL d   1      26.463 -11.350  -4.122  0.00  0.00    -0.005 C 
ATOM     10  C   UNL d   1      25.896 -10.173  -3.356  0.00  0.00     0.005 C 
ENDBRANCH   8   9
ENDBRANCH   7   8
ENDBRANCH   6   7
ENDBRANCH   5   6
ENDBRANCH   2   5
BRANCH   3  11
ATOM     11  C   UNL d   1      24.552 -17.191  -0.361  0.00  0.00     0.032 C 
ATOM     12  C   UNL d   1      24.551 -18.578  -0.165  0.00  0.00     0.020 C 
ATOM     13  C   UNL d   1      23.408 -19.310  -0.520  0.00  0.00     0.043 C 
ATOM     14  C   UNL d   1      22.224 -18.647  -0.815  0.00  0.00     0.116 C 
ATOM     15  F   UNL d   1      21.149 -19.347  -1.198  0.00  0.00    -0.206 F 
ATOM     16  C   UNL d   1      22.152 -17.266  -0.726  0.00  0.00     0.043 C 
ATOM     17  C   UNL d   1      23.322 -16.538  -0.525  0.00  0.00     0.020 C 
ENDBRANCH   3  11
ENDBRANCH   1   2
BRANCH   1  18
ATOM     18  C   UNL d   1      27.616 -13.674  -0.611  0.00  0.00     0.246 C 
ATOM     19  O   UNL d   1      27.741 -12.503  -0.880  0.00  0.00    -0.271 OA
ATOM     20  N   UNL d   1      27.646 -13.960   0.751  0.00  0.00    -0.351 N 
ATOM     21  H   UNL d   1      27.547 -14.892   1.125  0.00  0.00     0.163 HD
BRANCH  20  22
ATOM     22  C   UNL d   1      27.833 -12.825   1.686  0.00  0.00     0.022 C 
ATOM     23  C   UNL d   1      26.742 -11.726   1.526  0.00  0.00     0.037 C 
ATOM     24  C   UNL d   1      27.845 -13.364   3.129  0.00  0.00     0.037 C 
ATOM     25  C   UNL d   1      29.180 -12.152   1.402  0.00  0.00     0.037 C 
ENDBRANCH  20  22
ENDBRANCH   1  18
BRANCH   1  26
ATOM     26  C   UNL d   1      28.701 -15.781  -1.809  0.00  0.00     0.040 C 
ATOM     27  C   UNL d   1      29.206 -16.121  -3.090  0.00  0.00     0.080 C 
ATOM     28  C   UNL d   1      30.056 -17.223  -3.284  0.00  0.00     0.073 C 
ATOM     29  C   UNL d   1      30.496 -17.958  -2.192  0.00  0.00     0.071 C 
ATOM     30  C   UNL d   1      30.119 -17.603  -0.923  0.00  0.00     0.073 C 
ATOM     31  C   UNL d   1      29.275 -16.515  -0.736  0.00  0.00     0.080 C 
BRANCH  27  32
ATOM     32  O   UNL d   1      28.812 -15.484  -4.245  0.00  0.00    -0.360 OA
ATOM     33  H   UNL d   1      28.748 -14.534  -4.062  0.00  0.00     0.217 HD
ENDBRANCH  27  32
BRANCH  29  34
ATOM     34  O   UNL d   1      31.337 -19.021  -2.293  0.00  0.00    -0.361 OA
ATOM     35  H   UNL d   1      31.771 -19.144  -1.438  0.00  0.00     0.217 HD
ENDBRANCH  29  34
BRANCH  31  36
ATOM     36  O   UNL d   1      29.203 -16.163   0.578  0.00  0.00    -0.360 OA
ATOM     37  H   UNL d   1      28.536 -16.699   1.041  0.00  0.00     0.217 HD
ENDBRANCH  31  36
ENDBRANCH   1  26
TORSDOF 13
ENDMDL
