MODEL 1
REMARK VINA RESULT:    -8.524      0.000      0.000
REMARK INTER + INTRA:         -10.333
REMARK INTER:                  -9.419
REMARK INTRA:                  -0.914
REMARK CONF_INDEPENDENT:        0.895
REMARK UNBOUND:                -0.914
REMARK  3 active torsions:
REMARK  status: ('A' for Active; 'I' for Inactive)
REMARK       I    between atoms: C_2  and  N_3 
REMARK    1  A    between atoms: C_2  and  C_12 
REMARK    2  A    between atoms: N_3  and  N_4 
REMARK    3  A    between atoms: N_4  and  C_5 
ROOT
ATOM      1  O   UNL d   1      20.456 -19.695  -1.860  0.00  0.00    -0.271 OA
ATOM      2  C   UNL d   1      20.660 -19.492  -0.656  0.00  0.00     0.240 C 
ATOM      3  N   UNL d   1      21.932 -19.205  -0.169  0.00  0.00    -0.269 N 
ATOM      4  H   UNL d   1      22.126 -18.924   0.786  0.00  0.00     0.190 HD
ENDROOT
BRANCH   3   5
ATOM      5  N   UNL d   1      22.996 -19.191  -1.106  0.00  0.00    -0.298 N 
ATOM      6  H   UNL d   1      22.722 -19.427  -2.062  0.00  0.00     0.187 HD
BRANCH   5   7
ATOM      7  C   UNL d   1      24.069 -18.304  -0.899  0.00  0.00     0.049 A 
ATOM      8  C   UNL d   1      25.034 -18.568   0.083  0.00  0.00     0.031 A 
ATOM      9  C   UNL d   1      26.135 -17.722   0.277  0.00  0.00     0.004 A 
ATOM     10  C   UNL d   1      26.270 -16.567  -0.487  0.00  0.00     0.024 A 
ATOM     11  C   UNL d   1      25.311 -16.276  -1.453  0.00  0.00     0.036 A 
ATOM     12 CL   UNL d   1      25.467 -14.828  -2.377  0.00  0.00    -0.084 Cl
ATOM     13  C   UNL d   1      24.226 -17.140  -1.671  0.00  0.00     0.054 A 
ENDBRANCH   5   7
ENDBRANCH   3   5
BRANCH   2  14
ATOM     14  C   UNL d   1      19.527 -19.565   0.380  0.00  0.00     0.079 C 
ATOM     15  C   UNL d   1      18.689 -20.840   0.229  0.00  0.00     0.014 C 
ATOM     16  C   UNL d   1      18.031 -21.057   1.589  0.00  0.00     0.001 C 
ATOM     17  C   UNL d   1      18.987 -20.449   2.609  0.00  0.00     0.001 C 
ATOM     18  C   UNL d   1      20.076 -19.737   1.805  0.00  0.00     0.014 C 
ENDBRANCH   2  14
TORSDOF 3
ENDMDL
MODEL 2
REMARK VINA RESULT:    -7.567      1.494      2.145
REMARK INTER + INTRA:          -9.260
REMARK INTER:                  -8.462
REMARK INTRA:                  -0.798
REMARK CONF_INDEPENDENT:        0.895
REMARK UNBOUND:                -0.798
REMARK  3 active torsions:
REMARK  status: ('A' for Active; 'I' for Inactive)
REMARK       I    between atoms: C_2  and  N_3 
REMARK    1  A    between atoms: C_2  and  C_12 
REMARK    2  A    between atoms: N_3  and  N_4 
REMARK    3  A    between atoms: N_4  and  C_5 
ROOT
ATOM      1  O   UNL d   1      19.946 -18.422  -1.250  0.00  0.00    -0.271 OA
ATOM      2  C   UNL d   1      20.683 -19.023  -0.457  0.00  0.00     0.240 C 
ATOM      3  N   UNL d   1      22.042 -18.739  -0.364  0.00  0.00    -0.269 N 
ATOM      4  H   UNL d   1      22.657 -19.125   0.344  0.00  0.00     0.190 HD
ENDROOT
BRANCH   3   5
ATOM      5  N   UNL d   1      22.559 -17.753  -1.241  0.00  0.00    -0.298 N 
ATOM      6  H   UNL d   1      21.863 -17.092  -1.593  0.00  0.00     0.187 HD
BRANCH   5   7
ATOM      7  C   UNL d   1      23.888 -17.322  -1.070  0.00  0.00     0.049 A 
ATOM      8  C   UNL d   1      24.308 -16.084  -1.577  0.00  0.00     0.031 A 
ATOM      9  C   UNL d   1      25.614 -15.615  -1.380  0.00  0.00     0.004 A 
ATOM     10  C   UNL d   1      26.542 -16.399  -0.702  0.00  0.00     0.024 A 
ATOM     11  C   UNL d   1      26.150 -17.641  -0.209  0.00  0.00     0.036 A 
ATOM     12 CL   UNL d   1      27.313 -18.622   0.604  0.00  0.00    -0.084 Cl
ATOM     13  C   UNL d   1      24.833 -18.096  -0.376  0.00  0.00     0.054 A 
ENDBRANCH   5   7
ENDBRANCH   3   5
BRANCH   2  14
ATOM     14  C   UNL d   1      20.149 -20.138   0.457  0.00  0.00     0.079 C 
ATOM     15  C   UNL d   1      19.924 -19.647   1.893  0.00  0.00     0.014 C 
ATOM     16  C   UNL d   1      18.907 -20.613   2.497  0.00  0.00     0.001 C 
ATOM     17  C   UNL d   1      18.063 -21.104   1.327  0.00  0.00     0.001 C 
ATOM     18  C   UNL d   1      18.726 -20.560   0.060  0.00  0.00     0.014 C 
ENDBRANCH   2  14
TORSDOF 3
ENDMDL
MODEL 3
REMARK VINA RESULT:    -7.322      2.782      6.828
REMARK INTER + INTRA:          -9.082
REMARK INTER:                  -8.217
REMARK INTRA:                  -0.865
REMARK CONF_INDEPENDENT:        0.895
REMARK UNBOUND:                -0.865
REMARK  3 active torsions:
REMARK  status: ('A' for Active; 'I' for Inactive)
REMARK       I    between atoms: C_2  and  N_3 
REMARK    1  A    between atoms: C_2  and  C_12 
REMARK    2  A    between atoms: N_3  and  N_4 
REMARK    3  A    between atoms: N_4  and  C_5 
ROOT
ATOM      1  O   UNL d   1      23.622 -18.294  -2.042  0.00  0.00    -0.271 OA
ATOM      2  C   UNL d   1      23.540 -17.763  -0.927  0.00  0.00     0.240 C 
ATOM      3  N   UNL d   1      22.333 -17.688  -0.240  0.00  0.00    -0.269 N 
ATOM      4  H   UNL d   1      22.241 -17.363   0.716  0.00  0.00     0.190 HD
ENDROOT
BRANCH   3   5
ATOM      5  N   UNL d   1      21.187 -18.215  -0.886  0.00  0.00    -0.298 N 
ATOM      6  H   UNL d   1      21.296 -18.359  -1.893  0.00  0.00     0.187 HD
BRANCH   5   7
ATOM      7  C   UNL d   1      20.330 -19.064  -0.161  0.00  0.00     0.049 A 
ATOM      8  C   UNL d   1      19.249 -19.697  -0.794  0.00  0.00     0.031 A 
ATOM      9  C   UNL d   1      18.410 -20.581  -0.102  0.00  0.00     0.004 A 
ATOM     10  C   UNL d   1      18.612 -20.819   1.254  0.00  0.00     0.024 A 
ATOM     11  C   UNL d   1      19.666 -20.184   1.904  0.00  0.00     0.036 A 
ATOM     12 CL   UNL d   1      19.895 -20.460   3.592  0.00  0.00    -0.084 Cl
ATOM     13  C   UNL d   1      20.529 -19.325   1.205  0.00  0.00     0.054 A 
ENDBRANCH   5   7
ENDBRANCH   3   5
BRANCH   2  14
ATOM     14  C   UNL d   1      24.763 -17.132  -0.241  0.00  0.00     0.079 C 
ATOM     15  C   UNL d   1      25.820 -18.179   0.130  0.00  0.00     0.014 C 
ATOM     16  C   UNL d   1      27.132 -17.407   0.248  0.00  0.00     0.001 C 
ATOM     17  C   UNL d   1      27.000 -16.226  -0.706  0.00  0.00     0.001 C 
ATOM     18  C   UNL d   1      25.555 -16.239  -1.208  0.00  0.00     0.014 C 
ENDBRANCH   2  14
TORSDOF 3
ENDMDL
MODEL 4
REMARK VINA RESULT:    -6.933      3.008      6.615
REMARK INTER + INTRA:          -8.279
REMARK INTER:                  -7.828
REMARK INTRA:                  -0.452
REMARK CONF_INDEPENDENT:        0.895
REMARK UNBOUND:                -0.452
REMARK  3 active torsions:
REMARK  status: ('A' for Active; 'I' for Inactive)
REMARK       I    between atoms: C_2  and  N_3 
REMARK    1  A    between atoms: C_2  and  C_12 
REMARK    2  A    between atoms: N_3  and  N_4 
REMARK    3  A    between atoms: N_4  and  C_5 
ROOT
ATOM      1  O   UNL d   1      22.728 -16.793  -0.831  0.00  0.00    -0.271 OA
ATOM      2  C   UNL d   1      23.405 -17.761  -1.203  0.00  0.00     0.240 C 
ATOM      3  N   UNL d   1      22.813 -18.947  -1.627  0.00  0.00    -0.269 N 
ATOM      4  H   UNL d   1      23.320 -19.720  -2.042  0.00  0.00     0.190 HD
ENDROOT
BRANCH   3   5
ATOM      5  N   UNL d   1      21.397 -19.016  -1.581  0.00  0.00    -0.298 N 
ATOM      6  H   UNL d   1      20.957 -19.268  -2.468  0.00  0.00     0.187 HD
BRANCH   5   7
ATOM      7  C   UNL d   1      20.776 -19.391  -0.375  0.00  0.00     0.049 A 
ATOM      8  C   UNL d   1      21.283 -18.952   0.856  0.00  0.00     0.031 A 
ATOM      9  C   UNL d   1      20.655 -19.276   2.066  0.00  0.00     0.004 A 
ATOM     10  C   UNL d   1      19.523 -20.086   2.071  0.00  0.00     0.024 A 
ATOM     11  C   UNL d   1      19.016 -20.549   0.859  0.00  0.00     0.036 A 
ATOM     12 CL   UNL d   1      17.630 -21.576   0.872  0.00  0.00    -0.084 Cl
ATOM     13  C   UNL d   1      19.625 -20.196  -0.356  0.00  0.00     0.054 A 
ENDBRANCH   5   7
ENDBRANCH   3   5
BRANCH   2  14
ATOM     14  C   UNL d   1      24.942 -17.722  -1.200  0.00  0.00     0.079 C 
ATOM     15  C   UNL d   1      25.485 -16.369  -1.675  0.00  0.00     0.014 C 
ATOM     16  C   UNL d   1      26.894 -16.272  -1.097  0.00  0.00     0.001 C 
ATOM     17  C   UNL d   1      26.866 -17.088   0.191  0.00  0.00     0.001 C 
ATOM     18  C   UNL d   1      25.505 -17.784   0.228  0.00  0.00     0.014 C 
ENDBRANCH   2  14
TORSDOF 3
ENDMDL
MODEL 5
REMARK VINA RESULT:    -6.873      1.642      2.281
REMARK INTER + INTRA:          -8.362
REMARK INTER:                  -7.768
REMARK INTRA:                  -0.594
REMARK CONF_INDEPENDENT:        0.895
REMARK UNBOUND:                -0.594
REMARK  3 active torsions:
REMARK  status: ('A' for Active; 'I' for Inactive)
REMARK       I    between atoms: C_2  and  N_3 
REMARK    1  A    between atoms: C_2  and  C_12 
REMARK    2  A    between atoms: N_3  and  N_4 
REMARK    3  A    between atoms: N_4  and  C_5 
ROOT
ATOM      1  O   UNL d   1      22.048 -17.159  -0.187  0.00  0.00    -0.271 OA
ATOM      2  C   UNL d   1      22.207 -18.276  -0.698  0.00  0.00     0.240 C 
ATOM      3  N   UNL d   1      23.253 -18.535  -1.578  0.00  0.00    -0.269 N 
ATOM      4  H   UNL d   1      23.485 -19.457  -1.931  0.00  0.00     0.190 HD
ENDROOT
BRANCH   3   5
ATOM      5  N   UNL d   1      24.114 -17.455  -1.896  0.00  0.00    -0.298 N 
ATOM      6  H   UNL d   1      23.661 -16.685  -2.393  0.00  0.00     0.187 HD
BRANCH   5   7
ATOM      7  C   UNL d   1      25.197 -17.177  -1.042  0.00  0.00     0.049 A 
ATOM      8  C   UNL d   1      25.732 -18.178  -0.218  0.00  0.00     0.031 A 
ATOM      9  C   UNL d   1      26.838 -17.936   0.608  0.00  0.00     0.004 A 
ATOM     10  C   UNL d   1      27.409 -16.668   0.656  0.00  0.00     0.024 A 
ATOM     11  C   UNL d   1      26.880 -15.655  -0.139  0.00  0.00     0.036 A 
ATOM     12 CL   UNL d   1      27.573 -14.078  -0.054  0.00  0.00    -0.084 Cl
ATOM     13  C   UNL d   1      25.793 -15.906  -0.992  0.00  0.00     0.054 A 
ENDBRANCH   5   7
ENDBRANCH   3   5
BRANCH   2  14
ATOM     14  C   UNL d   1      21.245 -19.441  -0.411  0.00  0.00     0.079 C 
ATOM     15  C   UNL d   1      20.655 -19.366   1.003  0.00  0.00     0.014 C 
ATOM     16  C   UNL d   1      19.364 -20.178   0.947  0.00  0.00     0.001 C 
ATOM     17  C   UNL d   1      18.869 -20.063  -0.490  0.00  0.00     0.001 C 
ATOM     18  C   UNL d   1      19.974 -19.349  -1.269  0.00  0.00     0.014 C 
ENDBRANCH   2  14
TORSDOF 3
ENDMDL
MODEL 6
REMARK VINA RESULT:    -6.714      1.758      2.499
REMARK INTER + INTRA:          -8.457
REMARK INTER:                  -7.609
REMARK INTRA:                  -0.848
REMARK CONF_INDEPENDENT:        0.895
REMARK UNBOUND:                -0.848
REMARK  3 active torsions:
REMARK  status: ('A' for Active; 'I' for Inactive)
REMARK       I    between atoms: C_2  and  N_3 
REMARK    1  A    between atoms: C_2  and  C_12 
REMARK    2  A    between atoms: N_3  and  N_4 
REMARK    3  A    between atoms: N_4  and  C_5 
ROOT
ATOM      1  O   UNL d   1      23.412 -19.814  -0.501  0.00  0.00    -0.271 OA
ATOM      2  C   UNL d   1      22.860 -18.717  -0.341  0.00  0.00     0.240 C 
ATOM      3  N   UNL d   1      23.594 -17.542  -0.209  0.00  0.00    -0.269 N 
ATOM      4  H   UNL d   1      23.185 -16.615  -0.187  0.00  0.00     0.190 HD
ENDROOT
BRANCH   3   5
ATOM      5  N   UNL d   1      25.007 -17.656  -0.228  0.00  0.00    -0.298 N 
ATOM      6  H   UNL d   1      25.358 -18.599  -0.047  0.00  0.00     0.187 HD
BRANCH   5   7
ATOM      7  C   UNL d   1      25.744 -16.798  -1.065  0.00  0.00     0.049 A 
ATOM      8  C   UNL d   1      27.145 -16.762  -0.994  0.00  0.00     0.031 A 
ATOM      9  C   UNL d   1      27.902 -15.948  -1.847  0.00  0.00     0.004 A 
ATOM     10  C   UNL d   1      27.267 -15.119  -2.767  0.00  0.00     0.024 A 
ATOM     11  C   UNL d   1      25.877 -15.126  -2.839  0.00  0.00     0.036 A 
ATOM     12 CL   UNL d   1      25.093 -14.075  -3.960  0.00  0.00    -0.084 Cl
ATOM     13  C   UNL d   1      25.119 -15.966  -2.008  0.00  0.00     0.054 A 
ENDBRANCH   5   7
ENDBRANCH   3   5
BRANCH   2  14
ATOM     14  C   UNL d   1      21.331 -18.586  -0.256  0.00  0.00     0.079 C 
ATOM     15  C   UNL d   1      20.624 -19.325  -1.400  0.00  0.00     0.014 C 
ATOM     16  C   UNL d   1      19.210 -19.596  -0.895  0.00  0.00     0.001 C 
ATOM     17  C   UNL d   1      19.330 -19.713   0.620  0.00  0.00     0.001 C 
ATOM     18  C   UNL d   1      20.768 -19.325   0.968  0.00  0.00     0.014 C 
ENDBRANCH   2  14
TORSDOF 3
ENDMDL
MODEL 7
REMARK VINA RESULT:    -6.505      4.381      8.277
REMARK INTER + INTRA:          -8.259
REMARK INTER:                  -7.400
REMARK INTRA:                  -0.859
REMARK CONF_INDEPENDENT:        0.895
REMARK UNBOUND:                -0.859
REMARK  3 active torsions:
REMARK  status: ('A' for Active; 'I' for Inactive)
REMARK       I    between atoms: C_2  and  N_3 
REMARK    1  A    between atoms: C_2  and  C_12 
REMARK    2  A    between atoms: N_3  and  N_4 
REMARK    3  A    between atoms: N_4  and  C_5 
ROOT
ATOM      1  O   UNL d   1      24.783 -14.355  -4.634  0.00  0.00    -0.271 OA
ATOM      2  C   UNL d   1      25.908 -14.804  -4.378  0.00  0.00     0.240 C 
ATOM      3  N   UNL d   1      26.240 -15.262  -3.107  0.00  0.00    -0.269 N 
ATOM      4  H   UNL d   1      27.107 -15.737  -2.882  0.00  0.00     0.190 HD
ENDROOT
BRANCH   3   5
ATOM      5  N   UNL d   1      25.246 -15.160  -2.102  0.00  0.00    -0.298 N 
ATOM      6  H   UNL d   1      24.512 -14.476  -2.300  0.00  0.00     0.187 HD
BRANCH   5   7
ATOM      7  C   UNL d   1      24.932 -16.301  -1.340  0.00  0.00     0.049 A 
ATOM      8  C   UNL d   1      25.927 -16.965  -0.606  0.00  0.00     0.031 A 
ATOM      9  C   UNL d   1      25.629 -18.076   0.194  0.00  0.00     0.004 A 
ATOM     10  C   UNL d   1      24.330 -18.574   0.244  0.00  0.00     0.024 A 
ATOM     11  C   UNL d   1      23.334 -17.942  -0.495  0.00  0.00     0.036 A 
ATOM     12 CL   UNL d   1      21.732 -18.580  -0.453  0.00  0.00    -0.084 Cl
ATOM     13  C   UNL d   1      23.624 -16.808  -1.270  0.00  0.00     0.054 A 
ENDBRANCH   5   7
ENDBRANCH   3   5
BRANCH   2  14
ATOM     14  C   UNL d   1      27.015 -14.864  -5.442  0.00  0.00     0.079 C 
ATOM     15  C   UNL d   1      27.575 -13.475  -5.771  0.00  0.00     0.014 C 
ATOM     16  C   UNL d   1      28.965 -13.723  -6.349  0.00  0.00     0.001 C 
ATOM     17  C   UNL d   1      29.455 -15.012  -5.701  0.00  0.00     0.001 C 
ATOM     18  C   UNL d   1      28.271 -15.572  -4.911  0.00  0.00     0.014 C 
ENDBRANCH   2  14
TORSDOF 3
ENDMDL
MODEL 8
REMARK VINA RESULT:    -6.385      3.211      7.072
REMARK INTER + INTRA:          -7.953
REMARK INTER:                  -7.280
REMARK INTRA:                  -0.673
REMARK CONF_INDEPENDENT:        0.895
REMARK UNBOUND:                -0.673
REMARK  3 active torsions:
REMARK  status: ('A' for Active; 'I' for Inactive)
REMARK       I    between atoms: C_2  and  N_3 
REMARK    1  A    between atoms: C_2  and  C_12 
REMARK    2  A    between atoms: N_3  and  N_4 
REMARK    3  A    between atoms: N_4  and  C_5 
ROOT
ATOM      1  O   UNL d   1      25.822 -18.036   0.951  0.00  0.00    -0.271 OA
ATOM      2  C   UNL d   1      25.217 -17.329   0.135  0.00  0.00     0.240 C 
ATOM      3  N   UNL d   1      23.861 -17.508  -0.123  0.00  0.00    -0.269 N 
ATOM      4  H   UNL d   1      23.304 -16.885  -0.697  0.00  0.00     0.190 HD
ENDROOT
BRANCH   3   5
ATOM      5  N   UNL d   1      23.205 -18.560   0.563  0.00  0.00    -0.298 N 
ATOM      6  H   UNL d   1      23.465 -18.651   1.548  0.00  0.00     0.187 HD
BRANCH   5   7
ATOM      7  C   UNL d   1      21.907 -18.927   0.160  0.00  0.00     0.049 A 
ATOM      8  C   UNL d   1      21.553 -18.923  -1.197  0.00  0.00     0.031 A 
ATOM      9  C   UNL d   1      20.281 -19.327  -1.625  0.00  0.00     0.004 A 
ATOM     10  C   UNL d   1      19.319 -19.706  -0.693  0.00  0.00     0.024 A 
ATOM     11  C   UNL d   1      19.645 -19.696   0.660  0.00  0.00     0.036 A 
ATOM     12 CL   UNL d   1      18.440 -20.139   1.813  0.00  0.00    -0.084 Cl
ATOM     13  C   UNL d   1      20.929 -19.325   1.087  0.00  0.00     0.054 A 
ENDBRANCH   5   7
ENDBRANCH   3   5
BRANCH   2  14
ATOM     14  C   UNL d   1      25.929 -16.224  -0.662  0.00  0.00     0.079 C 
ATOM     15  C   UNL d   1      27.169 -16.750  -1.396  0.00  0.00     0.014 C 
ATOM     16  C   UNL d   1      27.413 -15.766  -2.536  0.00  0.00     0.001 C 
ATOM     17  C   UNL d   1      26.042 -15.206  -2.897  0.00  0.00     0.001 C 
ATOM     18  C   UNL d   1      25.071 -15.736  -1.840  0.00  0.00     0.014 C 
ENDBRANCH   2  14
TORSDOF 3
ENDMDL
MODEL 9
REMARK VINA RESULT:    -6.141      4.757      8.696
REMARK INTER + INTRA:          -7.919
REMARK INTER:                  -7.036
REMARK INTRA:                  -0.883
REMARK CONF_INDEPENDENT:        0.895
REMARK UNBOUND:                -0.883
REMARK  3 active torsions:
REMARK  status: ('A' for Active; 'I' for Inactive)
REMARK       I    between atoms: C_2  and  N_3 
REMARK    1  A    between atoms: C_2  and  C_12 
REMARK    2  A    between atoms: N_3  and  N_4 
REMARK    3  A    between atoms: N_4  and  C_5 
ROOT
ATOM      1  O   UNL d   1      26.291 -15.568  -5.456  0.00  0.00    -0.271 OA
ATOM      2  C   UNL d   1      27.175 -15.379  -4.610  0.00  0.00     0.240 C 
ATOM      3  N   UNL d   1      26.897 -15.395  -3.247  0.00  0.00    -0.269 N 
ATOM      4  H   UNL d   1      27.604 -15.356  -2.521  0.00  0.00     0.190 HD
ENDROOT
BRANCH   3   5
ATOM      5  N   UNL d   1      25.548 -15.602  -2.863  0.00  0.00    -0.298 N 
ATOM      6  H   UNL d   1      24.873 -15.520  -3.627  0.00  0.00     0.187 HD
BRANCH   5   7
ATOM      7  C   UNL d   1      25.273 -16.478  -1.797  0.00  0.00     0.049 A 
ATOM      8  C   UNL d   1      26.278 -16.826  -0.882  0.00  0.00     0.031 A 
ATOM      9  C   UNL d   1      26.017 -17.661   0.213  0.00  0.00     0.004 A 
ATOM     10  C   UNL d   1      24.746 -18.200   0.392  0.00  0.00     0.024 A 
ATOM     11  C   UNL d   1      23.741 -17.883  -0.517  0.00  0.00     0.036 A 
ATOM     12 CL   UNL d   1      22.176 -18.577  -0.307  0.00  0.00    -0.084 Cl
ATOM     13  C   UNL d   1      23.993 -17.020  -1.595  0.00  0.00     0.054 A 
ENDBRANCH   5   7
ENDBRANCH   3   5
BRANCH   2  14
ATOM     14  C   UNL d   1      28.631 -15.092  -5.012  0.00  0.00     0.079 C 
ATOM     15  C   UNL d   1      29.527 -16.327  -4.854  0.00  0.00     0.014 C 
ATOM     16  C   UNL d   1      30.714 -16.088  -5.782  0.00  0.00     0.001 C 
ATOM     17  C   UNL d   1      30.182 -15.219  -6.915  0.00  0.00     0.001 C 
ATOM     18  C   UNL d   1      28.757 -14.824  -6.520  0.00  0.00     0.014 C 
ENDBRANCH   2  14
TORSDOF 3
ENDMDL
