MODEL 1
REMARK VINA RESULT:    -8.549      0.000      0.000
REMARK INTER + INTRA:         -16.931
REMARK INTER:                 -13.620
REMARK INTRA:                  -3.310
REMARK CONF_INDEPENDENT:        5.071
REMARK UNBOUND:                -3.310
REMARK  17 active torsions:
REMARK  status: ('A' for Active; 'I' for Inactive)
REMARK    1  A    between atoms: C_2  and  C_3 
REMARK    2  A    between atoms: C_3  and  C_4 
REMARK    3  A    between atoms: C_4  and  C_5 
REMARK    4  A    between atoms: C_5  and  C_6 
REMARK    5  A    between atoms: C_6  and  C_7 
REMARK    6  A    between atoms: C_7  and  C_8 
REMARK    7  A    between atoms: C_8  and  C_9 
REMARK    8  A    between atoms: C_9  and  C_11 
REMARK    9  A    between atoms: C_11  and  C_12 
REMARK   10  A    between atoms: C_12  and  C_13 
REMARK       I    between atoms: C_13  and  N_15 
REMARK   11  A    between atoms: N_15  and  C_16 
REMARK   12  A    between atoms: C_16  and  C_17 
REMARK   13  A    between atoms: C_17  and  C_18 
REMARK   14  A    between atoms: N_24  and  N_25 
REMARK   15  A    between atoms: N_25  and  C_26 
REMARK   16  A    between atoms: C_29  and  N_30 
REMARK   17  A    between atoms: C_34  and  N_35 
ROOT
ATOM      1  C   UNL d   1      26.436 -14.919  -1.104  0.00  0.00     0.039 C 
ATOM      2  N   UNL d   1      27.092 -13.782  -1.178  0.00  0.00    -0.183 NA
ENDROOT
BRANCH   1   3
ATOM      3  C   UNL d   1      26.569 -15.731   0.210  0.00  0.00     0.057 C 
BRANCH   3   4
ATOM      4  C   UNL d   1      26.720 -17.170  -0.013  0.00  0.00     0.006 C 
BRANCH   4   5
ATOM      5  C   UNL d   1      25.685 -18.230   0.034  0.00  0.00     0.000 C 
BRANCH   5   6
ATOM      6  C   UNL d   1      24.292 -17.599  -0.213  0.00  0.00    -0.000 C 
BRANCH   6   7
ATOM      7  C   UNL d   1      23.317 -18.746  -0.362  0.00  0.00    -0.005 C 
ATOM      8  C   UNL d   1      21.972 -18.306  -0.887  0.00  0.00     0.005 C 
ENDBRANCH   6   7
ENDBRANCH   5   6
ENDBRANCH   4   5
ENDBRANCH   3   4
ENDBRANCH   1   3
BRANCH   1   9
ATOM      9  C   UNL d   1      25.530 -15.316  -2.364  0.00  0.00     0.134 C 
BRANCH   9  10
ATOM     10  C   UNL d   1      25.387 -14.448  -3.618  0.00  0.00     0.132 C 
ATOM     11  O   UNL d   1      24.780 -14.783  -4.640  0.00  0.00    -0.298 OA
BRANCH  10  12
ATOM     12  C   UNL d   1      25.919 -13.088  -3.861  0.00  0.00     0.088 C 
BRANCH  12  13
ATOM     13  C   UNL d   1      27.111 -13.300  -4.902  0.00  0.00     0.110 C 
BRANCH  13  14
ATOM     14  C   UNL d   1      27.683 -14.654  -4.809  0.00  0.00     0.217 C 
ATOM     15  O   UNL d   1      27.585 -15.454  -5.734  0.00  0.00    -0.274 OA
ATOM     16  N   UNL d   1      28.320 -14.924  -3.618  0.00  0.00    -0.361 N 
ATOM     17  H   UNL d   1      28.375 -14.238  -2.871  0.00  0.00     0.162 HD
BRANCH  16  18
ATOM     18  C   UNL d   1      28.897 -16.233  -3.472  0.00  0.00     0.127 C 
BRANCH  18  19
ATOM     19  C   UNL d   1      30.328 -16.340  -3.985  0.00  0.00     0.058 C 
BRANCH  19  20
ATOM     20  C   UNL d   1      30.398 -17.423  -5.030  0.00  0.00    -0.057 A 
ATOM     21  C   UNL d   1      30.410 -18.774  -4.661  0.00  0.00     0.007 A 
ATOM     22  C   UNL d   1      30.670 -19.757  -5.617  0.00  0.00     0.001 A 
ATOM     23  C   UNL d   1      30.836 -19.405  -6.956  0.00  0.00     0.000 A 
ATOM     24  C   UNL d   1      30.788 -18.066  -7.336  0.00  0.00     0.001 A 
ATOM     25  C   UNL d   1      30.579 -17.079  -6.376  0.00  0.00     0.007 A 
ENDBRANCH  19  20
ENDBRANCH  18  19
ENDBRANCH  16  18
ENDBRANCH  13  14
ENDBRANCH  12  13
ENDBRANCH  10  12
ENDBRANCH   9  10
ENDBRANCH   1   9
BRANCH   2  26
ATOM     26  N   UNL d   1      27.808 -13.385  -0.079  0.00  0.00    -0.276 N 
ATOM     27  H   UNL d   1      28.256 -14.067   0.538  0.00  0.00     0.189 HD
BRANCH  26  28
ATOM     28  C   UNL d   1      27.458 -12.219   0.636  0.00  0.00     0.083 A 
ATOM     29  C   UNL d   1      27.384 -11.042  -0.158  0.00  0.00     0.036 A 
ATOM     30  C   UNL d   1      27.042  -9.792   0.375  0.00  0.00     0.038 A 
ATOM     31  C   UNL d   1      26.720  -9.702   1.726  0.00  0.00     0.105 A 
ATOM     32  C   UNL d   1      26.831 -10.829   2.551  0.00  0.00     0.074 A 
ATOM     33  C   UNL d   1      27.205 -12.090   2.015  0.00  0.00     0.133 A 
BRANCH  31  34
ATOM     34  N   UNL d   1      26.196  -8.438   2.269  0.00  0.00    -0.116 N 
ATOM     35  O   UNL d   1      26.655  -8.043   3.351  0.00  0.00    -0.532 OA
ATOM     36  O   UNL d   1      25.349  -7.832   1.601  0.00  0.00    -0.532 OA
ENDBRANCH  31  34
BRANCH  33  37
ATOM     37  N   UNL d   1      27.336 -13.194   2.997  0.00  0.00    -0.113 N 
ATOM     38  O   UNL d   1      27.406 -14.343   2.529  0.00  0.00    -0.532 OA
ATOM     39  O   UNL d   1      27.291 -12.975   4.211  0.00  0.00    -0.532 OA
ENDBRANCH  33  37
ENDBRANCH  26  28
ENDBRANCH   2  26
TORSDOF 17
ENDMDL
MODEL 2
REMARK VINA RESULT:    -7.216      1.622      2.410
REMARK INTER + INTRA:         -16.890
REMARK INTER:                 -12.287
REMARK INTRA:                  -4.603
REMARK CONF_INDEPENDENT:        5.071
REMARK UNBOUND:                -4.603
REMARK  17 active torsions:
REMARK  status: ('A' for Active; 'I' for Inactive)
REMARK    1  A    between atoms: C_2  and  C_3 
REMARK    2  A    between atoms: C_3  and  C_4 
REMARK    3  A    between atoms: C_4  and  C_5 
REMARK    4  A    between atoms: C_5  and  C_6 
REMARK    5  A    between atoms: C_6  and  C_7 
REMARK    6  A    between atoms: C_7  and  C_8 
REMARK    7  A    between atoms: C_8  and  C_9 
REMARK    8  A    between atoms: C_9  and  C_11 
REMARK    9  A    between atoms: C_11  and  C_12 
REMARK   10  A    between atoms: C_12  and  C_13 
REMARK       I    between atoms: C_13  and  N_15 
REMARK   11  A    between atoms: N_15  and  C_16 
REMARK   12  A    between atoms: C_16  and  C_17 
REMARK   13  A    between atoms: C_17  and  C_18 
REMARK   14  A    between atoms: N_24  and  N_25 
REMARK   15  A    between atoms: N_25  and  C_26 
REMARK   16  A    between atoms: C_29  and  N_30 
REMARK   17  A    between atoms: C_34  and  N_35 
ROOT
ATOM      1  C   UNL d   1      26.863 -15.099  -1.261  0.00  0.00     0.039 C 
ATOM      2  N   UNL d   1      27.383 -13.892  -1.277  0.00  0.00    -0.183 NA
ENDROOT
BRANCH   1   3
ATOM      3  C   UNL d   1      26.802 -15.828   0.106  0.00  0.00     0.057 C 
BRANCH   3   4
ATOM      4  C   UNL d   1      26.420 -17.237  -0.008  0.00  0.00     0.006 C 
BRANCH   4   5
ATOM      5  C   UNL d   1      25.096 -17.862   0.226  0.00  0.00     0.000 C 
BRANCH   5   6
ATOM      6  C   UNL d   1      24.201 -17.646  -1.020  0.00  0.00    -0.000 C 
BRANCH   6   7
ATOM      7  C   UNL d   1      22.774 -17.584  -0.523  0.00  0.00    -0.005 C 
ATOM      8  C   UNL d   1      22.045 -18.897  -0.673  0.00  0.00     0.005 C 
ENDBRANCH   6   7
ENDBRANCH   5   6
ENDBRANCH   4   5
ENDBRANCH   3   4
ENDBRANCH   1   3
BRANCH   1   9
ATOM      9  C   UNL d   1      26.303 -15.666  -2.651  0.00  0.00     0.134 C 
BRANCH   9  10
ATOM     10  C   UNL d   1      25.547 -14.813  -3.675  0.00  0.00     0.132 C 
ATOM     11  O   UNL d   1      25.156 -15.218  -4.774  0.00  0.00    -0.298 OA
BRANCH  10  12
ATOM     12  C   UNL d   1      25.142 -13.393  -3.572  0.00  0.00     0.088 C 
BRANCH  12  13
ATOM     13  C   UNL d   1      26.038 -12.638  -4.657  0.00  0.00     0.110 C 
BRANCH  13  14
ATOM     14  C   UNL d   1      27.344 -13.293  -4.839  0.00  0.00     0.217 C 
ATOM     15  O   UNL d   1      27.606 -13.924  -5.858  0.00  0.00    -0.274 OA
ATOM     16  N   UNL d   1      28.216 -13.129  -3.787  0.00  0.00    -0.361 N 
ATOM     17  H   UNL d   1      27.962 -12.606  -2.954  0.00  0.00     0.162 HD
BRANCH  16  18
ATOM     18  C   UNL d   1      29.508 -13.749  -3.910  0.00  0.00     0.127 C 
BRANCH  18  19
ATOM     19  C   UNL d   1      29.537 -15.210  -3.480  0.00  0.00     0.058 C 
BRANCH  19  20
ATOM     20  C   UNL d   1      30.074 -16.048  -4.612  0.00  0.00    -0.057 A 
ATOM     21  C   UNL d   1      30.484 -15.453  -5.811  0.00  0.00     0.007 A 
ATOM     22  C   UNL d   1      30.793 -16.248  -6.915  0.00  0.00     0.001 A 
ATOM     23  C   UNL d   1      30.775 -17.638  -6.805  0.00  0.00     0.000 A 
ATOM     24  C   UNL d   1      30.405 -18.237  -5.604  0.00  0.00     0.001 A 
ATOM     25  C   UNL d   1      30.047 -17.446  -4.514  0.00  0.00     0.007 A 
ENDBRANCH  19  20
ENDBRANCH  18  19
ENDBRANCH  16  18
ENDBRANCH  13  14
ENDBRANCH  12  13
ENDBRANCH  10  12
ENDBRANCH   9  10
ENDBRANCH   1   9
BRANCH   2  26
ATOM     26  N   UNL d   1      27.793 -13.357  -0.082  0.00  0.00    -0.276 N 
ATOM     27  H   UNL d   1      27.959 -13.949   0.735  0.00  0.00     0.189 HD
BRANCH  26  28
ATOM     28  C   UNL d   1      27.393 -12.062   0.312  0.00  0.00     0.083 A 
ATOM     29  C   UNL d   1      26.842 -11.989   1.620  0.00  0.00     0.036 A 
ATOM     30  C   UNL d   1      26.398 -10.788   2.187  0.00  0.00     0.038 A 
ATOM     31  C   UNL d   1      26.539  -9.608   1.461  0.00  0.00     0.105 A 
ATOM     32  C   UNL d   1      27.030  -9.647   0.149  0.00  0.00     0.074 A 
ATOM     33  C   UNL d   1      27.454 -10.871  -0.436  0.00  0.00     0.133 A 
BRANCH  31  34
ATOM     34  N   UNL d   1      26.238  -8.316   2.098  0.00  0.00    -0.116 N 
ATOM     35  O   UNL d   1      25.529  -7.517   1.470  0.00  0.00    -0.532 OA
ATOM     36  O   UNL d   1      26.687  -8.117   3.234  0.00  0.00    -0.532 OA
ENDBRANCH  31  34
BRANCH  33  37
ATOM     37  N   UNL d   1      27.906 -10.789  -1.846  0.00  0.00    -0.113 N 
ATOM     38  O   UNL d   1      27.017 -10.650  -2.703  0.00  0.00    -0.532 OA
ATOM     39  O   UNL d   1      29.094 -10.938  -2.143  0.00  0.00    -0.532 OA
ENDBRANCH  33  37
ENDBRANCH  26  28
ENDBRANCH   2  26
TORSDOF 17
ENDMDL
MODEL 3
REMARK VINA RESULT:    -7.094      1.680      2.888
REMARK INTER + INTRA:         -16.731
REMARK INTER:                 -12.165
REMARK INTRA:                  -4.566
REMARK CONF_INDEPENDENT:        5.071
REMARK UNBOUND:                -4.566
REMARK  17 active torsions:
REMARK  status: ('A' for Active; 'I' for Inactive)
REMARK    1  A    between atoms: C_2  and  C_3 
REMARK    2  A    between atoms: C_3  and  C_4 
REMARK    3  A    between atoms: C_4  and  C_5 
REMARK    4  A    between atoms: C_5  and  C_6 
REMARK    5  A    between atoms: C_6  and  C_7 
REMARK    6  A    between atoms: C_7  and  C_8 
REMARK    7  A    between atoms: C_8  and  C_9 
REMARK    8  A    between atoms: C_9  and  C_11 
REMARK    9  A    between atoms: C_11  and  C_12 
REMARK   10  A    between atoms: C_12  and  C_13 
REMARK       I    between atoms: C_13  and  N_15 
REMARK   11  A    between atoms: N_15  and  C_16 
REMARK   12  A    between atoms: C_16  and  C_17 
REMARK   13  A    between atoms: C_17  and  C_18 
REMARK   14  A    between atoms: N_24  and  N_25 
REMARK   15  A    between atoms: N_25  and  C_26 
REMARK   16  A    between atoms: C_29  and  N_30 
REMARK   17  A    between atoms: C_34  and  N_35 
ROOT
ATOM      1  C   UNL d   1      26.253 -14.863  -1.132  0.00  0.00     0.039 C 
ATOM      2  N   UNL d   1      27.008 -13.788  -1.198  0.00  0.00    -0.183 NA
ENDROOT
BRANCH   1   3
ATOM      3  C   UNL d   1      26.286 -15.673   0.190  0.00  0.00     0.057 C 
BRANCH   3   4
ATOM      4  C   UNL d   1      26.533 -17.101  -0.014  0.00  0.00     0.006 C 
BRANCH   4   5
ATOM      5  C   UNL d   1      25.559 -18.218  -0.038  0.00  0.00     0.000 C 
BRANCH   5   6
ATOM      6  C   UNL d   1      24.128 -17.648  -0.203  0.00  0.00    -0.000 C 
BRANCH   6   7
ATOM      7  C   UNL d   1      23.283 -18.760  -0.782  0.00  0.00    -0.005 C 
ATOM      8  C   UNL d   1      21.819 -18.400  -0.866  0.00  0.00     0.005 C 
ENDBRANCH   6   7
ENDBRANCH   5   6
ENDBRANCH   4   5
ENDBRANCH   3   4
ENDBRANCH   1   3
BRANCH   1   9
ATOM      9  C   UNL d   1      25.344 -15.190  -2.409  0.00  0.00     0.134 C 
BRANCH   9  10
ATOM     10  C   UNL d   1      25.167 -14.236  -3.596  0.00  0.00     0.132 C 
ATOM     11  O   UNL d   1      24.424 -14.444  -4.559  0.00  0.00    -0.298 OA
BRANCH  10  12
ATOM     12  C   UNL d   1      25.816 -12.926  -3.828  0.00  0.00     0.088 C 
BRANCH  12  13
ATOM     13  C   UNL d   1      26.725 -13.150  -5.120  0.00  0.00     0.110 C 
BRANCH  13  14
ATOM     14  C   UNL d   1      27.470 -14.418  -5.052  0.00  0.00     0.217 C 
ATOM     15  O   UNL d   1      27.491 -15.199  -5.999  0.00  0.00    -0.274 OA
ATOM     16  N   UNL d   1      28.123 -14.633  -3.859  0.00  0.00    -0.361 N 
ATOM     17  H   UNL d   1      28.076 -13.967  -3.094  0.00  0.00     0.162 HD
BRANCH  16  18
ATOM     18  C   UNL d   1      28.866 -15.858  -3.736  0.00  0.00     0.127 C 
BRANCH  18  19
ATOM     19  C   UNL d   1      28.775 -16.502  -2.358  0.00  0.00     0.058 C 
BRANCH  19  20
ATOM     20  C   UNL d   1      29.589 -15.695  -1.381  0.00  0.00    -0.057 A 
ATOM     21  C   UNL d   1      30.117 -14.450  -1.746  0.00  0.00     0.007 A 
ATOM     22  C   UNL d   1      31.026 -13.804  -0.907  0.00  0.00     0.001 A 
ATOM     23  C   UNL d   1      31.347 -14.353   0.333  0.00  0.00     0.000 A 
ATOM     24  C   UNL d   1      30.797 -15.573   0.719  0.00  0.00     0.001 A 
ATOM     25  C   UNL d   1      29.929 -16.245  -0.138  0.00  0.00     0.007 A 
ENDBRANCH  19  20
ENDBRANCH  18  19
ENDBRANCH  16  18
ENDBRANCH  13  14
ENDBRANCH  12  13
ENDBRANCH  10  12
ENDBRANCH   9  10
ENDBRANCH   1   9
BRANCH   2  26
ATOM     26  N   UNL d   1      27.732 -13.446  -0.085  0.00  0.00    -0.276 N 
ATOM     27  H   UNL d   1      28.156 -14.160   0.512  0.00  0.00     0.189 HD
BRANCH  26  28
ATOM     28  C   UNL d   1      27.415 -12.292   0.663  0.00  0.00     0.083 A 
ATOM     29  C   UNL d   1      27.342 -11.096  -0.102  0.00  0.00     0.036 A 
ATOM     30  C   UNL d   1      27.031  -9.854   0.465  0.00  0.00     0.038 A 
ATOM     31  C   UNL d   1      26.739  -9.789   1.825  0.00  0.00     0.105 A 
ATOM     32  C   UNL d   1      26.850 -10.936   2.622  0.00  0.00     0.074 A 
ATOM     33  C   UNL d   1      27.193 -12.191   2.050  0.00  0.00     0.133 A 
BRANCH  31  34
ATOM     34  N   UNL d   1      26.246  -8.530   2.407  0.00  0.00    -0.116 N 
ATOM     35  O   UNL d   1      26.663  -8.215   3.531  0.00  0.00    -0.532 OA
ATOM     36  O   UNL d   1      25.467  -7.849   1.729  0.00  0.00    -0.532 OA
ENDBRANCH  31  34
BRANCH  33  37
ATOM     37  N   UNL d   1      27.328 -13.319   3.004  0.00  0.00    -0.113 N 
ATOM     38  O   UNL d   1      27.243 -13.033   4.210  0.00  0.00    -0.532 OA
ATOM     39  O   UNL d   1      27.596 -14.457   2.610  0.00  0.00    -0.532 OA
ENDBRANCH  33  37
ENDBRANCH  26  28
ENDBRANCH   2  26
TORSDOF 17
ENDMDL
MODEL 4
REMARK VINA RESULT:    -7.053      1.336      5.104
REMARK INTER + INTRA:         -16.654
REMARK INTER:                 -12.124
REMARK INTRA:                  -4.530
REMARK CONF_INDEPENDENT:        5.071
REMARK UNBOUND:                -4.530
REMARK  17 active torsions:
REMARK  status: ('A' for Active; 'I' for Inactive)
REMARK    1  A    between atoms: C_2  and  C_3 
REMARK    2  A    between atoms: C_3  and  C_4 
REMARK    3  A    between atoms: C_4  and  C_5 
REMARK    4  A    between atoms: C_5  and  C_6 
REMARK    5  A    between atoms: C_6  and  C_7 
REMARK    6  A    between atoms: C_7  and  C_8 
REMARK    7  A    between atoms: C_8  and  C_9 
REMARK    8  A    between atoms: C_9  and  C_11 
REMARK    9  A    between atoms: C_11  and  C_12 
REMARK   10  A    between atoms: C_12  and  C_13 
REMARK       I    between atoms: C_13  and  N_15 
REMARK   11  A    between atoms: N_15  and  C_16 
REMARK   12  A    between atoms: C_16  and  C_17 
REMARK   13  A    between atoms: C_17  and  C_18 
REMARK   14  A    between atoms: N_24  and  N_25 
REMARK   15  A    between atoms: N_25  and  C_26 
REMARK   16  A    between atoms: C_29  and  N_30 
REMARK   17  A    between atoms: C_34  and  N_35 
ROOT
ATOM      1  C   UNL d   1      28.611 -13.840  -2.920  0.00  0.00     0.039 C 
ATOM      2  N   UNL d   1      28.087 -12.898  -2.168  0.00  0.00    -0.183 NA
ENDROOT
BRANCH   1   3
ATOM      3  C   UNL d   1      29.564 -14.851  -2.230  0.00  0.00     0.057 C 
BRANCH   3   4
ATOM      4  C   UNL d   1      29.321 -16.238  -2.629  0.00  0.00     0.006 C 
BRANCH   4   5
ATOM      5  C   UNL d   1      30.304 -17.286  -2.993  0.00  0.00     0.000 C 
BRANCH   5   6
ATOM      6  C   UNL d   1      30.091 -17.699  -4.471  0.00  0.00    -0.000 C 
BRANCH   6   7
ATOM      7  C   UNL d   1      29.749 -16.435  -5.228  0.00  0.00    -0.005 C 
ATOM      8  C   UNL d   1      30.970 -15.632  -5.608  0.00  0.00     0.005 C 
ENDBRANCH   6   7
ENDBRANCH   5   6
ENDBRANCH   4   5
ENDBRANCH   3   4
ENDBRANCH   1   3
BRANCH   1   9
ATOM      9  C   UNL d   1      28.170 -13.870  -4.459  0.00  0.00     0.134 C 
BRANCH   9  10
ATOM     10  C   UNL d   1      26.806 -14.374  -4.944  0.00  0.00     0.132 C 
ATOM     11  O   UNL d   1      26.641 -15.348  -5.684  0.00  0.00    -0.298 OA
BRANCH  10  12
ATOM     12  C   UNL d   1      25.463 -13.830  -4.643  0.00  0.00     0.088 C 
BRANCH  12  13
ATOM     13  C   UNL d   1      25.325 -13.951  -3.057  0.00  0.00     0.110 C 
BRANCH  13  14
ATOM     14  C   UNL d   1      25.618 -15.314  -2.585  0.00  0.00     0.217 C 
ATOM     15  O   UNL d   1      25.156 -16.300  -3.150  0.00  0.00    -0.274 OA
ATOM     16  N   UNL d   1      26.439 -15.372  -1.480  0.00  0.00    -0.361 N 
ATOM     17  H   UNL d   1      26.797 -14.533  -1.033  0.00  0.00     0.162 HD
BRANCH  16  18
ATOM     18  C   UNL d   1      26.757 -16.679  -0.974  0.00  0.00     0.127 C 
BRANCH  18  19
ATOM     19  C   UNL d   1      25.930 -17.094   0.236  0.00  0.00     0.058 C 
BRANCH  19  20
ATOM     20  C   UNL d   1      24.556 -17.507  -0.223  0.00  0.00    -0.057 A 
ATOM     21  C   UNL d   1      23.555 -16.551  -0.438  0.00  0.00     0.007 A 
ATOM     22  C   UNL d   1      22.241 -16.956  -0.672  0.00  0.00     0.001 A 
ATOM     23  C   UNL d   1      21.934 -18.312  -0.777  0.00  0.00     0.000 A 
ATOM     24  C   UNL d   1      22.931 -19.268  -0.602  0.00  0.00     0.001 A 
ATOM     25  C   UNL d   1      24.235 -18.868  -0.318  0.00  0.00     0.007 A 
ENDBRANCH  19  20
ENDBRANCH  18  19
ENDBRANCH  16  18
ENDBRANCH  13  14
ENDBRANCH  12  13
ENDBRANCH  10  12
ENDBRANCH   9  10
ENDBRANCH   1   9
BRANCH   2  26
ATOM     26  N   UNL d   1      28.388 -12.906  -0.830  0.00  0.00    -0.276 N 
ATOM     27  H   UNL d   1      28.571 -13.781  -0.332  0.00  0.00     0.189 HD
BRANCH  26  28
ATOM     28  C   UNL d   1      27.851 -11.936   0.043  0.00  0.00     0.083 A 
ATOM     29  C   UNL d   1      28.051 -10.592  -0.374  0.00  0.00     0.036 A 
ATOM     30  C   UNL d   1      27.580  -9.496   0.359  0.00  0.00     0.038 A 
ATOM     31  C   UNL d   1      26.850  -9.726   1.521  0.00  0.00     0.105 A 
ATOM     32  C   UNL d   1      26.675 -11.034   1.992  0.00  0.00     0.074 A 
ATOM     33  C   UNL d   1      27.178 -12.145   1.262  0.00  0.00     0.133 A 
BRANCH  31  34
ATOM     34  N   UNL d   1      26.203  -8.600   2.213  0.00  0.00    -0.116 N 
ATOM     35  O   UNL d   1      26.761  -8.150   3.224  0.00  0.00    -0.532 OA
ATOM     36  O   UNL d   1      25.155  -8.152   1.730  0.00  0.00    -0.532 OA
ENDBRANCH  31  34
BRANCH  33  37
ATOM     37  N   UNL d   1      26.973 -13.473   1.889  0.00  0.00    -0.113 N 
ATOM     38  O   UNL d   1      27.070 -14.458   1.138  0.00  0.00    -0.532 OA
ATOM     39  O   UNL d   1      26.641 -13.574   3.074  0.00  0.00    -0.532 OA
ENDBRANCH  33  37
ENDBRANCH  26  28
ENDBRANCH   2  26
TORSDOF 17
ENDMDL
MODEL 5
REMARK VINA RESULT:    -6.507      2.010      4.535
REMARK INTER + INTRA:         -16.550
REMARK INTER:                 -11.578
REMARK INTRA:                  -4.972
REMARK CONF_INDEPENDENT:        5.071
REMARK UNBOUND:                -4.972
REMARK  17 active torsions:
REMARK  status: ('A' for Active; 'I' for Inactive)
REMARK    1  A    between atoms: C_2  and  C_3 
REMARK    2  A    between atoms: C_3  and  C_4 
REMARK    3  A    between atoms: C_4  and  C_5 
REMARK    4  A    between atoms: C_5  and  C_6 
REMARK    5  A    between atoms: C_6  and  C_7 
REMARK    6  A    between atoms: C_7  and  C_8 
REMARK    7  A    between atoms: C_8  and  C_9 
REMARK    8  A    between atoms: C_9  and  C_11 
REMARK    9  A    between atoms: C_11  and  C_12 
REMARK   10  A    between atoms: C_12  and  C_13 
REMARK       I    between atoms: C_13  and  N_15 
REMARK   11  A    between atoms: N_15  and  C_16 
REMARK   12  A    between atoms: C_16  and  C_17 
REMARK   13  A    between atoms: C_17  and  C_18 
REMARK   14  A    between atoms: N_24  and  N_25 
REMARK   15  A    between atoms: N_25  and  C_26 
REMARK   16  A    between atoms: C_29  and  N_30 
REMARK   17  A    between atoms: C_34  and  N_35 
ROOT
ATOM      1  C   UNL d   1      28.421 -16.377  -0.050  0.00  0.00     0.039 C 
ATOM      2  N   UNL d   1      29.086 -15.318   0.359  0.00  0.00    -0.183 NA
ENDROOT
BRANCH   1   3
ATOM      3  C   UNL d   1      27.378 -16.981   0.926  0.00  0.00     0.057 C 
BRANCH   3   4
ATOM      4  C   UNL d   1      26.335 -17.753   0.250  0.00  0.00     0.006 C 
BRANCH   4   5
ATOM      5  C   UNL d   1      25.531 -17.386  -0.940  0.00  0.00     0.000 C 
BRANCH   5   6
ATOM      6  C   UNL d   1      24.428 -16.380  -0.522  0.00  0.00    -0.000 C 
BRANCH   6   7
ATOM      7  C   UNL d   1      23.111 -17.116  -0.622  0.00  0.00    -0.005 C 
ATOM      8  C   UNL d   1      23.284 -18.590  -0.895  0.00  0.00     0.005 C 
ENDBRANCH   6   7
ENDBRANCH   5   6
ENDBRANCH   4   5
ENDBRANCH   3   4
ENDBRANCH   1   3
BRANCH   1   9
ATOM      9  C   UNL d   1      28.728 -16.898  -1.533  0.00  0.00     0.134 C 
BRANCH   9  10
ATOM     10  C   UNL d   1      29.241 -15.997  -2.662  0.00  0.00     0.132 C 
ATOM     11  O   UNL d   1      29.542 -14.807  -2.530  0.00  0.00    -0.298 OA
BRANCH  10  12
ATOM     12  C   UNL d   1      29.475 -16.345  -4.082  0.00  0.00     0.088 C 
BRANCH  12  13
ATOM     13  C   UNL d   1      28.803 -15.154  -4.905  0.00  0.00     0.110 C 
BRANCH  13  14
ATOM     14  C   UNL d   1      27.333 -15.194  -4.825  0.00  0.00     0.217 C 
ATOM     15  O   UNL d   1      26.651 -15.575  -5.771  0.00  0.00    -0.274 OA
ATOM     16  N   UNL d   1      26.816 -14.777  -3.618  0.00  0.00    -0.361 N 
ATOM     17  H   UNL d   1      27.412 -14.461  -2.859  0.00  0.00     0.162 HD
BRANCH  16  18
ATOM     18  C   UNL d   1      25.384 -14.795  -3.484  0.00  0.00     0.127 C 
BRANCH  18  19
ATOM     19  C   UNL d   1      24.675 -13.698  -4.268  0.00  0.00     0.058 C 
BRANCH  19  20
ATOM     20  C   UNL d   1      25.529 -12.457  -4.265  0.00  0.00    -0.057 A 
ATOM     21  C   UNL d   1      25.705 -11.711  -3.093  0.00  0.00     0.007 A 
ATOM     22  C   UNL d   1      26.332 -10.466  -3.144  0.00  0.00     0.001 A 
ATOM     23  C   UNL d   1      26.862  -9.998  -4.345  0.00  0.00     0.000 A 
ATOM     24  C   UNL d   1      26.725 -10.751  -5.509  0.00  0.00     0.001 A 
ATOM     25  C   UNL d   1      26.054 -11.971  -5.471  0.00  0.00     0.007 A 
ENDBRANCH  19  20
ENDBRANCH  18  19
ENDBRANCH  16  18
ENDBRANCH  13  14
ENDBRANCH  12  13
ENDBRANCH  10  12
ENDBRANCH   9  10
ENDBRANCH   1   9
BRANCH   2  26
ATOM     26  N   UNL d   1      28.779 -14.809   1.594  0.00  0.00    -0.276 N 
ATOM     27  H   UNL d   1      28.599 -15.423   2.392  0.00  0.00     0.189 HD
BRANCH  26  28
ATOM     28  C   UNL d   1      28.067 -13.597   1.726  0.00  0.00     0.083 A 
ATOM     29  C   UNL d   1      28.051 -13.064   3.044  0.00  0.00     0.036 A 
ATOM     30  C   UNL d   1      27.403 -11.865   3.365  0.00  0.00     0.038 A 
ATOM     31  C   UNL d   1      26.785 -11.140   2.350  0.00  0.00     0.105 A 
ATOM     32  C   UNL d   1      26.735 -11.658   1.049  0.00  0.00     0.074 A 
ATOM     33  C   UNL d   1      27.369 -12.889   0.729  0.00  0.00     0.133 A 
BRANCH  31  34
ATOM     34  N   UNL d   1      26.246  -9.800   2.632  0.00  0.00    -0.116 N 
ATOM     35  O   UNL d   1      25.555  -9.262   1.755  0.00  0.00    -0.532 OA
ATOM     36  O   UNL d   1      26.493  -9.302   3.738  0.00  0.00    -0.532 OA
ENDBRANCH  31  34
BRANCH  33  37
ATOM     37  N   UNL d   1      27.203 -13.355  -0.669  0.00  0.00    -0.113 N 
ATOM     38  O   UNL d   1      27.944 -12.830  -1.517  0.00  0.00    -0.532 OA
ATOM     39  O   UNL d   1      26.315 -14.157  -0.971  0.00  0.00    -0.532 OA
ENDBRANCH  33  37
ENDBRANCH  26  28
ENDBRANCH   2  26
TORSDOF 17
ENDMDL
MODEL 6
REMARK VINA RESULT:    -6.418      2.438      4.993
REMARK INTER + INTRA:         -16.586
REMARK INTER:                 -11.489
REMARK INTRA:                  -5.097
REMARK CONF_INDEPENDENT:        5.071
REMARK UNBOUND:                -5.097
REMARK  17 active torsions:
REMARK  status: ('A' for Active; 'I' for Inactive)
REMARK    1  A    between atoms: C_2  and  C_3 
REMARK    2  A    between atoms: C_3  and  C_4 
REMARK    3  A    between atoms: C_4  and  C_5 
REMARK    4  A    between atoms: C_5  and  C_6 
REMARK    5  A    between atoms: C_6  and  C_7 
REMARK    6  A    between atoms: C_7  and  C_8 
REMARK    7  A    between atoms: C_8  and  C_9 
REMARK    8  A    between atoms: C_9  and  C_11 
REMARK    9  A    between atoms: C_11  and  C_12 
REMARK   10  A    between atoms: C_12  and  C_13 
REMARK       I    between atoms: C_13  and  N_15 
REMARK   11  A    between atoms: N_15  and  C_16 
REMARK   12  A    between atoms: C_16  and  C_17 
REMARK   13  A    between atoms: C_17  and  C_18 
REMARK   14  A    between atoms: N_24  and  N_25 
REMARK   15  A    between atoms: N_25  and  C_26 
REMARK   16  A    between atoms: C_29  and  N_30 
REMARK   17  A    between atoms: C_34  and  N_35 
ROOT
ATOM      1  C   UNL d   1      28.842 -13.440  -2.991  0.00  0.00     0.039 C 
ATOM      2  N   UNL d   1      28.033 -12.763  -2.207  0.00  0.00    -0.183 NA
ENDROOT
BRANCH   1   3
ATOM      3  C   UNL d   1      30.116 -14.045  -2.345  0.00  0.00     0.057 C 
BRANCH   3   4
ATOM      4  C   UNL d   1      29.871 -15.323  -1.675  0.00  0.00     0.006 C 
BRANCH   4   5
ATOM      5  C   UNL d   1      30.233 -15.733  -0.297  0.00  0.00     0.000 C 
BRANCH   5   6
ATOM      6  C   UNL d   1      30.899 -14.541   0.434  0.00  0.00    -0.000 C 
BRANCH   6   7
ATOM      7  C   UNL d   1      30.712 -14.783   1.916  0.00  0.00    -0.005 C 
ATOM      8  C   UNL d   1      29.874 -13.717   2.581  0.00  0.00     0.005 C 
ENDBRANCH   6   7
ENDBRANCH   5   6
ENDBRANCH   4   5
ENDBRANCH   3   4
ENDBRANCH   1   3
BRANCH   1   9
ATOM      9  C   UNL d   1      28.398 -13.607  -4.521  0.00  0.00     0.134 C 
BRANCH   9  10
ATOM     10  C   UNL d   1      27.031 -14.146  -4.957  0.00  0.00     0.132 C 
ATOM     11  O   UNL d   1      26.857 -15.200  -5.576  0.00  0.00    -0.298 OA
BRANCH  10  12
ATOM     12  C   UNL d   1      25.694 -13.550  -4.739  0.00  0.00     0.088 C 
BRANCH  12  13
ATOM     13  C   UNL d   1      25.408 -13.760  -3.182  0.00  0.00     0.110 C 
BRANCH  13  14
ATOM     14  C   UNL d   1      25.702 -15.138  -2.753  0.00  0.00     0.217 C 
ATOM     15  O   UNL d   1      25.227 -16.106  -3.339  0.00  0.00    -0.274 OA
ATOM     16  N   UNL d   1      26.540 -15.229  -1.664  0.00  0.00    -0.361 N 
ATOM     17  H   UNL d   1      26.908 -14.405  -1.199  0.00  0.00     0.162 HD
BRANCH  16  18
ATOM     18  C   UNL d   1      26.860 -16.552  -1.200  0.00  0.00     0.127 C 
BRANCH  18  19
ATOM     19  C   UNL d   1      26.203 -16.921   0.124  0.00  0.00     0.058 C 
BRANCH  19  20
ATOM     20  C   UNL d   1      24.772 -17.318  -0.129  0.00  0.00    -0.057 A 
ATOM     21  C   UNL d   1      24.390 -18.665  -0.123  0.00  0.00     0.007 A 
ATOM     22  C   UNL d   1      23.113 -19.031  -0.548  0.00  0.00     0.001 A 
ATOM     23  C   UNL d   1      22.184 -18.052  -0.899  0.00  0.00     0.000 A 
ATOM     24  C   UNL d   1      22.544 -16.707  -0.872  0.00  0.00     0.001 A 
ATOM     25  C   UNL d   1      23.835 -16.342  -0.496  0.00  0.00     0.007 A 
ENDBRANCH  19  20
ENDBRANCH  18  19
ENDBRANCH  16  18
ENDBRANCH  13  14
ENDBRANCH  12  13
ENDBRANCH  10  12
ENDBRANCH   9  10
ENDBRANCH   1   9
BRANCH   2  26
ATOM     26  N   UNL d   1      28.354 -12.679  -0.877  0.00  0.00    -0.276 N 
ATOM     27  H   UNL d   1      28.606 -13.511  -0.338  0.00  0.00     0.189 HD
BRANCH  26  28
ATOM     28  C   UNL d   1      27.762 -11.704  -0.045  0.00  0.00     0.083 A 
ATOM     29  C   UNL d   1      27.992 -10.362  -0.454  0.00  0.00     0.036 A 
ATOM     30  C   UNL d   1      27.477  -9.262   0.241  0.00  0.00     0.038 A 
ATOM     31  C   UNL d   1      26.671  -9.486   1.353  0.00  0.00     0.105 A 
ATOM     32  C   UNL d   1      26.463 -10.791   1.818  0.00  0.00     0.074 A 
ATOM     33  C   UNL d   1      27.010 -11.906   1.128  0.00  0.00     0.133 A 
BRANCH  31  34
ATOM     34  N   UNL d   1      25.982  -8.355   1.997  0.00  0.00    -0.116 N 
ATOM     35  O   UNL d   1      26.289  -8.086   3.167  0.00  0.00    -0.532 OA
ATOM     36  O   UNL d   1      25.158  -7.724   1.323  0.00  0.00    -0.532 OA
ENDBRANCH  31  34
BRANCH  33  37
ATOM     37  N   UNL d   1      26.762 -13.231   1.746  0.00  0.00    -0.113 N 
ATOM     38  O   UNL d   1      26.931 -14.221   1.014  0.00  0.00    -0.532 OA
ATOM     39  O   UNL d   1      26.331 -13.325   2.899  0.00  0.00    -0.532 OA
ENDBRANCH  33  37
ENDBRANCH  26  28
ENDBRANCH   2  26
TORSDOF 17
ENDMDL
MODEL 7
REMARK VINA RESULT:    -6.168      2.348      3.206
REMARK INTER + INTRA:         -16.637
REMARK INTER:                 -11.239
REMARK INTRA:                  -5.398
REMARK CONF_INDEPENDENT:        5.071
REMARK UNBOUND:                -5.398
REMARK  17 active torsions:
REMARK  status: ('A' for Active; 'I' for Inactive)
REMARK    1  A    between atoms: C_2  and  C_3 
REMARK    2  A    between atoms: C_3  and  C_4 
REMARK    3  A    between atoms: C_4  and  C_5 
REMARK    4  A    between atoms: C_5  and  C_6 
REMARK    5  A    between atoms: C_6  and  C_7 
REMARK    6  A    between atoms: C_7  and  C_8 
REMARK    7  A    between atoms: C_8  and  C_9 
REMARK    8  A    between atoms: C_9  and  C_11 
REMARK    9  A    between atoms: C_11  and  C_12 
REMARK   10  A    between atoms: C_12  and  C_13 
REMARK       I    between atoms: C_13  and  N_15 
REMARK   11  A    between atoms: N_15  and  C_16 
REMARK   12  A    between atoms: C_16  and  C_17 
REMARK   13  A    between atoms: C_17  and  C_18 
REMARK   14  A    between atoms: N_24  and  N_25 
REMARK   15  A    between atoms: N_25  and  C_26 
REMARK   16  A    between atoms: C_29  and  N_30 
REMARK   17  A    between atoms: C_34  and  N_35 
ROOT
ATOM      1  C   UNL d   1      26.740 -15.078  -1.325  0.00  0.00     0.039 C 
ATOM      2  N   UNL d   1      27.299 -13.889  -1.277  0.00  0.00    -0.183 NA
ENDROOT
BRANCH   1   3
ATOM      3  C   UNL d   1      26.655 -15.877   0.002  0.00  0.00     0.057 C 
BRANCH   3   4
ATOM      4  C   UNL d   1      26.236 -17.267  -0.187  0.00  0.00     0.006 C 
BRANCH   4   5
ATOM      5  C   UNL d   1      25.019 -17.788  -0.853  0.00  0.00     0.000 C 
BRANCH   5   6
ATOM      6  C   UNL d   1      23.985 -18.205   0.223  0.00  0.00    -0.000 C 
BRANCH   6   7
ATOM      7  C   UNL d   1      22.629 -17.778  -0.292  0.00  0.00    -0.005 C 
ATOM      8  C   UNL d   1      21.838 -18.923  -0.878  0.00  0.00     0.005 C 
ENDBRANCH   6   7
ENDBRANCH   5   6
ENDBRANCH   4   5
ENDBRANCH   3   4
ENDBRANCH   1   3
BRANCH   1   9
ATOM      9  C   UNL d   1      26.162 -15.551  -2.742  0.00  0.00     0.134 C 
BRANCH   9  10
ATOM     10  C   UNL d   1      25.501 -14.606  -3.750  0.00  0.00     0.132 C 
ATOM     11  O   UNL d   1      25.156 -14.926  -4.891  0.00  0.00    -0.298 OA
BRANCH  10  12
ATOM     12  C   UNL d   1      25.149 -13.178  -3.580  0.00  0.00     0.088 C 
BRANCH  12  13
ATOM     13  C   UNL d   1      26.012 -12.416  -4.686  0.00  0.00     0.110 C 
BRANCH  13  14
ATOM     14  C   UNL d   1      27.334 -13.037  -4.872  0.00  0.00     0.217 C 
ATOM     15  O   UNL d   1      27.646 -13.572  -5.932  0.00  0.00    -0.274 OA
ATOM     16  N   UNL d   1      28.162 -12.958  -3.774  0.00  0.00    -0.361 N 
ATOM     17  H   UNL d   1      27.867 -12.513  -2.910  0.00  0.00     0.162 HD
BRANCH  16  18
ATOM     18  C   UNL d   1      29.466 -13.550  -3.900  0.00  0.00     0.127 C 
BRANCH  18  19
ATOM     19  C   UNL d   1      30.299 -13.488  -2.626  0.00  0.00     0.058 C 
BRANCH  19  20
ATOM     20  C   UNL d   1      30.217 -14.815  -1.917  0.00  0.00    -0.057 A 
ATOM     21  C   UNL d   1      29.827 -15.971  -2.605  0.00  0.00     0.007 A 
ATOM     22  C   UNL d   1      29.567 -17.148  -1.902  0.00  0.00     0.001 A 
ATOM     23  C   UNL d   1      29.775 -17.201  -0.524  0.00  0.00     0.000 A 
ATOM     24  C   UNL d   1      30.200 -16.066   0.162  0.00  0.00     0.001 A 
ATOM     25  C   UNL d   1      30.412 -14.876  -0.531  0.00  0.00     0.007 A 
ENDBRANCH  19  20
ENDBRANCH  18  19
ENDBRANCH  16  18
ENDBRANCH  13  14
ENDBRANCH  12  13
ENDBRANCH  10  12
ENDBRANCH   9  10
ENDBRANCH   1   9
BRANCH   2  26
ATOM     26  N   UNL d   1      27.726 -13.433  -0.056  0.00  0.00    -0.276 N 
ATOM     27  H   UNL d   1      27.892 -14.075   0.722  0.00  0.00     0.189 HD
BRANCH  26  28
ATOM     28  C   UNL d   1      27.347 -12.159   0.418  0.00  0.00     0.083 A 
ATOM     29  C   UNL d   1      26.824 -12.155   1.740  0.00  0.00     0.036 A 
ATOM     30  C   UNL d   1      26.404 -10.984   2.383  0.00  0.00     0.038 A 
ATOM     31  C   UNL d   1      26.542  -9.767   1.721  0.00  0.00     0.105 A 
ATOM     32  C   UNL d   1      27.005  -9.735   0.399  0.00  0.00     0.074 A 
ATOM     33  C   UNL d   1      27.404 -10.928  -0.262  0.00  0.00     0.133 A 
BRANCH  31  34
ATOM     34  N   UNL d   1      26.266  -8.510   2.437  0.00  0.00    -0.116 N 
ATOM     35  O   UNL d   1      25.531  -7.681   1.881  0.00  0.00    -0.532 OA
ATOM     36  O   UNL d   1      26.762  -8.368   3.562  0.00  0.00    -0.532 OA
ENDBRANCH  31  34
BRANCH  33  37
ATOM     37  N   UNL d   1      27.828 -10.770  -1.675  0.00  0.00    -0.113 N 
ATOM     38  O   UNL d   1      26.920 -10.623  -2.509  0.00  0.00    -0.532 OA
ATOM     39  O   UNL d   1      29.016 -10.868  -1.998  0.00  0.00    -0.532 OA
ENDBRANCH  33  37
ENDBRANCH  26  28
ENDBRANCH   2  26
TORSDOF 17
ENDMDL
MODEL 8
REMARK VINA RESULT:    -6.076      2.471      3.870
REMARK INTER + INTRA:         -16.173
REMARK INTER:                 -11.147
REMARK INTRA:                  -5.026
REMARK CONF_INDEPENDENT:        5.071
REMARK UNBOUND:                -5.026
REMARK  17 active torsions:
REMARK  status: ('A' for Active; 'I' for Inactive)
REMARK    1  A    between atoms: C_2  and  C_3 
REMARK    2  A    between atoms: C_3  and  C_4 
REMARK    3  A    between atoms: C_4  and  C_5 
REMARK    4  A    between atoms: C_5  and  C_6 
REMARK    5  A    between atoms: C_6  and  C_7 
REMARK    6  A    between atoms: C_7  and  C_8 
REMARK    7  A    between atoms: C_8  and  C_9 
REMARK    8  A    between atoms: C_9  and  C_11 
REMARK    9  A    between atoms: C_11  and  C_12 
REMARK   10  A    between atoms: C_12  and  C_13 
REMARK       I    between atoms: C_13  and  N_15 
REMARK   11  A    between atoms: N_15  and  C_16 
REMARK   12  A    between atoms: C_16  and  C_17 
REMARK   13  A    between atoms: C_17  and  C_18 
REMARK   14  A    between atoms: N_24  and  N_25 
REMARK   15  A    between atoms: N_25  and  C_26 
REMARK   16  A    between atoms: C_29  and  N_30 
REMARK   17  A    between atoms: C_34  and  N_35 
ROOT
ATOM      1  C   UNL d   1      28.497 -15.708  -0.169  0.00  0.00     0.039 C 
ATOM      2  N   UNL d   1      29.104 -14.697   0.411  0.00  0.00    -0.183 NA
ENDROOT
BRANCH   1   3
ATOM      3  C   UNL d   1      27.392 -16.433   0.642  0.00  0.00     0.057 C 
BRANCH   3   4
ATOM      4  C   UNL d   1      26.261 -16.865  -0.181  0.00  0.00     0.006 C 
BRANCH   4   5
ATOM      5  C   UNL d   1      25.521 -18.149  -0.143  0.00  0.00     0.000 C 
BRANCH   5   6
ATOM      6  C   UNL d   1      24.016 -17.866   0.094  0.00  0.00    -0.000 C 
BRANCH   6   7
ATOM      7  C   UNL d   1      23.285 -18.359  -1.135  0.00  0.00    -0.005 C 
ATOM      8  C   UNL d   1      21.811 -18.575  -0.891  0.00  0.00     0.005 C 
ENDBRANCH   6   7
ENDBRANCH   5   6
ENDBRANCH   4   5
ENDBRANCH   3   4
ENDBRANCH   1   3
BRANCH   1   9
ATOM      9  C   UNL d   1      28.933 -16.050  -1.672  0.00  0.00     0.134 C 
BRANCH   9  10
ATOM     10  C   UNL d   1      28.542 -15.199  -2.886  0.00  0.00     0.132 C 
ATOM     11  O   UNL d   1      28.904 -14.034  -3.073  0.00  0.00    -0.298 OA
BRANCH  10  12
ATOM     12  C   UNL d   1      27.691 -15.575  -4.037  0.00  0.00     0.088 C 
BRANCH  12  13
ATOM     13  C   UNL d   1      26.198 -15.496  -3.478  0.00  0.00     0.110 C 
BRANCH  13  14
ATOM     14  C   UNL d   1      25.542 -14.230  -3.846  0.00  0.00     0.217 C 
ATOM     15  O   UNL d   1      24.555 -14.210  -4.575  0.00  0.00    -0.274 OA
ATOM     16  N   UNL d   1      26.126 -13.106  -3.306  0.00  0.00    -0.361 N 
ATOM     17  H   UNL d   1      26.949 -13.161  -2.712  0.00  0.00     0.162 HD
BRANCH  16  18
ATOM     18  C   UNL d   1      25.527 -11.841  -3.634  0.00  0.00     0.127 C 
BRANCH  18  19
ATOM     19  C   UNL d   1      26.521 -10.792  -4.116  0.00  0.00     0.058 C 
BRANCH  19  20
ATOM     20  C   UNL d   1      27.561 -11.457  -4.979  0.00  0.00    -0.057 A 
ATOM     21  C   UNL d   1      27.187 -12.234  -6.082  0.00  0.00     0.007 A 
ATOM     22  C   UNL d   1      28.141 -12.999  -6.754  0.00  0.00     0.001 A 
ATOM     23  C   UNL d   1      29.483 -12.928  -6.383  0.00  0.00     0.000 A 
ATOM     24  C   UNL d   1      29.869 -12.128  -5.311  0.00  0.00     0.001 A 
ATOM     25  C   UNL d   1      28.911 -11.402  -4.606  0.00  0.00     0.007 A 
ENDBRANCH  19  20
ENDBRANCH  18  19
ENDBRANCH  16  18
ENDBRANCH  13  14
ENDBRANCH  12  13
ENDBRANCH  10  12
ENDBRANCH   9  10
ENDBRANCH   1   9
BRANCH   2  26
ATOM     26  N   UNL d   1      28.688 -14.337   1.667  0.00  0.00    -0.276 N 
ATOM     27  H   UNL d   1      28.409 -15.041   2.356  0.00  0.00     0.189 HD
BRANCH  26  28
ATOM     28  C   UNL d   1      28.003 -13.123   1.888  0.00  0.00     0.083 A 
ATOM     29  C   UNL d   1      28.023 -12.673   3.237  0.00  0.00     0.036 A 
ATOM     30  C   UNL d   1      27.405 -11.485   3.646  0.00  0.00     0.038 A 
ATOM     31  C   UNL d   1      26.783 -10.686   2.690  0.00  0.00     0.105 A 
ATOM     32  C   UNL d   1      26.698 -11.121   1.361  0.00  0.00     0.074 A 
ATOM     33  C   UNL d   1      27.301 -12.340   0.952  0.00  0.00     0.133 A 
BRANCH  31  34
ATOM     34  N   UNL d   1      26.276  -9.356   3.066  0.00  0.00    -0.116 N 
ATOM     35  O   UNL d   1      26.735  -8.835   4.092  0.00  0.00    -0.532 OA
ATOM     36  O   UNL d   1      25.443  -8.827   2.320  0.00  0.00    -0.532 OA
ENDBRANCH  31  34
BRANCH  33  37
ATOM     37  N   UNL d   1      27.099 -12.715  -0.469  0.00  0.00    -0.113 N 
ATOM     38  O   UNL d   1      26.351 -13.683  -0.683  0.00  0.00    -0.532 OA
ATOM     39  O   UNL d   1      27.715 -12.142  -1.372  0.00  0.00    -0.532 OA
ENDBRANCH  33  37
ENDBRANCH  26  28
ENDBRANCH   2  26
TORSDOF 17
ENDMDL
