MODEL 1
REMARK VINA RESULT:   -18.376      0.000      0.000
REMARK INTER + INTRA:         -22.197
REMARK INTER:                 -20.762
REMARK INTRA:                  -1.435
REMARK CONF_INDEPENDENT:        2.386
REMARK UNBOUND:                -1.435
REMARK  8 active torsions:
REMARK  status: ('A' for Active; 'I' for Inactive)
REMARK    1  A    between atoms: C_2  and  C_5 
REMARK    2  A    between atoms: C_7  and  N_8 
REMARK       I    between atoms: N_8  and  C_9 
REMARK    3  A    between atoms: C_9  and  C_11 
REMARK    4  A    between atoms: C_11  and  S_12 
REMARK    5  A    between atoms: S_12  and  C_13 
REMARK    6  A    between atoms: N_17  and  C_18 
REMARK    7  A    between atoms: C_21  and  O_22 
REMARK    8  A    between atoms: N_25  and  C_26 
ROOT
ATOM      1  N   UNL d   1      26.651 -17.205   0.430  0.00  0.00    -0.311 N 
ATOM      2  C   UNL d   1      25.436 -17.680  -0.232  0.00  0.00     0.233 C 
ATOM      3  O   UNL d   1      25.397 -17.757  -1.456  0.00  0.00    -0.272 OA
ATOM      4  H   UNL d   1      26.676 -17.050   1.436  0.00  0.00     0.170 HD
ENDROOT
BRANCH   1   5
ATOM      5  C   UNL d   1      27.819 -16.902  -0.296  0.00  0.00     0.134 A 
ATOM      6  C   UNL d   1      28.649 -17.808  -0.902  0.00  0.00     0.080 A 
ATOM      7  C   UNL d   1      29.649 -17.074  -1.562  0.00  0.00     0.066 A 
ATOM      8  N   UNL d   1      29.420 -15.759  -1.465  0.00  0.00    -0.169 NA
ATOM      9  N   UNL d   1      28.356 -15.656  -0.629  0.00  0.00    -0.217 N 
BRANCH   7  10
ATOM     10  C   UNL d   1      30.776 -17.685  -2.372  0.00  0.00    -0.005 C 
ATOM     11  C   UNL d   1      31.948 -16.687  -2.424  0.00  0.00     0.021 C 
ATOM     12  C   UNL d   1      30.312 -17.963  -3.823  0.00  0.00     0.021 C 
ATOM     13  C   UNL d   1      31.263 -19.010  -1.769  0.00  0.00     0.021 C 
ENDBRANCH   7  10
BRANCH   9  14
ATOM     14  C   UNL d   1      27.862 -14.397  -0.235  0.00  0.00     0.060 A 
ATOM     15  C   UNL d   1      28.649 -13.260  -0.433  0.00  0.00     0.031 A 
ATOM     16  C   UNL d   1      28.210 -12.031   0.057  0.00  0.00     0.002 A 
ATOM     17  C   UNL d   1      26.972 -11.935   0.693  0.00  0.00     0.000 A 
ATOM     18  C   UNL d   1      26.179 -13.070   0.870  0.00  0.00     0.002 A 
ATOM     19  C   UNL d   1      26.615 -14.309   0.395  0.00  0.00     0.031 A 
ENDBRANCH   9  14
ENDBRANCH   1   5
BRANCH   2  20
ATOM     20  C   UNL d   1      24.240 -17.964   0.648  0.00  0.00     0.185 C 
BRANCH  20  21
ATOM     21  S   UNL d   1      23.436 -19.549   0.219  0.00  0.00    -0.080 SA
BRANCH  21  22
ATOM     22  C   UNL d   1      21.876 -19.291  -0.511  0.00  0.00     0.203 A 
ATOM     23  N   UNL d   1      21.723 -18.843  -1.743  0.00  0.00    -0.135 NA
ATOM     24  N   UNL d   1      20.372 -18.843  -1.997  0.00  0.00     0.019 NA
ATOM     25  N   UNL d   1      19.698 -19.326  -0.965  0.00  0.00     0.003 NA
ATOM     26  N   UNL d   1      20.620 -19.547  -0.003  0.00  0.00    -0.217 N 
BRANCH  26  27
ATOM     27  C   UNL d   1      20.229 -19.955   1.276  0.00  0.00     0.057 A 
ATOM     28  C   UNL d   1      19.203 -20.895   1.426  0.00  0.00     0.034 A 
ATOM     29  C   UNL d   1      18.728 -21.196   2.702  0.00  0.00     0.039 A 
ATOM     30  C   UNL d   1      19.333 -20.604   3.807  0.00  0.00     0.065 A 
ATOM     31  C   UNL d   1      20.383 -19.700   3.655  0.00  0.00     0.039 A 
ATOM     32  C   UNL d   1      20.841 -19.367   2.384  0.00  0.00     0.034 A 
BRANCH  30  33
ATOM     33  O   UNL d   1      18.922 -20.872   5.075  0.00  0.00    -0.361 OA
ATOM     34  H   UNL d   1      19.691 -20.962   5.663  0.00  0.00     0.217 HD
ENDBRANCH  30  33
ENDBRANCH  26  27
ENDBRANCH  21  22
ENDBRANCH  20  21
ENDBRANCH   2  20
TORSDOF 8
ENDMDL
MODEL 2
REMARK VINA RESULT:   -18.339      1.567      2.018
REMARK INTER + INTRA:         -21.518
REMARK INTER:                 -20.725
REMARK INTRA:                  -0.793
REMARK CONF_INDEPENDENT:        2.386
REMARK UNBOUND:                -0.793
REMARK  8 active torsions:
REMARK  status: ('A' for Active; 'I' for Inactive)
REMARK    1  A    between atoms: C_2  and  C_5 
REMARK    2  A    between atoms: C_7  and  N_8 
REMARK       I    between atoms: N_8  and  C_9 
REMARK    3  A    between atoms: C_9  and  C_11 
REMARK    4  A    between atoms: C_11  and  S_12 
REMARK    5  A    between atoms: S_12  and  C_13 
REMARK    6  A    between atoms: N_17  and  C_18 
REMARK    7  A    between atoms: C_21  and  O_22 
REMARK    8  A    between atoms: N_25  and  C_26 
ROOT
ATOM      1  N   UNL d   1      26.945 -17.470   0.120  0.00  0.00    -0.311 N 
ATOM      2  C   UNL d   1      25.663 -17.963  -0.382  0.00  0.00     0.233 C 
ATOM      3  O   UNL d   1      25.487 -18.090  -1.590  0.00  0.00    -0.272 OA
ATOM      4  H   UNL d   1      27.082 -17.273   1.108  0.00  0.00     0.170 HD
ENDROOT
BRANCH   1   5
ATOM      5  C   UNL d   1      28.025 -17.205  -0.744  0.00  0.00     0.134 A 
ATOM      6  C   UNL d   1      29.224 -17.869  -0.763  0.00  0.00     0.080 A 
ATOM      7  C   UNL d   1      29.980 -17.324  -1.816  0.00  0.00     0.066 A 
ATOM      8  N   UNL d   1      29.267 -16.422  -2.501  0.00  0.00    -0.169 NA
ATOM      9  N   UNL d   1      28.112 -16.293  -1.799  0.00  0.00    -0.217 N 
BRANCH   7  10
ATOM     10  C   UNL d   1      31.376 -17.776  -2.199  0.00  0.00    -0.005 C 
ATOM     11  C   UNL d   1      32.401 -16.972  -1.379  0.00  0.00     0.021 C 
ATOM     12  C   UNL d   1      31.640 -17.507  -3.702  0.00  0.00     0.021 C 
ATOM     13  C   UNL d   1      31.584 -19.275  -1.944  0.00  0.00     0.021 C 
ENDBRANCH   7  10
BRANCH   9  14
ATOM     14  C   UNL d   1      27.126 -15.365  -2.190  0.00  0.00     0.060 A 
ATOM     15  C   UNL d   1      25.790 -15.608  -1.862  0.00  0.00     0.031 A 
ATOM     16  C   UNL d   1      24.802 -14.749  -2.343  0.00  0.00     0.002 A 
ATOM     17  C   UNL d   1      25.156 -13.632  -3.100  0.00  0.00     0.000 A 
ATOM     18  C   UNL d   1      26.496 -13.382  -3.407  0.00  0.00     0.002 A 
ATOM     19  C   UNL d   1      27.492 -14.243  -2.941  0.00  0.00     0.031 A 
ENDBRANCH   9  14
ENDBRANCH   1   5
BRANCH   2  20
ATOM     20  C   UNL d   1      24.572 -18.203   0.636  0.00  0.00     0.185 C 
BRANCH  20  21
ATOM     21  S   UNL d   1      23.569 -19.676   0.231  0.00  0.00    -0.080 SA
BRANCH  21  22
ATOM     22  C   UNL d   1      22.058 -19.228  -0.514  0.00  0.00     0.203 A 
ATOM     23  N   UNL d   1      21.974 -18.754  -1.742  0.00  0.00    -0.135 NA
ATOM     24  N   UNL d   1      20.636 -18.592  -2.011  0.00  0.00     0.019 NA
ATOM     25  N   UNL d   1      19.897 -19.003  -0.991  0.00  0.00     0.003 NA
ATOM     26  N   UNL d   1      20.775 -19.341  -0.022  0.00  0.00    -0.217 N 
BRANCH  26  27
ATOM     27  C   UNL d   1      20.323 -19.712   1.248  0.00  0.00     0.057 A 
ATOM     28  C   UNL d   1      20.901 -19.142   2.388  0.00  0.00     0.034 A 
ATOM     29  C   UNL d   1      20.540 -19.614   3.651  0.00  0.00     0.039 A 
ATOM     30  C   UNL d   1      19.560 -20.597   3.750  0.00  0.00     0.065 A 
ATOM     31  C   UNL d   1      18.958 -21.133   2.613  0.00  0.00     0.039 A 
ATOM     32  C   UNL d   1      19.336 -20.693   1.348  0.00  0.00     0.034 A 
BRANCH  30  33
ATOM     33  O   UNL d   1      19.157 -21.084   4.955  0.00  0.00    -0.361 OA
ATOM     34  H   UNL d   1      19.724 -21.828   5.220  0.00  0.00     0.217 HD
ENDBRANCH  30  33
ENDBRANCH  26  27
ENDBRANCH  21  22
ENDBRANCH  20  21
ENDBRANCH   2  20
TORSDOF 8
ENDMDL
