MODEL 1
REMARK VINA RESULT:   -26.938      0.000      0.000
REMARK INTER + INTRA:         -28.897
REMARK INTER:                 -28.429
REMARK INTRA:                  -0.468
REMARK CONF_INDEPENDENT:        1.492
REMARK UNBOUND:                -0.468
REMARK  5 active torsions:
REMARK  status: ('A' for Active; 'I' for Inactive)
REMARK       I    between atoms: C_2  and  N_3 
REMARK    1  A    between atoms: C_2  and  C_14 
REMARK    2  A    between atoms: N_3  and  C_4 
REMARK    3  A    between atoms: C_4  and  C_5 
REMARK    4  A    between atoms: C_5  and  C_6 
REMARK    5  A    between atoms: C_6  and  C_7 
ROOT
ATOM      1  O   UNL d   1      22.253 -14.946  -1.647  0.00  0.00    -0.268 OA
ATOM      2  C   UNL d   1      23.267 -15.643  -1.655  0.00  0.00     0.252 C 
ATOM      3  N   UNL d   1      24.452 -15.228  -2.233  0.00  0.00    -0.357 N 
ATOM      4  H   UNL d   1      25.218 -15.880  -2.339  0.00  0.00     0.162 HD
ENDROOT
BRANCH   2   5
ATOM      5  C   UNL d   1      23.204 -17.000  -1.059  0.00  0.00     0.045 A 
ATOM      6  C   UNL d   1      24.411 -17.618  -0.672  0.00  0.00     0.018 A 
ATOM      7  C   UNL d   1      24.441 -18.940  -0.217  0.00  0.00     0.003 A 
ATOM      8  C   UNL d   1      23.274 -19.701  -0.145  0.00  0.00     0.032 A 
ATOM      9  C   UNL d   1      22.084 -19.075  -0.530  0.00  0.00     0.062 A 
ATOM     10  N   UNL d   1      20.801 -19.552  -0.593  0.00  0.00    -0.278 N 
ATOM     11  C   UNL d   1      22.015 -17.751  -0.973  0.00  0.00     0.027 A 
ATOM     12  N   UNL d   1      19.904 -18.650  -1.023  0.00  0.00    -0.186 NA
ATOM     13  H   UNL d   1      20.476 -20.486  -0.363  0.00  0.00     0.189 HD
ATOM     14  C   UNL d   1      20.647 -17.567  -1.270  0.00  0.00     0.153 A 
ENDBRANCH   2   5
BRANCH   3  15
ATOM     15  C   UNL d   1      24.530 -13.924  -2.881  0.00  0.00     0.123 C 
BRANCH  15  16
ATOM     16  C   UNL d   1      25.655 -13.849  -3.906  0.00  0.00     0.024 C 
BRANCH  16  17
ATOM     17  C   UNL d   1      26.651 -15.000  -3.736  0.00  0.00     0.040 C 
BRANCH  17  18
ATOM     18  C   UNL d   1      27.725 -14.991  -4.797  0.00  0.00    -0.055 A 
ATOM     19  C   UNL d   1      27.661 -14.075  -5.858  0.00  0.00     0.007 A 
ATOM     20  C   UNL d   1      28.630 -14.084  -6.865  0.00  0.00     0.003 A 
ATOM     21  C   UNL d   1      29.671 -15.009  -6.823  0.00  0.00     0.042 A 
ATOM     22  C   UNL d   1      29.742 -15.910  -5.769  0.00  0.00     0.116 A 
ATOM     23  F   UNL d   1      30.745 -16.796  -5.722  0.00  0.00    -0.206 F 
ATOM     24  C   UNL d   1      28.781 -15.912  -4.762  0.00  0.00     0.049 A 
ENDBRANCH  17  18
ENDBRANCH  16  17
ENDBRANCH  15  16
ENDBRANCH   3  15
TORSDOF 5
ENDMDL
MODEL 2
REMARK VINA RESULT:   -26.524      2.662      3.549
REMARK INTER + INTRA:         -29.023
REMARK INTER:                 -28.015
REMARK INTRA:                  -1.008
REMARK CONF_INDEPENDENT:        1.492
REMARK UNBOUND:                -1.008
REMARK  5 active torsions:
REMARK  status: ('A' for Active; 'I' for Inactive)
REMARK       I    between atoms: C_2  and  N_3 
REMARK    1  A    between atoms: C_2  and  C_14 
REMARK    2  A    between atoms: N_3  and  C_4 
REMARK    3  A    between atoms: C_4  and  C_5 
REMARK    4  A    between atoms: C_5  and  C_6 
REMARK    5  A    between atoms: C_6  and  C_7 
ROOT
ATOM      1  O   UNL d   1      22.292 -14.975  -1.645  0.00  0.00    -0.268 OA
ATOM      2  C   UNL d   1      23.300 -15.682  -1.651  0.00  0.00     0.252 C 
ATOM      3  N   UNL d   1      24.489 -15.279  -2.226  0.00  0.00    -0.357 N 
ATOM      4  H   UNL d   1      25.249 -15.938  -2.331  0.00  0.00     0.162 HD
ENDROOT
BRANCH   2   5
ATOM      5  C   UNL d   1      23.222 -17.039  -1.057  0.00  0.00     0.045 A 
ATOM      6  C   UNL d   1      24.421 -17.670  -0.669  0.00  0.00     0.018 A 
ATOM      7  C   UNL d   1      24.437 -18.993  -0.215  0.00  0.00     0.003 A 
ATOM      8  C   UNL d   1      23.263 -19.742  -0.145  0.00  0.00     0.032 A 
ATOM      9  C   UNL d   1      22.079 -19.103  -0.530  0.00  0.00     0.062 A 
ATOM     10  N   UNL d   1      20.792 -19.567  -0.595  0.00  0.00    -0.278 N 
ATOM     11  C   UNL d   1      22.025 -17.778  -0.973  0.00  0.00     0.027 A 
ATOM     12  N   UNL d   1      19.905 -18.655  -1.024  0.00  0.00    -0.186 NA
ATOM     13  H   UNL d   1      20.457 -20.497  -0.365  0.00  0.00     0.189 HD
ATOM     14  C   UNL d   1      20.658 -17.579  -1.270  0.00  0.00     0.153 A 
ENDBRANCH   2   5
BRANCH   3  15
ATOM     15  C   UNL d   1      24.582 -13.975  -2.873  0.00  0.00     0.123 C 
BRANCH  15  16
ATOM     16  C   UNL d   1      25.715 -13.907  -3.888  0.00  0.00     0.024 C 
BRANCH  16  17
ATOM     17  C   UNL d   1      27.064 -13.642  -3.212  0.00  0.00     0.040 C 
BRANCH  17  18
ATOM     18  C   UNL d   1      27.235 -14.437  -1.940  0.00  0.00    -0.055 A 
ATOM     19  C   UNL d   1      27.477 -15.818  -1.998  0.00  0.00     0.007 A 
ATOM     20  C   UNL d   1      27.598 -16.569  -0.826  0.00  0.00     0.003 A 
ATOM     21  C   UNL d   1      27.478 -15.948   0.415  0.00  0.00     0.042 A 
ATOM     22  C   UNL d   1      27.249 -14.580   0.476  0.00  0.00     0.116 A 
ATOM     23  F   UNL d   1      27.140 -13.979   1.668  0.00  0.00    -0.206 F 
ATOM     24  C   UNL d   1      27.124 -13.823  -0.685  0.00  0.00     0.049 A 
ENDBRANCH  17  18
ENDBRANCH  16  17
ENDBRANCH  15  16
ENDBRANCH   3  15
TORSDOF 5
ENDMDL
MODEL 3
REMARK VINA RESULT:   -26.413      2.838      3.742
REMARK INTER + INTRA:         -28.386
REMARK INTER:                 -27.905
REMARK INTRA:                  -0.481
REMARK CONF_INDEPENDENT:        1.492
REMARK UNBOUND:                -0.481
REMARK  5 active torsions:
REMARK  status: ('A' for Active; 'I' for Inactive)
REMARK       I    between atoms: C_2  and  N_3 
REMARK    1  A    between atoms: C_2  and  C_14 
REMARK    2  A    between atoms: N_3  and  C_4 
REMARK    3  A    between atoms: C_4  and  C_5 
REMARK    4  A    between atoms: C_5  and  C_6 
REMARK    5  A    between atoms: C_6  and  C_7 
ROOT
ATOM      1  O   UNL d   1      22.281 -14.944  -1.716  0.00  0.00    -0.268 OA
ATOM      2  C   UNL d   1      23.282 -15.660  -1.748  0.00  0.00     0.252 C 
ATOM      3  N   UNL d   1      24.450 -15.280  -2.381  0.00  0.00    -0.357 N 
ATOM      4  H   UNL d   1      25.199 -15.949  -2.502  0.00  0.00     0.162 HD
ENDROOT
BRANCH   2   5
ATOM      5  C   UNL d   1      23.218 -17.003  -1.121  0.00  0.00     0.045 A 
ATOM      6  C   UNL d   1      24.426 -17.624  -0.742  0.00  0.00     0.018 A 
ATOM      7  C   UNL d   1      24.453 -18.935  -0.258  0.00  0.00     0.003 A 
ATOM      8  C   UNL d   1      23.281 -19.684  -0.147  0.00  0.00     0.032 A 
ATOM      9  C   UNL d   1      22.089 -19.055  -0.523  0.00  0.00     0.062 A 
ATOM     10  N   UNL d   1      20.801 -19.522  -0.552  0.00  0.00    -0.278 N 
ATOM     11  C   UNL d   1      22.024 -17.741  -0.995  0.00  0.00     0.027 A 
ATOM     12  N   UNL d   1      19.905 -18.620  -0.984  0.00  0.00    -0.186 NA
ATOM     13  H   UNL d   1      20.472 -20.446  -0.294  0.00  0.00     0.189 HD
ATOM     14  C   UNL d   1      20.652 -17.550  -1.270  0.00  0.00     0.153 A 
ENDBRANCH   2   5
BRANCH   3  15
ATOM     15  C   UNL d   1      24.526 -13.992  -3.060  0.00  0.00     0.123 C 
BRANCH  15  16
ATOM     16  C   UNL d   1      25.822 -13.820  -3.841  0.00  0.00     0.024 C 
BRANCH  16  17
ATOM     17  C   UNL d   1      26.647 -12.641  -3.315  0.00  0.00     0.040 C 
BRANCH  17  18
ATOM     18  C   UNL d   1      26.242 -11.331  -3.946  0.00  0.00    -0.055 A 
ATOM     19  C   UNL d   1      25.954 -10.218  -3.140  0.00  0.00     0.007 A 
ATOM     20  C   UNL d   1      25.542  -9.012  -3.713  0.00  0.00     0.003 A 
ATOM     21  C   UNL d   1      25.412  -8.906  -5.096  0.00  0.00     0.042 A 
ATOM     22  C   UNL d   1      25.707 -10.002  -5.896  0.00  0.00     0.116 A 
ATOM     23  F   UNL d   1      25.590  -9.900  -7.226  0.00  0.00    -0.206 F 
ATOM     24  C   UNL d   1      26.115 -11.208  -5.337  0.00  0.00     0.049 A 
ENDBRANCH  17  18
ENDBRANCH  16  17
ENDBRANCH  15  16
ENDBRANCH   3  15
TORSDOF 5
ENDMDL
