MODEL 1
REMARK VINA RESULT:    -7.732      0.000      0.000
REMARK INTER + INTRA:         -12.051
REMARK INTER:                 -11.013
REMARK INTRA:                  -1.038
REMARK CONF_INDEPENDENT:        3.281
REMARK UNBOUND:                -1.038
REMARK  11 active torsions:
REMARK  status: ('A' for Active; 'I' for Inactive)
REMARK    1  A    between atoms: C_2  and  O_3 
REMARK    2  A    between atoms: O_3  and  C_4 
REMARK    3  A    between atoms: C_4  and  C_6 
REMARK    4  A    between atoms: C_8  and  C_9 
REMARK       I    between atoms: C_9  and  N_11 
REMARK    5  A    between atoms: N_11  and  N_12 
REMARK    6  A    between atoms: N_12  and  C_13 
REMARK    7  A    between atoms: C_13  and  N_15 
REMARK    8  A    between atoms: N_15  and  C_16 
REMARK    9  A    between atoms: C_16  and  C_17 
REMARK   10  A    between atoms: C_17  and  C_18 
REMARK   11  A    between atoms: C_22  and  N_23 
ROOT
ATOM      1  C   UNL d   1      27.657 -14.467   0.336  0.00  0.00     0.270 C 
ATOM      2  O   UNL d   1      27.607 -13.242   0.255  0.00  0.00    -0.266 OA
ATOM      3  N   UNL d   1      28.450 -15.118   1.278  0.00  0.00    -0.264 N 
ATOM      4  H   UNL d   1      28.553 -16.125   1.352  0.00  0.00     0.190 HD
ENDROOT
BRANCH   1   5
ATOM      5  C   UNL d   1      26.877 -15.322  -0.656  0.00  0.00     0.037 A 
ATOM      6  C   UNL d   1      26.078 -16.400  -0.196  0.00  0.00     0.034 A 
ATOM      7  C   UNL d   1      25.163 -17.068  -1.049  0.00  0.00     0.042 A 
ATOM      8  C   UNL d   1      25.084 -16.695  -2.393  0.00  0.00     0.053 A 
ATOM      9  C   UNL d   1      25.919 -15.673  -2.867  0.00  0.00     0.104 A 
ATOM     10  C   UNL d   1      26.828 -15.007  -2.019  0.00  0.00     0.053 A 
BRANCH   7  11
ATOM     11  C   UNL d   1      24.152 -18.012  -0.479  0.00  0.00     0.293 C 
ATOM     12  O   UNL d   1      24.482 -18.949   0.240  0.00  0.00    -0.259 OA
BRANCH  11  13
ATOM     13  O   UNL d   1      22.874 -17.689  -0.821  0.00  0.00    -0.318 OA
BRANCH  13  14
ATOM     14  C   UNL d   1      21.860 -18.513  -0.197  0.00  0.00     0.174 C 
ATOM     15  C   UNL d   1      20.822 -18.944  -1.224  0.00  0.00     0.034 C 
ENDBRANCH  13  14
ENDBRANCH  11  13
ENDBRANCH   7  11
BRANCH   9  16
ATOM     16  N   UNL d   1      25.781 -15.211  -4.257  0.00  0.00    -0.116 N 
ATOM     17  O   UNL d   1      26.645 -15.570  -5.069  0.00  0.00    -0.532 OA
ATOM     18  O   UNL d   1      24.821 -14.479  -4.526  0.00  0.00    -0.532 OA
ENDBRANCH   9  16
ENDBRANCH   1   5
BRANCH   3  19
ATOM     19  N   UNL d   1      29.265 -14.396   2.214  0.00  0.00    -0.274 N 
ATOM     20  H   UNL d   1      30.205 -14.166   1.903  0.00  0.00     0.189 HD
BRANCH  19  21
ATOM     21  C   UNL d   1      28.740 -14.050   3.459  0.00  0.00     0.186 C 
ATOM     22  S   UNL d   1      27.719 -12.721   3.654  0.00  0.00    -0.040 SA
BRANCH  21  23
ATOM     23  N   UNL d   1      29.137 -14.874   4.508  0.00  0.00    -0.366 N 
ATOM     24  H   UNL d   1      29.845 -15.579   4.347  0.00  0.00     0.161 HD
BRANCH  23  25
ATOM     25  C   UNL d   1      28.512 -14.835   5.839  0.00  0.00     0.122 C 
BRANCH  25  26
ATOM     26  C   UNL d   1      29.283 -14.068   6.918  0.00  0.00     0.023 C 
BRANCH  26  27
ATOM     27  C   UNL d   1      28.471 -12.873   7.477  0.00  0.00    -0.021 C 
ATOM     28  C   UNL d   1      28.527 -12.805   9.006  0.00  0.00     0.009 C 
ATOM     29  C   UNL d   1      28.991 -11.554   6.901  0.00  0.00     0.009 C 
ENDBRANCH  26  27
ENDBRANCH  25  26
ENDBRANCH  23  25
ENDBRANCH  21  23
ENDBRANCH  19  21
ENDBRANCH   3  19
TORSDOF 11
ENDMDL
MODEL 2
REMARK VINA RESULT:    -7.239      1.302      1.477
REMARK INTER + INTRA:         -12.114
REMARK INTER:                 -10.521
REMARK INTRA:                  -1.593
REMARK CONF_INDEPENDENT:        3.281
REMARK UNBOUND:                -1.593
REMARK  11 active torsions:
REMARK  status: ('A' for Active; 'I' for Inactive)
REMARK    1  A    between atoms: C_2  and  O_3 
REMARK    2  A    between atoms: O_3  and  C_4 
REMARK    3  A    between atoms: C_4  and  C_6 
REMARK    4  A    between atoms: C_8  and  C_9 
REMARK       I    between atoms: C_9  and  N_11 
REMARK    5  A    between atoms: N_11  and  N_12 
REMARK    6  A    between atoms: N_12  and  C_13 
REMARK    7  A    between atoms: C_13  and  N_15 
REMARK    8  A    between atoms: N_15  and  C_16 
REMARK    9  A    between atoms: C_16  and  C_17 
REMARK   10  A    between atoms: C_17  and  C_18 
REMARK   11  A    between atoms: C_22  and  N_23 
ROOT
ATOM      1  C   UNL d   1      27.610 -14.217   0.476  0.00  0.00     0.270 C 
ATOM      2  O   UNL d   1      27.342 -13.018   0.466  0.00  0.00    -0.266 OA
ATOM      3  N   UNL d   1      28.571 -14.756   1.330  0.00  0.00    -0.264 N 
ATOM      4  H   UNL d   1      28.853 -15.731   1.342  0.00  0.00     0.190 HD
ENDROOT
BRANCH   1   5
ATOM      5  C   UNL d   1      26.922 -15.154  -0.509  0.00  0.00     0.037 A 
ATOM      6  C   UNL d   1      26.218 -16.292  -0.039  0.00  0.00     0.034 A 
ATOM      7  C   UNL d   1      25.377 -17.053  -0.891  0.00  0.00     0.042 A 
ATOM      8  C   UNL d   1      25.280 -16.710  -2.242  0.00  0.00     0.053 A 
ATOM      9  C   UNL d   1      26.027 -15.625  -2.724  0.00  0.00     0.104 A 
ATOM     10  C   UNL d   1      26.862 -14.867  -1.878  0.00  0.00     0.053 A 
BRANCH   7  11
ATOM     11  C   UNL d   1      24.446 -18.074  -0.316  0.00  0.00     0.293 C 
ATOM     12  O   UNL d   1      24.641 -18.568   0.790  0.00  0.00    -0.259 OA
BRANCH  11  13
ATOM     13  O   UNL d   1      23.389 -18.345  -1.129  0.00  0.00    -0.318 OA
BRANCH  13  14
ATOM     14  C   UNL d   1      22.102 -17.963  -0.586  0.00  0.00     0.174 C 
ATOM     15  C   UNL d   1      21.086 -19.077  -0.798  0.00  0.00     0.034 C 
ENDBRANCH  13  14
ENDBRANCH  11  13
ENDBRANCH   7  11
BRANCH   9  16
ATOM     16  N   UNL d   1      25.865 -15.199  -4.123  0.00  0.00    -0.116 N 
ATOM     17  O   UNL d   1      26.718 -15.576  -4.939  0.00  0.00    -0.532 OA
ATOM     18  O   UNL d   1      24.897 -14.478  -4.396  0.00  0.00    -0.532 OA
ENDBRANCH   9  16
ENDBRANCH   1   5
BRANCH   3  19
ATOM     19  N   UNL d   1      29.312 -13.941   2.250  0.00  0.00    -0.274 N 
ATOM     20  H   UNL d   1      28.951 -13.003   2.408  0.00  0.00     0.189 HD
BRANCH  19  21
ATOM     21  C   UNL d   1      30.449 -14.461   2.869  0.00  0.00     0.186 C 
ATOM     22  S   UNL d   1      31.711 -15.142   1.979  0.00  0.00    -0.040 SA
BRANCH  21  23
ATOM     23  N   UNL d   1      30.444 -14.381   4.258  0.00  0.00    -0.366 N 
ATOM     24  H   UNL d   1      31.122 -13.794   4.726  0.00  0.00     0.161 HD
BRANCH  23  25
ATOM     25  C   UNL d   1      29.546 -15.184   5.103  0.00  0.00     0.122 C 
BRANCH  25  26
ATOM     26  C   UNL d   1      28.059 -14.819   5.037  0.00  0.00     0.023 C 
BRANCH  26  27
ATOM     27  C   UNL d   1      27.767 -13.441   5.681  0.00  0.00    -0.021 C 
ATOM     28  C   UNL d   1      28.755 -13.111   6.804  0.00  0.00     0.009 C 
ATOM     29  C   UNL d   1      27.823 -12.332   4.627  0.00  0.00     0.009 C 
ENDBRANCH  26  27
ENDBRANCH  25  26
ENDBRANCH  23  25
ENDBRANCH  21  23
ENDBRANCH  19  21
ENDBRANCH   3  19
TORSDOF 11
ENDMDL
MODEL 3
REMARK VINA RESULT:    -7.014      3.487      8.383
REMARK INTER + INTRA:         -12.043
REMARK INTER:                 -10.295
REMARK INTRA:                  -1.748
REMARK CONF_INDEPENDENT:        3.281
REMARK UNBOUND:                -1.748
REMARK  11 active torsions:
REMARK  status: ('A' for Active; 'I' for Inactive)
REMARK    1  A    between atoms: C_2  and  O_3 
REMARK    2  A    between atoms: O_3  and  C_4 
REMARK    3  A    between atoms: C_4  and  C_6 
REMARK    4  A    between atoms: C_8  and  C_9 
REMARK       I    between atoms: C_9  and  N_11 
REMARK    5  A    between atoms: N_11  and  N_12 
REMARK    6  A    between atoms: N_12  and  C_13 
REMARK    7  A    between atoms: C_13  and  N_15 
REMARK    8  A    between atoms: N_15  and  C_16 
REMARK    9  A    between atoms: C_16  and  C_17 
REMARK   10  A    between atoms: C_17  and  C_18 
REMARK   11  A    between atoms: C_22  and  N_23 
ROOT
ATOM      1  C   UNL d   1      27.436 -13.606   1.465  0.00  0.00     0.270 C 
ATOM      2  O   UNL d   1      27.131 -13.430   0.288  0.00  0.00    -0.266 OA
ATOM      3  N   UNL d   1      27.927 -14.824   1.931  0.00  0.00    -0.264 N 
ATOM      4  H   UNL d   1      28.152 -15.025   2.900  0.00  0.00     0.190 HD
ENDROOT
BRANCH   1   5
ATOM      5  C   UNL d   1      27.224 -12.486   2.476  0.00  0.00     0.037 A 
ATOM      6  C   UNL d   1      27.753 -12.599   3.788  0.00  0.00     0.034 A 
ATOM      7  C   UNL d   1      27.779 -11.495   4.679  0.00  0.00     0.042 A 
ATOM      8  C   UNL d   1      27.220 -10.279   4.279  0.00  0.00     0.053 A 
ATOM      9  C   UNL d   1      26.638 -10.183   3.006  0.00  0.00     0.104 A 
ATOM     10  C   UNL d   1      26.612 -11.279   2.119  0.00  0.00     0.053 A 
BRANCH   7  11
ATOM     11  C   UNL d   1      28.576 -11.566   5.943  0.00  0.00     0.293 C 
ATOM     12  O   UNL d   1      29.438 -10.733   6.205  0.00  0.00    -0.259 OA
BRANCH  11  13
ATOM     13  O   UNL d   1      28.214 -12.608   6.740  0.00  0.00    -0.318 OA
BRANCH  13  14
ATOM     14  C   UNL d   1      29.116 -13.740   6.696  0.00  0.00     0.174 C 
ATOM     15  C   UNL d   1      28.537 -14.844   5.823  0.00  0.00     0.034 C 
ENDBRANCH  13  14
ENDBRANCH  11  13
ENDBRANCH   7  11
BRANCH   9  16
ATOM     16  N   UNL d   1      26.127  -8.885   2.540  0.00  0.00    -0.116 N 
ATOM     17  O   UNL d   1      26.654  -7.862   3.002  0.00  0.00    -0.532 OA
ATOM     18  O   UNL d   1      25.192  -8.892   1.730  0.00  0.00    -0.532 OA
ENDBRANCH   9  16
ENDBRANCH   1   5
BRANCH   3  19
ATOM     19  N   UNL d   1      28.104 -15.953   1.063  0.00  0.00    -0.274 N 
ATOM     20  H   UNL d   1      29.066 -16.234   0.885  0.00  0.00     0.189 HD
BRANCH  19  21
ATOM     21  C   UNL d   1      26.986 -16.595   0.530  0.00  0.00     0.186 C 
ATOM     22  S   UNL d   1      26.655 -18.217   0.854  0.00  0.00    -0.040 SA
BRANCH  21  23
ATOM     23  N   UNL d   1      26.190 -15.796  -0.286  0.00  0.00    -0.366 N 
ATOM     24  H   UNL d   1      25.784 -14.949   0.090  0.00  0.00     0.161 HD
BRANCH  23  25
ATOM     25  C   UNL d   1      25.831 -16.166  -1.663  0.00  0.00     0.122 C 
BRANCH  25  26
ATOM     26  C   UNL d   1      24.624 -17.099  -1.813  0.00  0.00     0.023 C 
BRANCH  26  27
ATOM     27  C   UNL d   1      23.792 -17.190  -0.509  0.00  0.00    -0.021 C 
ATOM     28  C   UNL d   1      22.529 -16.325  -0.572  0.00  0.00     0.009 C 
ATOM     29  C   UNL d   1      23.389 -18.639  -0.228  0.00  0.00     0.009 C 
ENDBRANCH  26  27
ENDBRANCH  25  26
ENDBRANCH  23  25
ENDBRANCH  21  23
ENDBRANCH  19  21
ENDBRANCH   3  19
TORSDOF 11
ENDMDL
MODEL 4
REMARK VINA RESULT:    -6.799      5.044      8.203
REMARK INTER + INTRA:         -11.166
REMARK INTER:                 -10.080
REMARK INTRA:                  -1.086
REMARK CONF_INDEPENDENT:        3.281
REMARK UNBOUND:                -1.086
REMARK  11 active torsions:
REMARK  status: ('A' for Active; 'I' for Inactive)
REMARK    1  A    between atoms: C_2  and  O_3 
REMARK    2  A    between atoms: O_3  and  C_4 
REMARK    3  A    between atoms: C_4  and  C_6 
REMARK    4  A    between atoms: C_8  and  C_9 
REMARK       I    between atoms: C_9  and  N_11 
REMARK    5  A    between atoms: N_11  and  N_12 
REMARK    6  A    between atoms: N_12  and  C_13 
REMARK    7  A    between atoms: C_13  and  N_15 
REMARK    8  A    between atoms: N_15  and  C_16 
REMARK    9  A    between atoms: C_16  and  C_17 
REMARK   10  A    between atoms: C_17  and  C_18 
REMARK   11  A    between atoms: C_22  and  N_23 
ROOT
ATOM      1  C   UNL d   1      24.996 -16.912  -0.423  0.00  0.00     0.270 C 
ATOM      2  O   UNL d   1      25.357 -17.837   0.301  0.00  0.00    -0.266 OA
ATOM      3  N   UNL d   1      23.659 -16.534  -0.533  0.00  0.00    -0.264 N 
ATOM      4  H   UNL d   1      23.313 -15.805  -1.150  0.00  0.00     0.190 HD
ENDROOT
BRANCH   1   5
ATOM      5  C   UNL d   1      26.020 -16.181  -1.281  0.00  0.00     0.037 A 
ATOM      6  C   UNL d   1      27.326 -15.939  -0.782  0.00  0.00     0.034 A 
ATOM      7  C   UNL d   1      28.371 -15.474  -1.622  0.00  0.00     0.042 A 
ATOM      8  C   UNL d   1      28.098 -15.191  -2.962  0.00  0.00     0.053 A 
ATOM      9  C   UNL d   1      26.791 -15.367  -3.442  0.00  0.00     0.104 A 
ATOM     10  C   UNL d   1      25.752 -15.830  -2.609  0.00  0.00     0.053 A 
BRANCH   7  11
ATOM     11  C   UNL d   1      29.787 -15.485  -1.139  0.00  0.00     0.293 C 
ATOM     12  O   UNL d   1      30.141 -14.812  -0.176  0.00  0.00    -0.259 OA
BRANCH  11  13
ATOM     13  O   UNL d   1      30.585 -16.324  -1.855  0.00  0.00    -0.318 OA
BRANCH  13  14
ATOM     14  C   UNL d   1      30.293 -17.730  -1.672  0.00  0.00     0.174 C 
ATOM     15  C   UNL d   1      31.479 -18.438  -1.032  0.00  0.00     0.034 C 
ENDBRANCH  13  14
ENDBRANCH  11  13
ENDBRANCH   7  11
BRANCH   9  16
ATOM     16  N   UNL d   1      26.511 -15.158  -4.871  0.00  0.00    -0.116 N 
ATOM     17  O   UNL d   1      25.450 -14.593  -5.171  0.00  0.00    -0.532 OA
ATOM     18  O   UNL d   1      27.344 -15.575  -5.687  0.00  0.00    -0.532 OA
ENDBRANCH   9  16
ENDBRANCH   1   5
BRANCH   3  19
ATOM     19  N   UNL d   1      22.617 -17.204   0.191  0.00  0.00    -0.274 N 
ATOM     20  H   UNL d   1      22.222 -16.696   0.979  0.00  0.00     0.189 HD
BRANCH  19  21
ATOM     21  C   UNL d   1      22.206 -18.474  -0.212  0.00  0.00     0.186 C 
ATOM     22  S   UNL d   1      22.901 -19.254  -1.538  0.00  0.00    -0.040 SA
BRANCH  21  23
ATOM     23  N   UNL d   1      21.182 -19.025   0.553  0.00  0.00    -0.366 N 
ATOM     24  H   UNL d   1      21.406 -19.491   1.423  0.00  0.00     0.161 HD
BRANCH  23  25
ATOM     25  C   UNL d   1      19.777 -19.043   0.117  0.00  0.00     0.122 C 
BRANCH  25  26
ATOM     26  C   UNL d   1      19.181 -20.426  -0.166  0.00  0.00     0.023 C 
BRANCH  26  27
ATOM     27  C   UNL d   1      18.848 -21.195   1.137  0.00  0.00    -0.021 C 
ATOM     28  C   UNL d   1      19.183 -20.378   2.388  0.00  0.00     0.009 C 
ATOM     29  C   UNL d   1      17.366 -21.576   1.173  0.00  0.00     0.009 C 
ENDBRANCH  26  27
ENDBRANCH  25  26
ENDBRANCH  23  25
ENDBRANCH  21  23
ENDBRANCH  19  21
ENDBRANCH   3  19
TORSDOF 11
ENDMDL
MODEL 5
REMARK VINA RESULT:    -6.708      1.422      2.049
REMARK INTER + INTRA:         -11.865
REMARK INTER:                  -9.989
REMARK INTRA:                  -1.876
REMARK CONF_INDEPENDENT:        3.281
REMARK UNBOUND:                -1.876
REMARK  11 active torsions:
REMARK  status: ('A' for Active; 'I' for Inactive)
REMARK    1  A    between atoms: C_2  and  O_3 
REMARK    2  A    between atoms: O_3  and  C_4 
REMARK    3  A    between atoms: C_4  and  C_6 
REMARK    4  A    between atoms: C_8  and  C_9 
REMARK       I    between atoms: C_9  and  N_11 
REMARK    5  A    between atoms: N_11  and  N_12 
REMARK    6  A    between atoms: N_12  and  C_13 
REMARK    7  A    between atoms: C_13  and  N_15 
REMARK    8  A    between atoms: N_15  and  C_16 
REMARK    9  A    between atoms: C_16  and  C_17 
REMARK   10  A    between atoms: C_17  and  C_18 
REMARK   11  A    between atoms: C_22  and  N_23 
ROOT
ATOM      1  C   UNL d   1      28.459 -14.813  -0.256  0.00  0.00     0.270 C 
ATOM      2  O   UNL d   1      29.026 -13.814  -0.692  0.00  0.00    -0.266 OA
ATOM      3  N   UNL d   1      28.784 -15.373   0.977  0.00  0.00    -0.264 N 
ATOM      4  H   UNL d   1      28.371 -16.220   1.355  0.00  0.00     0.190 HD
ENDROOT
BRANCH   1   5
ATOM      5  C   UNL d   1      27.402 -15.511  -1.104  0.00  0.00     0.037 A 
ATOM      6  C   UNL d   1      26.517 -16.447  -0.512  0.00  0.00     0.034 A 
ATOM      7  C   UNL d   1      25.381 -16.941  -1.204  0.00  0.00     0.042 A 
ATOM      8  C   UNL d   1      25.156 -16.541  -2.524  0.00  0.00     0.053 A 
ATOM      9  C   UNL d   1      26.067 -15.666  -3.134  0.00  0.00     0.104 A 
ATOM     10  C   UNL d   1      27.195 -15.173  -2.446  0.00  0.00     0.053 A 
BRANCH   7  11
ATOM     11  C   UNL d   1      24.327 -17.710  -0.471  0.00  0.00     0.293 C 
ATOM     12  O   UNL d   1      24.541 -18.197   0.634  0.00  0.00    -0.259 OA
BRANCH  11  13
ATOM     13  O   UNL d   1      23.147 -17.768  -1.147  0.00  0.00    -0.318 OA
BRANCH  13  14
ATOM     14  C   UNL d   1      22.423 -19.011  -0.983  0.00  0.00     0.174 C 
ATOM     15  C   UNL d   1      21.523 -18.942   0.243  0.00  0.00     0.034 C 
ENDBRANCH  13  14
ENDBRANCH  11  13
ENDBRANCH   7  11
BRANCH   9  16
ATOM     16  N   UNL d   1      25.793 -15.168  -4.491  0.00  0.00    -0.116 N 
ATOM     17  O   UNL d   1      24.842 -14.386  -4.633  0.00  0.00    -0.532 OA
ATOM     18  O   UNL d   1      26.516 -15.573  -5.409  0.00  0.00    -0.532 OA
ENDBRANCH   9  16
ENDBRANCH   1   5
BRANCH   3  19
ATOM     19  N   UNL d   1      29.807 -14.819   1.817  0.00  0.00    -0.274 N 
ATOM     20  H   UNL d   1      30.511 -15.472   2.153  0.00  0.00     0.189 HD
BRANCH  19  21
ATOM     21  C   UNL d   1      29.792 -13.456   2.114  0.00  0.00     0.186 C 
ATOM     22  S   UNL d   1      31.136 -12.675   2.771  0.00  0.00    -0.040 SA
BRANCH  21  23
ATOM     23  N   UNL d   1      28.589 -12.814   1.838  0.00  0.00    -0.366 N 
ATOM     24  H   UNL d   1      28.395 -12.503   0.895  0.00  0.00     0.161 HD
BRANCH  23  25
ATOM     25  C   UNL d   1      27.603 -12.479   2.877  0.00  0.00     0.122 C 
BRANCH  25  26
ATOM     26  C   UNL d   1      27.211 -13.620   3.822  0.00  0.00     0.023 C 
BRANCH  26  27
ATOM     27  C   UNL d   1      28.193 -13.754   5.013  0.00  0.00    -0.021 C 
ATOM     28  C   UNL d   1      27.786 -12.870   6.195  0.00  0.00     0.009 C 
ATOM     29  C   UNL d   1      28.272 -15.208   5.482  0.00  0.00     0.009 C 
ENDBRANCH  26  27
ENDBRANCH  25  26
ENDBRANCH  23  25
ENDBRANCH  21  23
ENDBRANCH  19  21
ENDBRANCH   3  19
TORSDOF 11
ENDMDL
MODEL 6
REMARK VINA RESULT:    -6.519      3.804      8.388
REMARK INTER + INTRA:         -11.654
REMARK INTER:                  -9.800
REMARK INTRA:                  -1.854
REMARK CONF_INDEPENDENT:        3.281
REMARK UNBOUND:                -1.854
REMARK  11 active torsions:
REMARK  status: ('A' for Active; 'I' for Inactive)
REMARK    1  A    between atoms: C_2  and  O_3 
REMARK    2  A    between atoms: O_3  and  C_4 
REMARK    3  A    between atoms: C_4  and  C_6 
REMARK    4  A    between atoms: C_8  and  C_9 
REMARK       I    between atoms: C_9  and  N_11 
REMARK    5  A    between atoms: N_11  and  N_12 
REMARK    6  A    between atoms: N_12  and  C_13 
REMARK    7  A    between atoms: C_13  and  N_15 
REMARK    8  A    between atoms: N_15  and  C_16 
REMARK    9  A    between atoms: C_16  and  C_17 
REMARK   10  A    between atoms: C_17  and  C_18 
REMARK   11  A    between atoms: C_22  and  N_23 
ROOT
ATOM      1  C   UNL d   1      26.949 -13.120   0.789  0.00  0.00     0.270 C 
ATOM      2  O   UNL d   1      27.071 -14.318   1.033  0.00  0.00    -0.266 OA
ATOM      3  N   UNL d   1      26.948 -12.623  -0.513  0.00  0.00    -0.264 N 
ATOM      4  H   UNL d   1      26.892 -11.639  -0.757  0.00  0.00     0.190 HD
ENDROOT
BRANCH   1   5
ATOM      5  C   UNL d   1      26.850 -12.122   1.936  0.00  0.00     0.037 A 
ATOM      6  C   UNL d   1      27.410 -12.433   3.202  0.00  0.00     0.034 A 
ATOM      7  C   UNL d   1      27.545 -11.453   4.219  0.00  0.00     0.042 A 
ATOM      8  C   UNL d   1      27.064 -10.161   3.993  0.00  0.00     0.053 A 
ATOM      9  C   UNL d   1      26.451  -9.868   2.766  0.00  0.00     0.104 A 
ATOM     10  C   UNL d   1      26.317 -10.841   1.754  0.00  0.00     0.053 A 
BRANCH   7  11
ATOM     11  C   UNL d   1      28.373 -11.735   5.433  0.00  0.00     0.293 C 
ATOM     12  O   UNL d   1      29.201 -10.930   5.845  0.00  0.00    -0.259 OA
BRANCH  11  13
ATOM     13  O   UNL d   1      28.078 -12.932   6.010  0.00  0.00    -0.318 OA
BRANCH  13  14
ATOM     14  C   UNL d   1      28.960 -14.015   5.629  0.00  0.00     0.174 C 
ATOM     15  C   UNL d   1      28.154 -15.195   5.102  0.00  0.00     0.034 C 
ENDBRANCH  13  14
ENDBRANCH  11  13
ENDBRANCH   7  11
BRANCH   9  16
ATOM     16  N   UNL d   1      26.022  -8.490   2.482  0.00  0.00    -0.116 N 
ATOM     17  O   UNL d   1      25.155  -8.327   1.612  0.00  0.00    -0.532 OA
ATOM     18  O   UNL d   1      26.566  -7.577   3.117  0.00  0.00    -0.532 OA
ENDBRANCH   9  16
ENDBRANCH   1   5
BRANCH   3  19
ATOM     19  N   UNL d   1      27.096 -13.481  -1.654  0.00  0.00    -0.274 N 
ATOM     20  H   UNL d   1      28.018 -13.500  -2.082  0.00  0.00     0.189 HD
BRANCH  19  21
ATOM     21  C   UNL d   1      26.005 -14.227  -2.099  0.00  0.00     0.186 C 
ATOM     22  S   UNL d   1      25.159 -13.815  -3.501  0.00  0.00    -0.040 SA
BRANCH  21  23
ATOM     23  N   UNL d   1      25.674 -15.314  -1.294  0.00  0.00    -0.366 N 
ATOM     24  H   UNL d   1      26.161 -15.450  -0.417  0.00  0.00     0.161 HD
BRANCH  23  25
ATOM     25  C   UNL d   1      24.701 -16.341  -1.695  0.00  0.00     0.122 C 
BRANCH  25  26
ATOM     26  C   UNL d   1      23.598 -16.652  -0.679  0.00  0.00     0.023 C 
BRANCH  26  27
ATOM     27  C   UNL d   1      23.859 -17.976   0.080  0.00  0.00    -0.021 C 
ATOM     28  C   UNL d   1      23.264 -19.184  -0.650  0.00  0.00     0.009 C 
ATOM     29  C   UNL d   1      25.361 -18.200   0.270  0.00  0.00     0.009 C 
ENDBRANCH  26  27
ENDBRANCH  25  26
ENDBRANCH  23  25
ENDBRANCH  21  23
ENDBRANCH  19  21
ENDBRANCH   3  19
TORSDOF 11
ENDMDL
MODEL 7
REMARK VINA RESULT:    -6.477      2.125      2.932
REMARK INTER + INTRA:         -11.587
REMARK INTER:                  -9.758
REMARK INTRA:                  -1.829
REMARK CONF_INDEPENDENT:        3.281
REMARK UNBOUND:                -1.829
REMARK  11 active torsions:
REMARK  status: ('A' for Active; 'I' for Inactive)
REMARK    1  A    between atoms: C_2  and  O_3 
REMARK    2  A    between atoms: O_3  and  C_4 
REMARK    3  A    between atoms: C_4  and  C_6 
REMARK    4  A    between atoms: C_8  and  C_9 
REMARK       I    between atoms: C_9  and  N_11 
REMARK    5  A    between atoms: N_11  and  N_12 
REMARK    6  A    between atoms: N_12  and  C_13 
REMARK    7  A    between atoms: C_13  and  N_15 
REMARK    8  A    between atoms: N_15  and  C_16 
REMARK    9  A    between atoms: C_16  and  C_17 
REMARK   10  A    between atoms: C_17  and  C_18 
REMARK   11  A    between atoms: C_22  and  N_23 
ROOT
ATOM      1  C   UNL d   1      27.487 -14.452   0.464  0.00  0.00     0.270 C 
ATOM      2  O   UNL d   1      27.453 -13.228   0.364  0.00  0.00    -0.266 OA
ATOM      3  N   UNL d   1      28.199 -15.096   1.474  0.00  0.00    -0.264 N 
ATOM      4  H   UNL d   1      28.288 -16.103   1.568  0.00  0.00     0.190 HD
ENDROOT
BRANCH   1   5
ATOM      5  C   UNL d   1      26.782 -15.314  -0.576  0.00  0.00     0.037 A 
ATOM      6  C   UNL d   1      25.993 -16.421  -0.170  0.00  0.00     0.034 A 
ATOM      7  C   UNL d   1      25.141 -17.102  -1.077  0.00  0.00     0.042 A 
ATOM      8  C   UNL d   1      25.117 -16.713  -2.419  0.00  0.00     0.053 A 
ATOM      9  C   UNL d   1      25.946 -15.661  -2.837  0.00  0.00     0.104 A 
ATOM     10  C   UNL d   1      26.792 -14.982  -1.936  0.00  0.00     0.053 A 
BRANCH   7  11
ATOM     11  C   UNL d   1      24.129 -18.081  -0.570  0.00  0.00     0.293 C 
ATOM     12  O   UNL d   1      24.430 -18.953   0.238  0.00  0.00    -0.259 OA
BRANCH  11  13
ATOM     13  O   UNL d   1      22.883 -17.866  -1.075  0.00  0.00    -0.318 OA
BRANCH  13  14
ATOM     14  C   UNL d   1      21.816 -18.496  -0.327  0.00  0.00     0.174 C 
ATOM     15  C   UNL d   1      20.709 -18.953  -1.267  0.00  0.00     0.034 C 
ENDBRANCH  13  14
ENDBRANCH  11  13
ENDBRANCH   7  11
BRANCH   9  16
ATOM     16  N   UNL d   1      25.864 -15.184  -4.226  0.00  0.00    -0.116 N 
ATOM     17  O   UNL d   1      24.918 -14.441  -4.522  0.00  0.00    -0.532 OA
ATOM     18  O   UNL d   1      26.734 -15.568  -5.018  0.00  0.00    -0.532 OA
ENDBRANCH   9  16
ENDBRANCH   1   5
BRANCH   3  19
ATOM     19  N   UNL d   1      28.941 -14.367   2.462  0.00  0.00    -0.274 N 
ATOM     20  H   UNL d   1      29.955 -14.426   2.393  0.00  0.00     0.189 HD
BRANCH  19  21
ATOM     21  C   UNL d   1      28.260 -13.632   3.433  0.00  0.00     0.186 C 
ATOM     22  S   UNL d   1      27.803 -14.316   4.906  0.00  0.00    -0.040 SA
BRANCH  21  23
ATOM     23  N   UNL d   1      27.986 -12.314   3.079  0.00  0.00    -0.366 N 
ATOM     24  H   UNL d   1      27.931 -12.063   2.100  0.00  0.00     0.161 HD
BRANCH  23  25
ATOM     25  C   UNL d   1      27.855 -11.231   4.065  0.00  0.00     0.122 C 
BRANCH  25  26
ATOM     26  C   UNL d   1      27.153  -9.960   3.574  0.00  0.00     0.023 C 
BRANCH  26  27
ATOM     27  C   UNL d   1      26.414 -10.184   2.231  0.00  0.00    -0.021 C 
ATOM     28  C   UNL d   1      25.157  -9.316   2.116  0.00  0.00     0.009 C 
ATOM     29  C   UNL d   1      27.339  -9.878   1.051  0.00  0.00     0.009 C 
ENDBRANCH  26  27
ENDBRANCH  25  26
ENDBRANCH  23  25
ENDBRANCH  21  23
ENDBRANCH  19  21
ENDBRANCH   3  19
TORSDOF 11
ENDMDL
MODEL 8
REMARK VINA RESULT:    -6.411      3.490      8.581
REMARK INTER + INTRA:         -11.527
REMARK INTER:                  -9.692
REMARK INTRA:                  -1.835
REMARK CONF_INDEPENDENT:        3.281
REMARK UNBOUND:                -1.835
REMARK  11 active torsions:
REMARK  status: ('A' for Active; 'I' for Inactive)
REMARK    1  A    between atoms: C_2  and  O_3 
REMARK    2  A    between atoms: O_3  and  C_4 
REMARK    3  A    between atoms: C_4  and  C_6 
REMARK    4  A    between atoms: C_8  and  C_9 
REMARK       I    between atoms: C_9  and  N_11 
REMARK    5  A    between atoms: N_11  and  N_12 
REMARK    6  A    between atoms: N_12  and  C_13 
REMARK    7  A    between atoms: C_13  and  N_15 
REMARK    8  A    between atoms: N_15  and  C_16 
REMARK    9  A    between atoms: C_16  and  C_17 
REMARK   10  A    between atoms: C_17  and  C_18 
REMARK   11  A    between atoms: C_22  and  N_23 
ROOT
ATOM      1  C   UNL d   1      27.549 -13.581   1.425  0.00  0.00     0.270 C 
ATOM      2  O   UNL d   1      27.390 -13.340   0.231  0.00  0.00    -0.266 OA
ATOM      3  N   UNL d   1      27.910 -14.845   1.887  0.00  0.00    -0.264 N 
ATOM      4  H   UNL d   1      28.012 -15.097   2.865  0.00  0.00     0.190 HD
ENDROOT
BRANCH   1   5
ATOM      5  C   UNL d   1      27.293 -12.488   2.456  0.00  0.00     0.037 A 
ATOM      6  C   UNL d   1      27.795 -12.620   3.776  0.00  0.00     0.034 A 
ATOM      7  C   UNL d   1      27.780 -11.537   4.691  0.00  0.00     0.042 A 
ATOM      8  C   UNL d   1      27.205 -10.323   4.306  0.00  0.00     0.053 A 
ATOM      9  C   UNL d   1      26.649 -10.210   3.024  0.00  0.00     0.104 A 
ATOM     10  C   UNL d   1      26.664 -11.286   2.112  0.00  0.00     0.053 A 
BRANCH   7  11
ATOM     11  C   UNL d   1      28.551 -11.621   5.971  0.00  0.00     0.293 C 
ATOM     12  O   UNL d   1      29.470 -10.847   6.218  0.00  0.00    -0.259 OA
BRANCH  11  13
ATOM     13  O   UNL d   1      28.097 -12.601   6.800  0.00  0.00    -0.318 OA
BRANCH  13  14
ATOM     14  C   UNL d   1      29.015 -13.708   6.977  0.00  0.00     0.174 C 
ATOM     15  C   UNL d   1      28.840 -14.724   5.858  0.00  0.00     0.034 C 
ENDBRANCH  13  14
ENDBRANCH  11  13
ENDBRANCH   7  11
BRANCH   9  16
ATOM     16  N   UNL d   1      26.122  -8.912   2.576  0.00  0.00    -0.116 N 
ATOM     17  O   UNL d   1      26.654  -7.889   3.030  0.00  0.00    -0.532 OA
ATOM     18  O   UNL d   1      25.169  -8.919   1.786  0.00  0.00    -0.532 OA
ENDBRANCH   9  16
ENDBRANCH   1   5
BRANCH   3  19
ATOM     19  N   UNL d   1      28.115 -15.950   0.994  0.00  0.00    -0.274 N 
ATOM     20  H   UNL d   1      29.078 -16.255   0.875  0.00  0.00     0.189 HD
BRANCH  19  21
ATOM     21  C   UNL d   1      27.019 -16.536   0.361  0.00  0.00     0.186 C 
ATOM     22  S   UNL d   1      26.642 -18.168   0.568  0.00  0.00    -0.040 SA
BRANCH  21  23
ATOM     23  N   UNL d   1      26.286 -15.675  -0.451  0.00  0.00    -0.366 N 
ATOM     24  H   UNL d   1      26.569 -14.708  -0.534  0.00  0.00     0.161 HD
BRANCH  23  25
ATOM     25  C   UNL d   1      25.051 -16.081  -1.139  0.00  0.00     0.122 C 
BRANCH  25  26
ATOM     26  C   UNL d   1      25.157 -16.261  -2.657  0.00  0.00     0.023 C 
BRANCH  26  27
ATOM     27  C   UNL d   1      25.899 -15.081  -3.334  0.00  0.00    -0.021 C 
ATOM     28  C   UNL d   1      26.052 -15.291  -4.843  0.00  0.00     0.009 C 
ATOM     29  C   UNL d   1      25.155 -13.767  -3.086  0.00  0.00     0.009 C 
ENDBRANCH  26  27
ENDBRANCH  25  26
ENDBRANCH  23  25
ENDBRANCH  21  23
ENDBRANCH  19  21
ENDBRANCH   3  19
TORSDOF 11
ENDMDL
MODEL 9
REMARK VINA RESULT:    -5.819      4.438      6.157
REMARK INTER + INTRA:         -11.092
REMARK INTER:                  -9.100
REMARK INTRA:                  -1.992
REMARK CONF_INDEPENDENT:        3.281
REMARK UNBOUND:                -1.992
REMARK  11 active torsions:
REMARK  status: ('A' for Active; 'I' for Inactive)
REMARK    1  A    between atoms: C_2  and  O_3 
REMARK    2  A    between atoms: O_3  and  C_4 
REMARK    3  A    between atoms: C_4  and  C_6 
REMARK    4  A    between atoms: C_8  and  C_9 
REMARK       I    between atoms: C_9  and  N_11 
REMARK    5  A    between atoms: N_11  and  N_12 
REMARK    6  A    between atoms: N_12  and  C_13 
REMARK    7  A    between atoms: C_13  and  N_15 
REMARK    8  A    between atoms: N_15  and  C_16 
REMARK    9  A    between atoms: C_16  and  C_17 
REMARK   10  A    between atoms: C_17  and  C_18 
REMARK   11  A    between atoms: C_22  and  N_23 
ROOT
ATOM      1  C   UNL d   1      28.900 -15.974  -0.686  0.00  0.00     0.270 C 
ATOM      2  O   UNL d   1      29.409 -14.878  -0.909  0.00  0.00    -0.266 OA
ATOM      3  N   UNL d   1      29.551 -16.958   0.056  0.00  0.00    -0.264 N 
ATOM      4  H   UNL d   1      29.186 -17.889   0.229  0.00  0.00     0.190 HD
ENDROOT
BRANCH   1   5
ATOM      5  C   UNL d   1      27.538 -16.310  -1.279  0.00  0.00     0.037 A 
ATOM      6  C   UNL d   1      26.687 -17.243  -0.633  0.00  0.00     0.034 A 
ATOM      7  C   UNL d   1      25.332 -17.410  -1.018  0.00  0.00     0.042 A 
ATOM      8  C   UNL d   1      24.834 -16.679  -2.099  0.00  0.00     0.053 A 
ATOM      9  C   UNL d   1      25.691 -15.804  -2.783  0.00  0.00     0.104 A 
ATOM     10  C   UNL d   1      27.037 -15.636  -2.399  0.00  0.00     0.053 A 
BRANCH   7  11
ATOM     11  C   UNL d   1      24.395 -18.194  -0.156  0.00  0.00     0.293 C 
ATOM     12  O   UNL d   1      24.500 -18.201   1.066  0.00  0.00    -0.259 OA
BRANCH  11  13
ATOM     13  O   UNL d   1      23.434 -18.843  -0.871  0.00  0.00    -0.318 OA
BRANCH  13  14
ATOM     14  C   UNL d   1      22.181 -19.022  -0.167  0.00  0.00     0.174 C 
ATOM     15  C   UNL d   1      21.008 -18.847  -1.122  0.00  0.00     0.034 C 
ENDBRANCH  13  14
ENDBRANCH  11  13
ENDBRANCH   7  11
BRANCH   9  16
ATOM     16  N   UNL d   1      25.154 -14.964  -3.864  0.00  0.00    -0.116 N 
ATOM     17  O   UNL d   1      24.349 -14.075  -3.554  0.00  0.00    -0.532 OA
ATOM     18  O   UNL d   1      25.526 -15.207  -5.019  0.00  0.00    -0.532 OA
ENDBRANCH   9  16
ENDBRANCH   1   5
BRANCH   3  19
ATOM     19  N   UNL d   1      30.862 -16.753   0.605  0.00  0.00    -0.274 N 
ATOM     20  H   UNL d   1      30.916 -16.680   1.618  0.00  0.00     0.189 HD
BRANCH  19  21
ATOM     21  C   UNL d   1      31.961 -16.674  -0.250  0.00  0.00     0.186 C 
ATOM     22  S   UNL d   1      33.454 -17.348   0.158  0.00  0.00    -0.040 SA
BRANCH  21  23
ATOM     23  N   UNL d   1      31.726 -15.992  -1.441  0.00  0.00    -0.366 N 
ATOM     24  H   UNL d   1      31.543 -14.998  -1.417  0.00  0.00     0.161 HD
BRANCH  23  25
ATOM     25  C   UNL d   1      31.642 -16.665  -2.746  0.00  0.00     0.122 C 
BRANCH  25  26
ATOM     26  C   UNL d   1      30.298 -16.552  -3.473  0.00  0.00     0.023 C 
BRANCH  26  27
ATOM     27  C   UNL d   1      30.449 -16.707  -5.007  0.00  0.00    -0.021 C 
ATOM     28  C   UNL d   1      30.419 -18.175  -5.441  0.00  0.00     0.009 C 
ATOM     29  C   UNL d   1      29.337 -15.949  -5.735  0.00  0.00     0.009 C 
ENDBRANCH  26  27
ENDBRANCH  25  26
ENDBRANCH  23  25
ENDBRANCH  21  23
ENDBRANCH  19  21
ENDBRANCH   3  19
TORSDOF 11
ENDMDL
