MODEL 1
REMARK VINA RESULT:    -7.690      0.000      0.000
REMARK INTER + INTRA:         -13.184
REMARK INTER:                 -10.374
REMARK INTRA:                  -2.809
REMARK CONF_INDEPENDENT:        2.685
REMARK UNBOUND:                -2.809
REMARK  9 active torsions:
REMARK  status: ('A' for Active; 'I' for Inactive)
REMARK    1  A    between atoms: O_2  and  C_3 
REMARK    2  A    between atoms: C_9  and  C_10 
REMARK       I    between atoms: C_10  and  N_12 
REMARK    3  A    between atoms: N_12  and  C_13 
REMARK    4  A    between atoms: C_13  and  N_15 
REMARK    5  A    between atoms: N_15  and  C_16 
REMARK    6  A    between atoms: C_19  and  O_20 
REMARK    7  A    between atoms: C_22  and  C_23 
REMARK    8  A    between atoms: C_26  and  C_27 
REMARK    9  A    between atoms: C_27  and  O_28 
ROOT
ATOM      1  N   UNL d   1      28.922 -17.364   0.097  0.00  0.00    -0.333 N 
ATOM      2  H   UNL d   1      29.240 -18.184   0.601  0.00  0.00     0.168 HD
ENDROOT
BRANCH   1   3
ATOM      3  C   UNL d   1      29.718 -16.186   0.088  0.00  0.00     0.179 C 
ATOM      4  S   UNL d   1      30.927 -15.902  -1.069  0.00  0.00    -0.040 SA
BRANCH   3   5
ATOM      5  N   UNL d   1      29.398 -15.240   1.087  0.00  0.00    -0.299 N 
ATOM      6  C   UNL d   1      28.592 -14.097   0.896  0.00  0.00     0.260 C 
ATOM      7  O   UNL d   1      28.161 -13.725  -0.203  0.00  0.00    -0.267 OA
ATOM      8  H   UNL d   1      29.741 -15.384   2.030  0.00  0.00     0.171 HD
BRANCH   6   9
ATOM      9  C   UNL d   1      28.199 -13.200   2.018  0.00  0.00     0.067 A 
ATOM     10  C   UNL d   1      27.535 -11.994   1.669  0.00  0.00     0.043 A 
ATOM     11  C   UNL d   1      27.134 -11.084   2.640  0.00  0.00     0.035 A 
ATOM     12  C   UNL d   1      27.405 -11.341   3.976  0.00  0.00     0.026 A 
ATOM     13 CL   UNL d   1      26.308  -9.641   2.192  0.00  0.00    -0.084 Cl
ATOM     14  C   UNL d   1      28.053 -12.531   4.338  0.00  0.00     0.039 A 
ATOM     15  C   UNL d   1      28.423 -13.475   3.366  0.00  0.00     0.084 A 
BRANCH  15  16
ATOM     16  O   UNL d   1      29.081 -14.629   3.702  0.00  0.00    -0.355 OA
ATOM     17  C   UNL d   1      29.207 -14.808   5.112  0.00  0.00     0.210 C 
ENDBRANCH  15  16
ENDBRANCH   6   9
ENDBRANCH   3   5
ENDBRANCH   1   3
BRANCH   1  18
ATOM     18  C   UNL d   1      27.529 -17.357  -0.279  0.00  0.00     0.035 A 
ATOM     19  C   UNL d   1      26.568 -18.177   0.307  0.00  0.00     0.032 A 
ATOM     20  C   UNL d   1      25.214 -18.058  -0.092  0.00  0.00     0.040 A 
ATOM     21  C   UNL d   1      24.782 -17.093  -1.034  0.00  0.00     0.081 A 
ATOM     22  C   UNL d   1      25.752 -16.286  -1.643  0.00  0.00     0.033 A 
ATOM     23  C   UNL d   1      27.100 -16.483  -1.284  0.00  0.00     0.046 A 
BRANCH  21  24
ATOM     24  O   UNL d   1      23.427 -17.136  -1.270  0.00  0.00    -0.355 OA
ATOM     25  C   UNL d   1      22.608 -17.812  -0.322  0.00  0.00     0.210 C 
ENDBRANCH  21  24
BRANCH  22  26
ATOM     26  C   UNL d   1      25.558 -15.395  -2.780  0.00  0.00     0.088 C 
ATOM     27  C   UNL d   1      24.584 -14.449  -3.005  0.00  0.00     0.041 C 
ATOM     28  C   UNL d   1      24.954 -13.764  -4.174  0.00  0.00     0.038 C 
ATOM     29  C   UNL d   1      26.117 -14.346  -4.632  0.00  0.00     0.077 C 
ATOM     30  O   UNL d   1      26.441 -15.412  -3.830  0.00  0.00    -0.312 OA
BRANCH  29  31
ATOM     31  C   UNL d   1      27.030 -14.002  -5.754  0.00  0.00     0.229 C 
BRANCH  31  32
ATOM     32  O   UNL d   1      27.698 -15.200  -6.152  0.00  0.00    -0.394 OA
ATOM     33  H   UNL d   1      27.696 -15.784  -5.374  0.00  0.00     0.209 HD
ENDBRANCH  31  32
ENDBRANCH  29  31
ENDBRANCH  22  26
ENDBRANCH   1  18
TORSDOF 9
ENDMDL
MODEL 2
REMARK VINA RESULT:    -7.687      4.131      7.780
REMARK INTER + INTRA:         -13.011
REMARK INTER:                 -10.372
REMARK INTRA:                  -2.639
REMARK CONF_INDEPENDENT:        2.685
REMARK UNBOUND:                -2.639
REMARK  9 active torsions:
REMARK  status: ('A' for Active; 'I' for Inactive)
REMARK    1  A    between atoms: O_2  and  C_3 
REMARK    2  A    between atoms: C_9  and  C_10 
REMARK       I    between atoms: C_10  and  N_12 
REMARK    3  A    between atoms: N_12  and  C_13 
REMARK    4  A    between atoms: C_13  and  N_15 
REMARK    5  A    between atoms: N_15  and  C_16 
REMARK    6  A    between atoms: C_19  and  O_20 
REMARK    7  A    between atoms: C_22  and  C_23 
REMARK    8  A    between atoms: C_26  and  C_27 
REMARK    9  A    between atoms: C_27  and  O_28 
ROOT
ATOM      1  N   UNL d   1      25.177 -13.390  -4.534  0.00  0.00    -0.333 N 
ATOM      2  H   UNL d   1      24.351 -13.830  -4.921  0.00  0.00     0.168 HD
ENDROOT
BRANCH   1   3
ATOM      3  C   UNL d   1      26.015 -12.601  -5.367  0.00  0.00     0.179 C 
ATOM      4  S   UNL d   1      25.528 -11.113  -6.020  0.00  0.00    -0.040 SA
BRANCH   3   5
ATOM      5  N   UNL d   1      27.311 -13.123  -5.576  0.00  0.00    -0.299 N 
ATOM      6  C   UNL d   1      27.622 -14.491  -5.736  0.00  0.00     0.260 C 
ATOM      7  O   UNL d   1      26.805 -15.410  -5.599  0.00  0.00    -0.267 OA
ATOM      8  H   UNL d   1      28.095 -12.484  -5.646  0.00  0.00     0.171 HD
BRANCH   6   9
ATOM      9  C   UNL d   1      28.995 -14.966  -6.067  0.00  0.00     0.067 A 
ATOM     10  C   UNL d   1      29.293 -16.320  -5.759  0.00  0.00     0.043 A 
ATOM     11  C   UNL d   1      30.547 -16.859  -6.020  0.00  0.00     0.035 A 
ATOM     12  C   UNL d   1      31.538 -16.059  -6.569  0.00  0.00     0.026 A 
ATOM     13 CL   UNL d   1      30.875 -18.511  -5.661  0.00  0.00    -0.084 Cl
ATOM     14  C   UNL d   1      31.257 -14.723  -6.886  0.00  0.00     0.039 A 
ATOM     15  C   UNL d   1      29.980 -14.181  -6.665  0.00  0.00     0.084 A 
BRANCH  15  16
ATOM     16  O   UNL d   1      29.698 -12.870  -6.944  0.00  0.00    -0.355 OA
ATOM     17  C   UNL d   1      30.381 -11.959  -6.083  0.00  0.00     0.210 C 
ENDBRANCH  15  16
ENDBRANCH   6   9
ENDBRANCH   3   5
ENDBRANCH   1   3
BRANCH   1  18
ATOM     18  C   UNL d   1      25.610 -13.884  -3.250  0.00  0.00     0.035 A 
ATOM     19  C   UNL d   1      26.599 -13.277  -2.482  0.00  0.00     0.032 A 
ATOM     20  C   UNL d   1      26.916 -13.807  -1.206  0.00  0.00     0.040 A 
ATOM     21  C   UNL d   1      26.226 -14.910  -0.650  0.00  0.00     0.081 A 
ATOM     22  C   UNL d   1      25.248 -15.538  -1.432  0.00  0.00     0.033 A 
ATOM     23  C   UNL d   1      25.012 -15.037  -2.728  0.00  0.00     0.046 A 
BRANCH  21  24
ATOM     24  O   UNL d   1      26.679 -15.256   0.603  0.00  0.00    -0.355 OA
ATOM     25  C   UNL d   1      28.081 -15.421   0.781  0.00  0.00     0.210 C 
ENDBRANCH  21  24
BRANCH  22  26
ATOM     26  C   UNL d   1      24.582 -16.803  -1.148  0.00  0.00     0.088 C 
ATOM     27  C   UNL d   1      25.083 -17.961  -0.597  0.00  0.00     0.041 C 
ATOM     28  C   UNL d   1      23.987 -18.815  -0.393  0.00  0.00     0.038 C 
ATOM     29  C   UNL d   1      22.870 -18.155  -0.861  0.00  0.00     0.077 C 
ATOM     30  O   UNL d   1      23.245 -16.956  -1.413  0.00  0.00    -0.312 OA
BRANCH  29  31
ATOM     31  C   UNL d   1      21.423 -18.498  -0.829  0.00  0.00     0.229 C 
BRANCH  31  32
ATOM     32  O   UNL d   1      20.696 -17.349  -1.266  0.00  0.00    -0.394 OA
ATOM     33  H   UNL d   1      21.237 -16.578  -1.025  0.00  0.00     0.209 HD
ENDBRANCH  31  32
ENDBRANCH  29  31
ENDBRANCH  22  26
ENDBRANCH   1  18
TORSDOF 9
ENDMDL
MODEL 3
REMARK VINA RESULT:    -7.637      5.036      7.436
REMARK INTER + INTRA:         -13.053
REMARK INTER:                 -10.322
REMARK INTRA:                  -2.732
REMARK CONF_INDEPENDENT:        2.685
REMARK UNBOUND:                -2.732
REMARK  9 active torsions:
REMARK  status: ('A' for Active; 'I' for Inactive)
REMARK    1  A    between atoms: O_2  and  C_3 
REMARK    2  A    between atoms: C_9  and  C_10 
REMARK       I    between atoms: C_10  and  N_12 
REMARK    3  A    between atoms: N_12  and  C_13 
REMARK    4  A    between atoms: C_13  and  N_15 
REMARK    5  A    between atoms: N_15  and  C_16 
REMARK    6  A    between atoms: C_19  and  O_20 
REMARK    7  A    between atoms: C_22  and  C_23 
REMARK    8  A    between atoms: C_26  and  C_27 
REMARK    9  A    between atoms: C_27  and  O_28 
ROOT
ATOM      1  N   UNL d   1      25.755 -13.436  -5.020  0.00  0.00    -0.333 N 
ATOM      2  H   UNL d   1      24.809 -13.612  -5.338  0.00  0.00     0.168 HD
ENDROOT
BRANCH   1   3
ATOM      3  C   UNL d   1      26.689 -14.506  -4.951  0.00  0.00     0.179 C 
ATOM      4  S   UNL d   1      27.897 -14.750  -6.117  0.00  0.00    -0.040 SA
BRANCH   3   5
ATOM      5  N   UNL d   1      26.570 -15.329  -3.809  0.00  0.00    -0.299 N 
ATOM      6  C   UNL d   1      25.416 -15.445  -3.005  0.00  0.00     0.260 C 
ATOM      7  O   UNL d   1      24.402 -14.750  -3.141  0.00  0.00    -0.267 OA
ATOM      8  H   UNL d   1      27.355 -15.913  -3.539  0.00  0.00     0.171 HD
BRANCH   6   9
ATOM      9  C   UNL d   1      25.319 -16.418  -1.881  0.00  0.00     0.067 A 
ATOM     10  C   UNL d   1      24.020 -16.893  -1.559  0.00  0.00     0.043 A 
ATOM     11  C   UNL d   1      23.819 -17.796  -0.522  0.00  0.00     0.035 A 
ATOM     12  C   UNL d   1      24.901 -18.228   0.232  0.00  0.00     0.026 A 
ATOM     13 CL   UNL d   1      22.238 -18.378  -0.168  0.00  0.00    -0.084 Cl
ATOM     14  C   UNL d   1      26.191 -17.774  -0.078  0.00  0.00     0.039 A 
ATOM     15  C   UNL d   1      26.407 -16.894  -1.152  0.00  0.00     0.084 A 
BRANCH  15  16
ATOM     16  O   UNL d   1      27.658 -16.420  -1.450  0.00  0.00    -0.355 OA
ATOM     17  C   UNL d   1      28.371 -15.968  -0.299  0.00  0.00     0.210 C 
ENDBRANCH  15  16
ENDBRANCH   6   9
ENDBRANCH   3   5
ENDBRANCH   1   3
BRANCH   1  18
ATOM     18  C   UNL d   1      25.968 -12.181  -4.343  0.00  0.00     0.035 A 
ATOM     19  C   UNL d   1      26.595 -12.068  -3.106  0.00  0.00     0.032 A 
ATOM     20  C   UNL d   1      26.808 -10.783  -2.546  0.00  0.00     0.040 A 
ATOM     21  C   UNL d   1      26.454  -9.592  -3.224  0.00  0.00     0.081 A 
ATOM     22  C   UNL d   1      25.800  -9.705  -4.458  0.00  0.00     0.033 A 
ATOM     23  C   UNL d   1      25.530 -10.998  -4.950  0.00  0.00     0.046 A 
BRANCH  21  24
ATOM     24  O   UNL d   1      26.760  -8.454  -2.514  0.00  0.00    -0.355 OA
ATOM     25  C   UNL d   1      25.822  -8.004  -1.542  0.00  0.00     0.210 C 
ENDBRANCH  21  24
BRANCH  22  26
ATOM     26  C   UNL d   1      25.161  -8.632  -5.209  0.00  0.00     0.088 C 
ATOM     27  C   UNL d   1      25.395  -8.190  -6.491  0.00  0.00     0.041 C 
ATOM     28  C   UNL d   1      24.397  -7.245  -6.778  0.00  0.00     0.038 C 
ATOM     29  C   UNL d   1      23.620  -7.123  -5.645  0.00  0.00     0.077 C 
ATOM     30  O   UNL d   1      24.143  -7.905  -4.646  0.00  0.00    -0.312 OA
BRANCH  29  31
ATOM     31  C   UNL d   1      22.372  -6.363  -5.369  0.00  0.00     0.229 C 
BRANCH  31  32
ATOM     32  O   UNL d   1      22.477  -5.822  -4.052  0.00  0.00    -0.394 OA
ATOM     33  H   UNL d   1      22.954  -6.484  -3.523  0.00  0.00     0.209 HD
ENDBRANCH  31  32
ENDBRANCH  29  31
ENDBRANCH  22  26
ENDBRANCH   1  18
TORSDOF 9
ENDMDL
MODEL 4
REMARK VINA RESULT:    -7.617      4.465      6.556
REMARK INTER + INTRA:         -13.838
REMARK INTER:                 -10.301
REMARK INTRA:                  -3.537
REMARK CONF_INDEPENDENT:        2.685
REMARK UNBOUND:                -3.537
REMARK  9 active torsions:
REMARK  status: ('A' for Active; 'I' for Inactive)
REMARK    1  A    between atoms: O_2  and  C_3 
REMARK    2  A    between atoms: C_9  and  C_10 
REMARK       I    between atoms: C_10  and  N_12 
REMARK    3  A    between atoms: N_12  and  C_13 
REMARK    4  A    between atoms: C_13  and  N_15 
REMARK    5  A    between atoms: N_15  and  C_16 
REMARK    6  A    between atoms: C_19  and  O_20 
REMARK    7  A    between atoms: C_22  and  C_23 
REMARK    8  A    between atoms: C_26  and  C_27 
REMARK    9  A    between atoms: C_27  and  O_28 
ROOT
ATOM      1  N   UNL d   1      29.020 -17.718  -0.247  0.00  0.00    -0.333 N 
ATOM      2  H   UNL d   1      29.280 -18.200   0.605  0.00  0.00     0.168 HD
ENDROOT
BRANCH   1   3
ATOM      3  C   UNL d   1      29.992 -16.964  -0.960  0.00  0.00     0.179 C 
ATOM      4  S   UNL d   1      30.832 -15.661  -0.272  0.00  0.00    -0.040 SA
BRANCH   3   5
ATOM      5  N   UNL d   1      30.247 -17.411  -2.275  0.00  0.00    -0.299 N 
ATOM      6  C   UNL d   1      29.874 -16.729  -3.454  0.00  0.00     0.260 C 
ATOM      7  O   UNL d   1      29.175 -15.708  -3.474  0.00  0.00    -0.267 OA
ATOM      8  H   UNL d   1      30.760 -18.275  -2.412  0.00  0.00     0.171 HD
BRANCH   6   9
ATOM      9  C   UNL d   1      30.274 -17.198  -4.810  0.00  0.00     0.067 A 
ATOM     10  C   UNL d   1      30.512 -18.591  -4.958  0.00  0.00     0.043 A 
ATOM     11  C   UNL d   1      30.898 -19.130  -6.179  0.00  0.00     0.035 A 
ATOM     12  C   UNL d   1      31.078 -18.295  -7.273  0.00  0.00     0.026 A 
ATOM     13 CL   UNL d   1      31.155 -20.825  -6.340  0.00  0.00    -0.084 Cl
ATOM     14  C   UNL d   1      30.840 -16.920  -7.144  0.00  0.00     0.039 A 
ATOM     15  C   UNL d   1      30.409 -16.373  -5.924  0.00  0.00     0.084 A 
BRANCH  15  16
ATOM     16  O   UNL d   1      30.199 -15.027  -5.776  0.00  0.00    -0.355 OA
ATOM     17  C   UNL d   1      30.388 -14.297  -6.988  0.00  0.00     0.210 C 
ENDBRANCH  15  16
ENDBRANCH   6   9
ENDBRANCH   3   5
ENDBRANCH   1   3
BRANCH   1  18
ATOM     18  C   UNL d   1      27.603 -17.561  -0.474  0.00  0.00     0.035 A 
ATOM     19  C   UNL d   1      26.628 -18.271   0.221  0.00  0.00     0.032 A 
ATOM     20  C   UNL d   1      25.259 -18.006  -0.033  0.00  0.00     0.040 A 
ATOM     21  C   UNL d   1      24.835 -17.003  -0.937  0.00  0.00     0.081 A 
ATOM     22  C   UNL d   1      25.816 -16.306  -1.656  0.00  0.00     0.033 A 
ATOM     23  C   UNL d   1      27.165 -16.648  -1.439  0.00  0.00     0.046 A 
BRANCH  21  24
ATOM     24  O   UNL d   1      23.466 -16.899  -1.027  0.00  0.00    -0.355 OA
ATOM     25  C   UNL d   1      22.680 -17.694  -0.147  0.00  0.00     0.210 C 
ENDBRANCH  21  24
BRANCH  22  26
ATOM     26  C   UNL d   1      25.598 -15.402  -2.778  0.00  0.00     0.088 C 
ATOM     27  C   UNL d   1      24.623 -14.450  -2.969  0.00  0.00     0.041 C 
ATOM     28  C   UNL d   1      24.967 -13.753  -4.139  0.00  0.00     0.038 C 
ATOM     29  C   UNL d   1      26.117 -14.334  -4.631  0.00  0.00     0.077 C 
ATOM     30  O   UNL d   1      26.456 -15.410  -3.848  0.00  0.00    -0.312 OA
BRANCH  29  31
ATOM     31  C   UNL d   1      27.004 -13.980  -5.770  0.00  0.00     0.229 C 
BRANCH  31  32
ATOM     32  O   UNL d   1      27.709 -15.162  -6.154  0.00  0.00    -0.394 OA
ATOM     33  H   UNL d   1      28.118 -15.509  -5.343  0.00  0.00     0.209 HD
ENDBRANCH  31  32
ENDBRANCH  29  31
ENDBRANCH  22  26
ENDBRANCH   1  18
TORSDOF 9
ENDMDL
MODEL 5
REMARK VINA RESULT:    -7.227      4.572      7.653
REMARK INTER + INTRA:         -13.012
REMARK INTER:                  -9.912
REMARK INTRA:                  -3.100
REMARK CONF_INDEPENDENT:        2.685
REMARK UNBOUND:                -3.100
REMARK  9 active torsions:
REMARK  status: ('A' for Active; 'I' for Inactive)
REMARK    1  A    between atoms: O_2  and  C_3 
REMARK    2  A    between atoms: C_9  and  C_10 
REMARK       I    between atoms: C_10  and  N_12 
REMARK    3  A    between atoms: N_12  and  C_13 
REMARK    4  A    between atoms: C_13  and  N_15 
REMARK    5  A    between atoms: N_15  and  C_16 
REMARK    6  A    between atoms: C_19  and  O_20 
REMARK    7  A    between atoms: C_22  and  C_23 
REMARK    8  A    between atoms: C_26  and  C_27 
REMARK    9  A    between atoms: C_27  and  O_28 
ROOT
ATOM      1  N   UNL d   1      25.641 -13.416  -5.012  0.00  0.00    -0.333 N 
ATOM      2  H   UNL d   1      24.696 -13.769  -4.919  0.00  0.00     0.168 HD
ENDROOT
BRANCH   1   3
ATOM      3  C   UNL d   1      26.746 -14.278  -4.772  0.00  0.00     0.179 C 
ATOM      4  S   UNL d   1      28.153 -14.257  -5.720  0.00  0.00    -0.040 SA
BRANCH   3   5
ATOM      5  N   UNL d   1      26.609 -15.126  -3.651  0.00  0.00    -0.299 N 
ATOM      6  C   UNL d   1      25.415 -15.333  -2.927  0.00  0.00     0.260 C 
ATOM      7  O   UNL d   1      24.367 -14.705  -3.121  0.00  0.00    -0.267 OA
ATOM      8  H   UNL d   1      27.412 -15.660  -3.335  0.00  0.00     0.171 HD
BRANCH   6   9
ATOM      9  C   UNL d   1      25.311 -16.328  -1.823  0.00  0.00     0.067 A 
ATOM     10  C   UNL d   1      24.024 -16.877  -1.579  0.00  0.00     0.043 A 
ATOM     11  C   UNL d   1      23.818 -17.807  -0.567  0.00  0.00     0.035 A 
ATOM     12  C   UNL d   1      24.879 -18.193   0.239  0.00  0.00     0.026 A 
ATOM     13 CL   UNL d   1      22.253 -18.478  -0.308  0.00  0.00    -0.084 Cl
ATOM     14  C   UNL d   1      26.157 -17.666   0.005  0.00  0.00     0.039 A 
ATOM     15  C   UNL d   1      26.383 -16.757  -1.042  0.00  0.00     0.084 A 
BRANCH  15  16
ATOM     16  O   UNL d   1      27.620 -16.212  -1.265  0.00  0.00    -0.355 OA
ATOM     17  C   UNL d   1      28.685 -17.036  -0.792  0.00  0.00     0.210 C 
ENDBRANCH  15  16
ENDBRANCH   6   9
ENDBRANCH   3   5
ENDBRANCH   1   3
BRANCH   1  18
ATOM     18  C   UNL d   1      25.776 -11.980  -5.047  0.00  0.00     0.035 A 
ATOM     19  C   UNL d   1      25.775 -11.234  -6.222  0.00  0.00     0.032 A 
ATOM     20  C   UNL d   1      25.857  -9.821  -6.150  0.00  0.00     0.040 A 
ATOM     21  C   UNL d   1      25.887  -9.124  -4.919  0.00  0.00     0.081 A 
ATOM     22  C   UNL d   1      25.914  -9.875  -3.736  0.00  0.00     0.033 A 
ATOM     23  C   UNL d   1      25.913 -11.280  -3.843  0.00  0.00     0.046 A 
BRANCH  21  24
ATOM     24  O   UNL d   1      25.952  -7.757  -5.072  0.00  0.00    -0.355 OA
ATOM     25  C   UNL d   1      24.813  -6.992  -4.695  0.00  0.00     0.210 C 
ENDBRANCH  21  24
BRANCH  22  26
ATOM     26  C   UNL d   1      26.163  -9.376  -2.390  0.00  0.00     0.088 C 
ATOM     27  C   UNL d   1      27.152  -9.710  -1.493  0.00  0.00     0.041 C 
ATOM     28  C   UNL d   1      27.031  -8.820  -0.413  0.00  0.00     0.038 C 
ATOM     29  C   UNL d   1      25.951  -8.006  -0.681  0.00  0.00     0.077 C 
ATOM     30  O   UNL d   1      25.356  -8.406  -1.852  0.00  0.00    -0.312 OA
BRANCH  29  31
ATOM     31  C   UNL d   1      25.394  -6.824   0.028  0.00  0.00     0.229 C 
BRANCH  31  32
ATOM     32  O   UNL d   1      24.411  -6.231  -0.824  0.00  0.00    -0.394 OA
ATOM     33  H   UNL d   1      24.414  -6.753  -1.645  0.00  0.00     0.209 HD
ENDBRANCH  31  32
ENDBRANCH  29  31
ENDBRANCH  22  26
ENDBRANCH   1  18
TORSDOF 9
ENDMDL
MODEL 6
REMARK VINA RESULT:    -7.048      4.210      6.247
REMARK INTER + INTRA:         -13.496
REMARK INTER:                  -9.733
REMARK INTRA:                  -3.763
REMARK CONF_INDEPENDENT:        2.685
REMARK UNBOUND:                -3.763
REMARK  9 active torsions:
REMARK  status: ('A' for Active; 'I' for Inactive)
REMARK    1  A    between atoms: O_2  and  C_3 
REMARK    2  A    between atoms: C_9  and  C_10 
REMARK       I    between atoms: C_10  and  N_12 
REMARK    3  A    between atoms: N_12  and  C_13 
REMARK    4  A    between atoms: C_13  and  N_15 
REMARK    5  A    between atoms: N_15  and  C_16 
REMARK    6  A    between atoms: C_19  and  O_20 
REMARK    7  A    between atoms: C_22  and  C_23 
REMARK    8  A    between atoms: C_26  and  C_27 
REMARK    9  A    between atoms: C_27  and  O_28 
ROOT
ATOM      1  N   UNL d   1      29.158 -17.967  -0.441  0.00  0.00    -0.333 N 
ATOM      2  H   UNL d   1      29.423 -18.678   0.231  0.00  0.00     0.168 HD
ENDROOT
BRANCH   1   3
ATOM      3  C   UNL d   1      30.148 -17.108  -0.990  0.00  0.00     0.179 C 
ATOM      4  S   UNL d   1      30.928 -15.904  -0.084  0.00  0.00    -0.040 SA
BRANCH   3   5
ATOM      5  N   UNL d   1      30.476 -17.361  -2.341  0.00  0.00    -0.299 N 
ATOM      6  C   UNL d   1      30.133 -16.532  -3.431  0.00  0.00     0.260 C 
ATOM      7  O   UNL d   1      29.402 -15.537  -3.345  0.00  0.00    -0.267 OA
ATOM      8  H   UNL d   1      31.023 -18.184  -2.570  0.00  0.00     0.171 HD
BRANCH   6   9
ATOM      9  C   UNL d   1      30.608 -16.798  -4.817  0.00  0.00     0.067 A 
ATOM     10  C   UNL d   1      30.821 -15.665  -5.647  0.00  0.00     0.043 A 
ATOM     11  C   UNL d   1      31.255 -15.804  -6.960  0.00  0.00     0.035 A 
ATOM     12  C   UNL d   1      31.464 -17.072  -7.484  0.00  0.00     0.026 A 
ATOM     13 CL   UNL d   1      31.530 -14.414  -7.937  0.00  0.00    -0.084 Cl
ATOM     14  C   UNL d   1      31.266 -18.200  -6.675  0.00  0.00     0.039 A 
ATOM     15  C   UNL d   1      30.868 -18.066  -5.335  0.00  0.00     0.084 A 
BRANCH  15  16
ATOM     16  O   UNL d   1      30.643 -19.160  -4.540  0.00  0.00    -0.355 OA
ATOM     17  C   UNL d   1      30.416 -20.354  -5.288  0.00  0.00     0.210 C 
ENDBRANCH  15  16
ENDBRANCH   6   9
ENDBRANCH   3   5
ENDBRANCH   1   3
BRANCH   1  18
ATOM     18  C   UNL d   1      27.748 -17.669  -0.518  0.00  0.00     0.035 A 
ATOM     19  C   UNL d   1      26.792 -18.243   0.314  0.00  0.00     0.032 A 
ATOM     20  C   UNL d   1      25.436 -17.844   0.198  0.00  0.00     0.040 A 
ATOM     21  C   UNL d   1      25.017 -16.838  -0.704  0.00  0.00     0.081 A 
ATOM     22  C   UNL d   1      25.974 -16.279  -1.561  0.00  0.00     0.033 A 
ATOM     23  C   UNL d   1      27.298 -16.753  -1.476  0.00  0.00     0.046 A 
BRANCH  21  24
ATOM     24  O   UNL d   1      23.663 -16.592  -0.649  0.00  0.00    -0.355 OA
ATOM     25  C   UNL d   1      22.796 -17.695  -0.409  0.00  0.00     0.210 C 
ENDBRANCH  21  24
BRANCH  22  26
ATOM     26  C   UNL d   1      25.723 -15.402  -2.697  0.00  0.00     0.088 C 
ATOM     27  C   UNL d   1      24.747 -14.447  -2.877  0.00  0.00     0.041 C 
ATOM     28  C   UNL d   1      25.054 -13.782  -4.076  0.00  0.00     0.038 C 
ATOM     29  C   UNL d   1      26.182 -14.385  -4.594  0.00  0.00     0.077 C 
ATOM     30  O   UNL d   1      26.541 -15.443  -3.797  0.00  0.00    -0.312 OA
BRANCH  29  31
ATOM     31  C   UNL d   1      27.030 -14.066  -5.773  0.00  0.00     0.229 C 
BRANCH  31  32
ATOM     32  O   UNL d   1      27.885 -15.186  -6.006  0.00  0.00    -0.394 OA
ATOM     33  H   UNL d   1      28.147 -15.515  -5.129  0.00  0.00     0.209 HD
ENDBRANCH  31  32
ENDBRANCH  29  31
ENDBRANCH  22  26
ENDBRANCH   1  18
TORSDOF 9
ENDMDL
MODEL 7
REMARK VINA RESULT:    -6.690      3.848      7.085
REMARK INTER + INTRA:         -13.067
REMARK INTER:                  -9.375
REMARK INTRA:                  -3.692
REMARK CONF_INDEPENDENT:        2.685
REMARK UNBOUND:                -3.692
REMARK  9 active torsions:
REMARK  status: ('A' for Active; 'I' for Inactive)
REMARK    1  A    between atoms: O_2  and  C_3 
REMARK    2  A    between atoms: C_9  and  C_10 
REMARK       I    between atoms: C_10  and  N_12 
REMARK    3  A    between atoms: N_12  and  C_13 
REMARK    4  A    between atoms: C_13  and  N_15 
REMARK    5  A    between atoms: N_15  and  C_16 
REMARK    6  A    between atoms: C_19  and  O_20 
REMARK    7  A    between atoms: C_22  and  C_23 
REMARK    8  A    between atoms: C_26  and  C_27 
REMARK    9  A    between atoms: C_27  and  O_28 
ROOT
ATOM      1  N   UNL d   1      25.698 -12.002  -4.515  0.00  0.00    -0.333 N 
ATOM      2  H   UNL d   1      24.780 -11.699  -4.819  0.00  0.00     0.168 HD
ENDROOT
BRANCH   1   3
ATOM      3  C   UNL d   1      26.085 -11.834  -3.158  0.00  0.00     0.179 C 
ATOM      4  S   UNL d   1      26.440 -10.318  -2.483  0.00  0.00    -0.040 SA
BRANCH   3   5
ATOM      5  N   UNL d   1      26.107 -13.020  -2.392  0.00  0.00    -0.299 N 
ATOM      6  C   UNL d   1      25.307 -14.158  -2.630  0.00  0.00     0.260 C 
ATOM      7  O   UNL d   1      24.405 -14.209  -3.476  0.00  0.00    -0.267 OA
ATOM      8  H   UNL d   1      26.759 -13.095  -1.618  0.00  0.00     0.171 HD
BRANCH   6   9
ATOM      9  C   UNL d   1      25.460 -15.420  -1.854  0.00  0.00     0.067 A 
ATOM     10  C   UNL d   1      24.303 -16.234  -1.726  0.00  0.00     0.043 A 
ATOM     11  C   UNL d   1      24.336 -17.427  -1.014  0.00  0.00     0.035 A 
ATOM     12  C   UNL d   1      25.513 -17.825  -0.395  0.00  0.00     0.026 A 
ATOM     13 CL   UNL d   1      22.927 -18.409  -0.895  0.00  0.00    -0.084 Cl
ATOM     14  C   UNL d   1      26.665 -17.036  -0.518  0.00  0.00     0.039 A 
ATOM     15  C   UNL d   1      26.651 -15.850  -1.271  0.00  0.00     0.084 A 
BRANCH  15  16
ATOM     16  O   UNL d   1      27.761 -15.055  -1.378  0.00  0.00    -0.355 OA
ATOM     17  C   UNL d   1      28.606 -15.122  -0.230  0.00  0.00     0.210 C 
ENDBRANCH  15  16
ENDBRANCH   6   9
ENDBRANCH   3   5
ENDBRANCH   1   3
BRANCH   1  18
ATOM     18  C   UNL d   1      26.653 -12.263  -5.565  0.00  0.00     0.035 A 
ATOM     19  C   UNL d   1      26.812 -11.450  -6.683  0.00  0.00     0.032 A 
ATOM     20  C   UNL d   1      27.817 -11.760  -7.633  0.00  0.00     0.040 A 
ATOM     21  C   UNL d   1      28.711 -12.845  -7.465  0.00  0.00     0.081 A 
ATOM     22  C   UNL d   1      28.535 -13.679  -6.353  0.00  0.00     0.033 A 
ATOM     23  C   UNL d   1      27.476 -13.391  -5.470  0.00  0.00     0.046 A 
BRANCH  21  24
ATOM     24  O   UNL d   1      29.619 -12.962  -8.494  0.00  0.00    -0.355 OA
ATOM     25  C   UNL d   1      30.684 -12.020  -8.551  0.00  0.00     0.210 C 
ENDBRANCH  21  24
BRANCH  22  26
ATOM     26  C   UNL d   1      29.191 -14.957  -6.108  0.00  0.00     0.088 C 
ATOM     27  C   UNL d   1      30.057 -15.672  -6.904  0.00  0.00     0.041 C 
ATOM     28  C   UNL d   1      30.518 -16.748  -6.128  0.00  0.00     0.038 C 
ATOM     29  C   UNL d   1      29.884 -16.664  -4.905  0.00  0.00     0.077 C 
ATOM     30  O   UNL d   1      28.995 -15.618  -4.922  0.00  0.00    -0.312 OA
BRANCH  29  31
ATOM     31  C   UNL d   1      30.030 -17.448  -3.651  0.00  0.00     0.229 C 
BRANCH  31  32
ATOM     32  O   UNL d   1      28.974 -17.059  -2.771  0.00  0.00    -0.394 OA
ATOM     33  H   UNL d   1      28.816 -16.114  -2.939  0.00  0.00     0.209 HD
ENDBRANCH  31  32
ENDBRANCH  29  31
ENDBRANCH  22  26
ENDBRANCH   1  18
TORSDOF 9
ENDMDL
MODEL 8
REMARK VINA RESULT:    -6.619      3.512      5.774
REMARK INTER + INTRA:         -13.250
REMARK INTER:                  -9.304
REMARK INTRA:                  -3.946
REMARK CONF_INDEPENDENT:        2.685
REMARK UNBOUND:                -3.946
REMARK  9 active torsions:
REMARK  status: ('A' for Active; 'I' for Inactive)
REMARK    1  A    between atoms: O_2  and  C_3 
REMARK    2  A    between atoms: C_9  and  C_10 
REMARK       I    between atoms: C_10  and  N_12 
REMARK    3  A    between atoms: N_12  and  C_13 
REMARK    4  A    between atoms: C_13  and  N_15 
REMARK    5  A    between atoms: N_15  and  C_16 
REMARK    6  A    between atoms: C_19  and  O_20 
REMARK    7  A    between atoms: C_22  and  C_23 
REMARK    8  A    between atoms: C_26  and  C_27 
REMARK    9  A    between atoms: C_27  and  O_28 
ROOT
ATOM      1  N   UNL d   1      30.581 -17.731  -0.520  0.00  0.00    -0.333 N 
ATOM      2  H   UNL d   1      30.762 -18.510   0.102  0.00  0.00     0.168 HD
ENDROOT
BRANCH   1   3
ATOM      3  C   UNL d   1      29.999 -16.539  -0.010  0.00  0.00     0.179 C 
ATOM      4  S   UNL d   1      30.851 -15.442   0.965  0.00  0.00    -0.040 SA
BRANCH   3   5
ATOM      5  N   UNL d   1      28.666 -16.305  -0.414  0.00  0.00    -0.299 N 
ATOM      6  C   UNL d   1      27.633 -17.268  -0.409  0.00  0.00     0.260 C 
ATOM      7  O   UNL d   1      27.801 -18.467  -0.156  0.00  0.00    -0.267 OA
ATOM      8  H   UNL d   1      28.397 -15.374  -0.712  0.00  0.00     0.171 HD
BRANCH   6   9
ATOM      9  C   UNL d   1      26.221 -16.927  -0.741  0.00  0.00     0.067 A 
ATOM     10  C   UNL d   1      25.217 -17.774  -0.201  0.00  0.00     0.043 A 
ATOM     11  C   UNL d   1      23.869 -17.548  -0.457  0.00  0.00     0.035 A 
ATOM     12  C   UNL d   1      23.493 -16.491  -1.273  0.00  0.00     0.026 A 
ATOM     13 CL   UNL d   1      22.670 -18.574   0.230  0.00  0.00    -0.084 Cl
ATOM     14  C   UNL d   1      24.471 -15.641  -1.807  0.00  0.00     0.039 A 
ATOM     15  C   UNL d   1      25.832 -15.837  -1.519  0.00  0.00     0.084 A 
BRANCH  15  16
ATOM     16  O   UNL d   1      26.802 -15.032  -2.055  0.00  0.00    -0.355 OA
ATOM     17  C   UNL d   1      26.800 -13.715  -1.504  0.00  0.00     0.210 C 
ENDBRANCH  15  16
ENDBRANCH   6   9
ENDBRANCH   3   5
ENDBRANCH   1   3
BRANCH   1  18
ATOM     18  C   UNL d   1      30.619 -18.030  -1.930  0.00  0.00     0.035 A 
ATOM     19  C   UNL d   1      31.235 -19.159  -2.464  0.00  0.00     0.032 A 
ATOM     20  C   UNL d   1      31.170 -19.395  -3.860  0.00  0.00     0.040 A 
ATOM     21  C   UNL d   1      30.452 -18.550  -4.739  0.00  0.00     0.081 A 
ATOM     22  C   UNL d   1      29.853 -17.400  -4.207  0.00  0.00     0.033 A 
ATOM     23  C   UNL d   1      30.004 -17.151  -2.829  0.00  0.00     0.046 A 
BRANCH  21  24
ATOM     24  O   UNL d   1      30.503 -18.965  -6.051  0.00  0.00    -0.355 OA
ATOM     25  C   UNL d   1      31.765 -19.362  -6.573  0.00  0.00     0.210 C 
ENDBRANCH  21  24
BRANCH  22  26
ATOM     26  C   UNL d   1      29.263 -16.297  -4.955  0.00  0.00     0.088 C 
ATOM     27  C   UNL d   1      29.654 -15.729  -6.146  0.00  0.00     0.041 C 
ATOM     28  C   UNL d   1      28.650 -14.814  -6.502  0.00  0.00     0.038 C 
ATOM     29  C   UNL d   1      27.708 -14.837  -5.495  0.00  0.00     0.077 C 
ATOM     30  O   UNL d   1      28.128 -15.679  -4.496  0.00  0.00    -0.312 OA
BRANCH  29  31
ATOM     31  C   UNL d   1      26.386 -14.171  -5.351  0.00  0.00     0.229 C 
BRANCH  31  32
ATOM     32  O   UNL d   1      25.533 -15.055  -4.622  0.00  0.00    -0.394 OA
ATOM     33  H   UNL d   1      26.110 -15.550  -4.015  0.00  0.00     0.209 HD
ENDBRANCH  31  32
ENDBRANCH  29  31
ENDBRANCH  22  26
ENDBRANCH   1  18
TORSDOF 9
ENDMDL
MODEL 9
REMARK VINA RESULT:    -6.512      3.578      6.961
REMARK INTER + INTRA:         -13.159
REMARK INTER:                  -9.197
REMARK INTRA:                  -3.962
REMARK CONF_INDEPENDENT:        2.685
REMARK UNBOUND:                -3.962
REMARK  9 active torsions:
REMARK  status: ('A' for Active; 'I' for Inactive)
REMARK    1  A    between atoms: O_2  and  C_3 
REMARK    2  A    between atoms: C_9  and  C_10 
REMARK       I    between atoms: C_10  and  N_12 
REMARK    3  A    between atoms: N_12  and  C_13 
REMARK    4  A    between atoms: C_13  and  N_15 
REMARK    5  A    between atoms: N_15  and  C_16 
REMARK    6  A    between atoms: C_19  and  O_20 
REMARK    7  A    between atoms: C_22  and  C_23 
REMARK    8  A    between atoms: C_26  and  C_27 
REMARK    9  A    between atoms: C_27  and  O_28 
ROOT
ATOM      1  N   UNL d   1      25.823 -13.426  -5.020  0.00  0.00    -0.333 N 
ATOM      2  H   UNL d   1      24.872 -13.567  -5.337  0.00  0.00     0.168 HD
ENDROOT
BRANCH   1   3
ATOM      3  C   UNL d   1      26.720 -14.527  -4.958  0.00  0.00     0.179 C 
ATOM      4  S   UNL d   1      27.896 -14.825  -6.145  0.00  0.00    -0.040 SA
BRANCH   3   5
ATOM      5  N   UNL d   1      26.595 -15.335  -3.806  0.00  0.00    -0.299 N 
ATOM      6  C   UNL d   1      25.429 -15.457  -3.019  0.00  0.00     0.260 C 
ATOM      7  O   UNL d   1      24.407 -14.780  -3.182  0.00  0.00    -0.267 OA
ATOM      8  H   UNL d   1      27.384 -15.901  -3.513  0.00  0.00     0.171 HD
BRANCH   6   9
ATOM      9  C   UNL d   1      25.329 -16.413  -1.882  0.00  0.00     0.067 A 
ATOM     10  C   UNL d   1      24.038 -16.933  -1.597  0.00  0.00     0.043 A 
ATOM     11  C   UNL d   1      23.835 -17.825  -0.552  0.00  0.00     0.035 A 
ATOM     12  C   UNL d   1      24.904 -18.203   0.247  0.00  0.00     0.026 A 
ATOM     13 CL   UNL d   1      22.264 -18.460  -0.243  0.00  0.00    -0.084 Cl
ATOM     14  C   UNL d   1      26.186 -17.706  -0.026  0.00  0.00     0.039 A 
ATOM     15  C   UNL d   1      26.408 -16.836  -1.107  0.00  0.00     0.084 A 
BRANCH  15  16
ATOM     16  O   UNL d   1      27.650 -16.320  -1.369  0.00  0.00    -0.355 OA
ATOM     17  C   UNL d   1      28.707 -17.111  -0.829  0.00  0.00     0.210 C 
ENDBRANCH  15  16
ENDBRANCH   6   9
ENDBRANCH   3   5
ENDBRANCH   1   3
BRANCH   1  18
ATOM     18  C   UNL d   1      26.081 -12.181  -4.338  0.00  0.00     0.035 A 
ATOM     19  C   UNL d   1      25.925 -10.930  -4.929  0.00  0.00     0.032 A 
ATOM     20  C   UNL d   1      26.149  -9.762  -4.158  0.00  0.00     0.040 A 
ATOM     21  C   UNL d   1      26.477  -9.812  -2.782  0.00  0.00     0.081 A 
ATOM     22  C   UNL d   1      26.659 -11.070  -2.193  0.00  0.00     0.033 A 
ATOM     23  C   UNL d   1      26.508 -12.211  -3.005  0.00  0.00     0.046 A 
BRANCH  21  24
ATOM     24  O   UNL d   1      26.637  -8.567  -2.219  0.00  0.00    -0.355 OA
ATOM     25  C   UNL d   1      25.559  -8.039  -1.454  0.00  0.00     0.210 C 
ENDBRANCH  21  24
BRANCH  22  26
ATOM     26  C   UNL d   1      27.204 -11.344  -0.869  0.00  0.00     0.088 C 
ATOM     27  C   UNL d   1      27.558 -10.474   0.137  0.00  0.00     0.041 C 
ATOM     28  C   UNL d   1      27.873 -11.262   1.256  0.00  0.00     0.038 C 
ATOM     29  C   UNL d   1      27.734 -12.580   0.872  0.00  0.00     0.077 C 
ATOM     30  O   UNL d   1      27.415 -12.636  -0.462  0.00  0.00    -0.312 OA
BRANCH  29  31
ATOM     31  C   UNL d   1      27.831 -13.855   1.631  0.00  0.00     0.229 C 
BRANCH  31  32
ATOM     32  O   UNL d   1      27.030 -14.824   0.954  0.00  0.00    -0.394 OA
ATOM     33  H   UNL d   1      27.218 -14.717   0.006  0.00  0.00     0.209 HD
ENDBRANCH  31  32
ENDBRANCH  29  31
ENDBRANCH  22  26
ENDBRANCH   1  18
TORSDOF 9
ENDMDL
