MODEL 1
REMARK VINA RESULT:    -7.376      0.000      0.000
REMARK INTER + INTRA:          -9.515
REMARK INTER:                  -8.868
REMARK INTRA:                  -0.647
REMARK CONF_INDEPENDENT:        1.492
REMARK UNBOUND:                -0.647
REMARK  5 active torsions:
REMARK  status: ('A' for Active; 'I' for Inactive)
REMARK    1  A    between atoms: C_2  and  C_4 
REMARK    2  A    between atoms: C_4  and  C_5 
REMARK    3  A    between atoms: C_5  and  C_6 
REMARK       I    between atoms: C_6  and  N_8 
REMARK    4  A    between atoms: N_8  and  N_9 
REMARK       I    between atoms: N_9  and  C_10 
REMARK    5  A    between atoms: C_10  and  C_12 
ROOT
ATOM      1  C   UNL d   1      21.058 -18.883  -0.864  0.00  0.00     0.236 C 
ATOM      2  O   UNL d   1      21.568 -19.326  -1.893  0.00  0.00    -0.272 OA
ATOM      3  N   UNL d   1      21.828 -18.505   0.224  0.00  0.00    -0.268 N 
ATOM      4  H   UNL d   1      21.456 -18.159   1.106  0.00  0.00     0.190 HD
ENDROOT
BRANCH   3   5
ATOM      5  N   UNL d   1      23.239 -18.631   0.119  0.00  0.00    -0.267 N 
ATOM      6  C   UNL d   1      23.980 -17.665  -0.535  0.00  0.00     0.240 C 
ATOM      7  O   UNL d   1      23.461 -16.691  -1.082  0.00  0.00    -0.271 OA
ATOM      8  H   UNL d   1      23.649 -19.429   0.596  0.00  0.00     0.190 HD
BRANCH   6   9
ATOM      9  C   UNL d   1      25.482 -17.790  -0.514  0.00  0.00     0.083 A 
ATOM     10  C   UNL d   1      26.203 -18.203   0.759  0.00  0.00     0.019 A 
ATOM     11  C   UNL d   1      26.417 -16.821   0.198  0.00  0.00    -0.005 A 
ATOM     12  C   UNL d   1      27.752 -16.397  -0.336  0.00  0.00     0.011 C 
ENDBRANCH   6   9
ENDBRANCH   3   5
BRANCH   1  13
ATOM     13  C   UNL d   1      19.551 -18.722  -0.686  0.00  0.00     0.105 C 
BRANCH  13  14
ATOM     14  C   UNL d   1      18.847 -20.082  -0.522  0.00  0.00     0.013 C 
BRANCH  14  15
ATOM     15  C   UNL d   1      19.155 -20.795   0.808  0.00  0.00    -0.022 C 
ATOM     16  C   UNL d   1      19.572 -19.776   1.875  0.00  0.00     0.009 C 
ATOM     17  C   UNL d   1      17.947 -21.582   1.314  0.00  0.00     0.009 C 
ENDBRANCH  14  15
ENDBRANCH  13  14
ENDBRANCH   1  13
TORSDOF 5
ENDMDL
MODEL 2
REMARK VINA RESULT:    -7.049      1.025      6.748
REMARK INTER + INTRA:          -9.837
REMARK INTER:                  -8.541
REMARK INTRA:                  -1.296
REMARK CONF_INDEPENDENT:        1.492
REMARK UNBOUND:                -1.296
REMARK  5 active torsions:
REMARK  status: ('A' for Active; 'I' for Inactive)
REMARK    1  A    between atoms: C_2  and  C_4 
REMARK    2  A    between atoms: C_4  and  C_5 
REMARK    3  A    between atoms: C_5  and  C_6 
REMARK       I    between atoms: C_6  and  N_8 
REMARK    4  A    between atoms: N_8  and  N_9 
REMARK       I    between atoms: N_9  and  C_10 
REMARK    5  A    between atoms: C_10  and  C_12 
ROOT
ATOM      1  C   UNL d   1      23.491 -17.417  -0.857  0.00  0.00     0.236 C 
ATOM      2  O   UNL d   1      23.402 -16.846   0.230  0.00  0.00    -0.272 OA
ATOM      3  N   UNL d   1      22.527 -18.314  -1.287  0.00  0.00    -0.268 N 
ATOM      4  H   UNL d   1      22.566 -18.833  -2.163  0.00  0.00     0.190 HD
ENDROOT
BRANCH   3   5
ATOM      5  N   UNL d   1      21.413 -18.554  -0.440  0.00  0.00    -0.267 N 
ATOM      6  C   UNL d   1      20.337 -19.294  -0.891  0.00  0.00     0.240 C 
ATOM      7  O   UNL d   1      20.275 -19.739  -2.038  0.00  0.00    -0.271 OA
ATOM      8  H   UNL d   1      21.495 -18.199   0.510  0.00  0.00     0.190 HD
BRANCH   6   9
ATOM      9  C   UNL d   1      19.237 -19.616   0.088  0.00  0.00     0.083 A 
ATOM     10  C   UNL d   1      19.558 -19.860   1.554  0.00  0.00     0.019 A 
ATOM     11  C   UNL d   1      19.014 -20.987   0.714  0.00  0.00    -0.005 A 
ATOM     12  C   UNL d   1      17.663 -21.576   0.984  0.00  0.00     0.011 C 
ENDBRANCH   6   9
ENDBRANCH   3   5
BRANCH   1  13
ATOM     13  C   UNL d   1      24.660 -17.204  -1.815  0.00  0.00     0.105 C 
BRANCH  13  14
ATOM     14  C   UNL d   1      25.767 -16.340  -1.182  0.00  0.00     0.013 C 
BRANCH  14  15
ATOM     15  C   UNL d   1      26.857 -17.147  -0.453  0.00  0.00    -0.022 C 
ATOM     16  C   UNL d   1      27.578 -16.265   0.573  0.00  0.00     0.009 C 
ATOM     17  C   UNL d   1      26.270 -18.364   0.261  0.00  0.00     0.009 C 
ENDBRANCH  14  15
ENDBRANCH  13  14
ENDBRANCH   1  13
TORSDOF 5
ENDMDL
MODEL 3
REMARK VINA RESULT:    -6.926      1.778      2.147
REMARK INTER + INTRA:          -9.703
REMARK INTER:                  -8.417
REMARK INTRA:                  -1.286
REMARK CONF_INDEPENDENT:        1.492
REMARK UNBOUND:                -1.286
REMARK  5 active torsions:
REMARK  status: ('A' for Active; 'I' for Inactive)
REMARK    1  A    between atoms: C_2  and  C_4 
REMARK    2  A    between atoms: C_4  and  C_5 
REMARK    3  A    between atoms: C_5  and  C_6 
REMARK       I    between atoms: C_6  and  N_8 
REMARK    4  A    between atoms: N_8  and  N_9 
REMARK       I    between atoms: N_9  and  C_10 
REMARK    5  A    between atoms: C_10  and  C_12 
ROOT
ATOM      1  C   UNL d   1      21.442 -18.941  -0.540  0.00  0.00     0.236 C 
ATOM      2  O   UNL d   1      20.909 -18.075  -1.234  0.00  0.00    -0.272 OA
ATOM      3  N   UNL d   1      22.808 -18.950  -0.313  0.00  0.00    -0.268 N 
ATOM      4  H   UNL d   1      23.301 -19.657   0.230  0.00  0.00     0.190 HD
ENDROOT
BRANCH   3   5
ATOM      5  N   UNL d   1      23.588 -17.917  -0.896  0.00  0.00    -0.267 N 
ATOM      6  C   UNL d   1      24.936 -17.811  -0.609  0.00  0.00     0.240 C 
ATOM      7  O   UNL d   1      25.505 -18.566   0.180  0.00  0.00    -0.271 OA
ATOM      8  H   UNL d   1      23.105 -17.320  -1.562  0.00  0.00     0.190 HD
BRANCH   6   9
ATOM      9  C   UNL d   1      25.738 -16.770  -1.347  0.00  0.00     0.083 A 
ATOM     10  C   UNL d   1      25.956 -15.393  -0.740  0.00  0.00     0.019 A 
ATOM     11  C   UNL d   1      25.144 -15.529  -2.002  0.00  0.00    -0.005 A 
ATOM     12  C   UNL d   1      25.624 -14.955  -3.300  0.00  0.00     0.011 C 
ENDBRANCH   6   9
ENDBRANCH   3   5
BRANCH   1  13
ATOM     13  C   UNL d   1      20.662 -20.077   0.116  0.00  0.00     0.105 C 
BRANCH  13  14
ATOM     14  C   UNL d   1      19.145 -19.810   0.104  0.00  0.00     0.013 C 
BRANCH  14  15
ATOM     15  C   UNL d   1      18.390 -20.410   1.305  0.00  0.00    -0.022 C 
ATOM     16  C   UNL d   1      17.915 -21.831   0.981  0.00  0.00     0.009 C 
ATOM     17  C   UNL d   1      19.268 -20.450   2.555  0.00  0.00     0.009 C 
ENDBRANCH  14  15
ENDBRANCH  13  14
ENDBRANCH   1  13
TORSDOF 5
ENDMDL
MODEL 4
REMARK VINA RESULT:    -6.847      2.283      6.963
REMARK INTER + INTRA:          -9.673
REMARK INTER:                  -8.338
REMARK INTRA:                  -1.335
REMARK CONF_INDEPENDENT:        1.492
REMARK UNBOUND:                -1.335
REMARK  5 active torsions:
REMARK  status: ('A' for Active; 'I' for Inactive)
REMARK    1  A    between atoms: C_2  and  C_4 
REMARK    2  A    between atoms: C_4  and  C_5 
REMARK    3  A    between atoms: C_5  and  C_6 
REMARK       I    between atoms: C_6  and  N_8 
REMARK    4  A    between atoms: N_8  and  N_9 
REMARK       I    between atoms: N_9  and  C_10 
REMARK    5  A    between atoms: C_10  and  C_12 
ROOT
ATOM      1  C   UNL d   1      24.608 -17.652  -0.277  0.00  0.00     0.236 C 
ATOM      2  O   UNL d   1      25.068 -18.522   0.463  0.00  0.00    -0.272 OA
ATOM      3  N   UNL d   1      23.270 -17.636  -0.634  0.00  0.00    -0.268 N 
ATOM      4  H   UNL d   1      22.845 -16.957  -1.262  0.00  0.00     0.190 HD
ENDROOT
BRANCH   3   5
ATOM      5  N   UNL d   1      22.427 -18.652  -0.109  0.00  0.00    -0.267 N 
ATOM      6  C   UNL d   1      21.104 -18.733  -0.498  0.00  0.00     0.240 C 
ATOM      7  O   UNL d   1      20.590 -17.922  -1.270  0.00  0.00    -0.271 OA
ATOM      8  H   UNL d   1      22.876 -19.325   0.507  0.00  0.00     0.190 HD
BRANCH   6   9
ATOM      9  C   UNL d   1      20.289 -19.899  -0.001  0.00  0.00     0.083 A 
ATOM     10  C   UNL d   1      18.845 -20.074  -0.442  0.00  0.00     0.019 A 
ATOM     11  C   UNL d   1      19.150 -19.789   1.006  0.00  0.00    -0.005 A 
ATOM     12  C   UNL d   1      18.872 -20.803   2.073  0.00  0.00     0.011 C 
ENDBRANCH   6   9
ENDBRANCH   3   5
BRANCH   1  13
ATOM     13  C   UNL d   1      25.457 -16.533  -0.873  0.00  0.00     0.105 C 
BRANCH  13  14
ATOM     14  C   UNL d   1      25.175 -16.340  -2.375  0.00  0.00     0.013 C 
BRANCH  14  15
ATOM     15  C   UNL d   1      25.670 -14.995  -2.941  0.00  0.00    -0.022 C 
ATOM     16  C   UNL d   1      26.526 -15.227  -4.192  0.00  0.00     0.009 C 
ATOM     17  C   UNL d   1      24.503 -14.075  -3.298  0.00  0.00     0.009 C 
ENDBRANCH  14  15
ENDBRANCH  13  14
ENDBRANCH   1  13
TORSDOF 5
ENDMDL
MODEL 5
REMARK VINA RESULT:    -6.076      1.428      7.252
REMARK INTER + INTRA:          -8.851
REMARK INTER:                  -7.567
REMARK INTRA:                  -1.284
REMARK CONF_INDEPENDENT:        1.492
REMARK UNBOUND:                -1.284
REMARK  5 active torsions:
REMARK  status: ('A' for Active; 'I' for Inactive)
REMARK    1  A    between atoms: C_2  and  C_4 
REMARK    2  A    between atoms: C_4  and  C_5 
REMARK    3  A    between atoms: C_5  and  C_6 
REMARK       I    between atoms: C_6  and  N_8 
REMARK    4  A    between atoms: N_8  and  N_9 
REMARK       I    between atoms: N_9  and  C_10 
REMARK    5  A    between atoms: C_10  and  C_12 
ROOT
ATOM      1  C   UNL d   1      24.645 -17.686  -0.225  0.00  0.00     0.236 C 
ATOM      2  O   UNL d   1      25.075 -18.540   0.550  0.00  0.00    -0.272 OA
ATOM      3  N   UNL d   1      23.322 -17.679  -0.637  0.00  0.00    -0.268 N 
ATOM      4  H   UNL d   1      22.923 -17.013  -1.296  0.00  0.00     0.190 HD
ENDROOT
BRANCH   3   5
ATOM      5  N   UNL d   1      22.459 -18.686  -0.128  0.00  0.00    -0.267 N 
ATOM      6  C   UNL d   1      21.123 -18.703  -0.477  0.00  0.00     0.240 C 
ATOM      7  O   UNL d   1      20.616 -17.843  -1.198  0.00  0.00    -0.271 OA
ATOM      8  H   UNL d   1      22.902 -19.399   0.446  0.00  0.00     0.190 HD
BRANCH   6   9
ATOM      9  C   UNL d   1      20.281 -19.860  -0.002  0.00  0.00     0.083 A 
ATOM     10  C   UNL d   1      18.874 -20.062  -0.540  0.00  0.00     0.019 A 
ATOM     11  C   UNL d   1      19.072 -19.727   0.916  0.00  0.00    -0.005 A 
ATOM     12  C   UNL d   1      18.724 -20.709   1.993  0.00  0.00     0.011 C 
ENDBRANCH   6   9
ENDBRANCH   3   5
BRANCH   1  13
ATOM     13  C   UNL d   1      25.517 -16.577  -0.808  0.00  0.00     0.105 C 
BRANCH  13  14
ATOM     14  C   UNL d   1      26.963 -17.053  -1.043  0.00  0.00     0.013 C 
BRANCH  14  15
ATOM     15  C   UNL d   1      27.986 -15.910  -1.190  0.00  0.00    -0.022 C 
ATOM     16  C   UNL d   1      27.267 -14.561  -1.300  0.00  0.00     0.009 C 
ATOM     17  C   UNL d   1      28.950 -15.867  -0.004  0.00  0.00     0.009 C 
ENDBRANCH  14  15
ENDBRANCH  13  14
ENDBRANCH   1  13
TORSDOF 5
ENDMDL
MODEL 6
REMARK VINA RESULT:    -5.682      2.787      3.304
REMARK INTER + INTRA:          -8.523
REMARK INTER:                  -7.173
REMARK INTRA:                  -1.350
REMARK CONF_INDEPENDENT:        1.492
REMARK UNBOUND:                -1.350
REMARK  5 active torsions:
REMARK  status: ('A' for Active; 'I' for Inactive)
REMARK    1  A    between atoms: C_2  and  C_4 
REMARK    2  A    between atoms: C_4  and  C_5 
REMARK    3  A    between atoms: C_5  and  C_6 
REMARK       I    between atoms: C_6  and  N_8 
REMARK    4  A    between atoms: N_8  and  N_9 
REMARK       I    between atoms: N_9  and  C_10 
REMARK    5  A    between atoms: C_10  and  C_12 
ROOT
ATOM      1  C   UNL d   1      22.530 -17.959  -0.716  0.00  0.00     0.236 C 
ATOM      2  O   UNL d   1      21.683 -17.085  -0.899  0.00  0.00    -0.272 OA
ATOM      3  N   UNL d   1      23.862 -17.759  -1.035  0.00  0.00    -0.268 N 
ATOM      4  H   UNL d   1      24.597 -18.456  -0.929  0.00  0.00     0.190 HD
ENDROOT
BRANCH   3   5
ATOM      5  N   UNL d   1      24.237 -16.499  -1.574  0.00  0.00    -0.267 N 
ATOM      6  C   UNL d   1      25.556 -16.239  -1.893  0.00  0.00     0.240 C 
ATOM      7  O   UNL d   1      26.458 -17.053  -1.693  0.00  0.00    -0.271 OA
ATOM      8  H   UNL d   1      23.475 -15.850  -1.753  0.00  0.00     0.190 HD
BRANCH   6   9
ATOM      9  C   UNL d   1      25.876 -14.930  -2.570  0.00  0.00     0.083 A 
ATOM     10  C   UNL d   1      24.767 -14.077  -3.162  0.00  0.00     0.019 A 
ATOM     11  C   UNL d   1      25.796 -14.695  -4.073  0.00  0.00    -0.005 A 
ATOM     12  C   UNL d   1      26.762 -13.846  -4.842  0.00  0.00     0.011 C 
ENDBRANCH   6   9
ENDBRANCH   3   5
BRANCH   1  13
ATOM     13  C   UNL d   1      22.195 -19.333  -0.141  0.00  0.00     0.105 C 
BRANCH  13  14
ATOM     14  C   UNL d   1      20.941 -19.288   0.753  0.00  0.00     0.013 C 
BRANCH  14  15
ATOM     15  C   UNL d   1      19.816 -20.243   0.309  0.00  0.00    -0.022 C 
ATOM     16  C   UNL d   1      18.833 -20.480   1.461  0.00  0.00     0.009 C 
ATOM     17  C   UNL d   1      19.053 -19.688  -0.893  0.00  0.00     0.009 C 
ENDBRANCH  14  15
ENDBRANCH  13  14
ENDBRANCH   1  13
TORSDOF 5
ENDMDL
MODEL 7
REMARK VINA RESULT:    -5.680      3.188      4.020
REMARK INTER + INTRA:          -8.376
REMARK INTER:                  -7.171
REMARK INTRA:                  -1.205
REMARK CONF_INDEPENDENT:        1.492
REMARK UNBOUND:                -1.205
REMARK  5 active torsions:
REMARK  status: ('A' for Active; 'I' for Inactive)
REMARK    1  A    between atoms: C_2  and  C_4 
REMARK    2  A    between atoms: C_4  and  C_5 
REMARK    3  A    between atoms: C_5  and  C_6 
REMARK       I    between atoms: C_6  and  N_8 
REMARK    4  A    between atoms: N_8  and  N_9 
REMARK       I    between atoms: N_9  and  C_10 
REMARK    5  A    between atoms: C_10  and  C_12 
ROOT
ATOM      1  C   UNL d   1      23.706 -17.453  -0.903  0.00  0.00     0.236 C 
ATOM      2  O   UNL d   1      24.600 -18.272  -0.691  0.00  0.00    -0.272 OA
ATOM      3  N   UNL d   1      23.930 -16.309  -1.651  0.00  0.00    -0.268 N 
ATOM      4  H   UNL d   1      23.233 -15.589  -1.833  0.00  0.00     0.190 HD
ENDROOT
BRANCH   3   5
ATOM      5  N   UNL d   1      25.230 -16.106  -2.186  0.00  0.00    -0.267 N 
ATOM      6  C   UNL d   1      25.448 -15.135  -3.144  0.00  0.00     0.240 C 
ATOM      7  O   UNL d   1      24.539 -14.442  -3.602  0.00  0.00    -0.271 OA
ATOM      8  H   UNL d   1      25.970 -16.672  -1.778  0.00  0.00     0.190 HD
BRANCH   6   9
ATOM      9  C   UNL d   1      26.866 -14.885  -3.589  0.00  0.00     0.083 A 
ATOM     10  C   UNL d   1      27.207 -13.660  -4.423  0.00  0.00     0.019 A 
ATOM     11  C   UNL d   1      27.359 -15.035  -5.023  0.00  0.00    -0.005 A 
ATOM     12  C   UNL d   1      28.706 -15.575  -5.395  0.00  0.00     0.011 C 
ENDBRANCH   6   9
ENDBRANCH   3   5
BRANCH   1  13
ATOM     13  C   UNL d   1      22.288 -17.612  -0.359  0.00  0.00     0.105 C 
BRANCH  13  14
ATOM     14  C   UNL d   1      21.921 -19.092  -0.146  0.00  0.00     0.013 C 
BRANCH  14  15
ATOM     15  C   UNL d   1      20.447 -19.327   0.237  0.00  0.00    -0.022 C 
ATOM     16  C   UNL d   1      19.564 -19.327  -1.016  0.00  0.00     0.009 C 
ATOM     17  C   UNL d   1      20.265 -20.651   0.977  0.00  0.00     0.009 C 
ENDBRANCH  14  15
ENDBRANCH  13  14
ENDBRANCH   1  13
TORSDOF 5
ENDMDL
MODEL 8
REMARK VINA RESULT:    -5.557      3.493      4.544
REMARK INTER + INTRA:          -8.368
REMARK INTER:                  -7.049
REMARK INTRA:                  -1.319
REMARK CONF_INDEPENDENT:        1.492
REMARK UNBOUND:                -1.319
REMARK  5 active torsions:
REMARK  status: ('A' for Active; 'I' for Inactive)
REMARK    1  A    between atoms: C_2  and  C_4 
REMARK    2  A    between atoms: C_4  and  C_5 
REMARK    3  A    between atoms: C_5  and  C_6 
REMARK       I    between atoms: C_6  and  N_8 
REMARK    4  A    between atoms: N_8  and  N_9 
REMARK       I    between atoms: N_9  and  C_10 
REMARK    5  A    between atoms: C_10  and  C_12 
ROOT
ATOM      1  C   UNL d   1      24.696 -17.493  -0.673  0.00  0.00     0.236 C 
ATOM      2  O   UNL d   1      25.801 -18.007  -0.501  0.00  0.00    -0.272 OA
ATOM      3  N   UNL d   1      24.508 -16.459  -1.576  0.00  0.00    -0.268 N 
ATOM      4  H   UNL d   1      23.623 -15.982  -1.736  0.00  0.00     0.190 HD
ENDROOT
BRANCH   3   5
ATOM      5  N   UNL d   1      25.633 -16.010  -2.318  0.00  0.00    -0.267 N 
ATOM      6  C   UNL d   1      25.497 -14.997  -3.248  0.00  0.00     0.240 C 
ATOM      7  O   UNL d   1      24.412 -14.473  -3.502  0.00  0.00    -0.271 OA
ATOM      8  H   UNL d   1      26.523 -16.437  -2.076  0.00  0.00     0.190 HD
BRANCH   6   9
ATOM      9  C   UNL d   1      26.744 -14.480  -3.920  0.00  0.00     0.083 A 
ATOM     10  C   UNL d   1      26.687 -13.244  -4.802  0.00  0.00     0.019 A 
ATOM     11  C   UNL d   1      27.021 -14.580  -5.415  0.00  0.00    -0.005 A 
ATOM     12  C   UNL d   1      28.374 -14.849  -6.001  0.00  0.00     0.011 C 
ENDBRANCH   6   9
ENDBRANCH   3   5
BRANCH   1  13
ATOM     13  C   UNL d   1      23.448 -17.929   0.090  0.00  0.00     0.105 C 
BRANCH  13  14
ATOM     14  C   UNL d   1      22.247 -18.138  -0.851  0.00  0.00     0.013 C 
BRANCH  14  15
ATOM     15  C   UNL d   1      21.344 -19.326  -0.468  0.00  0.00    -0.022 C 
ATOM     16  C   UNL d   1      21.011 -19.281   1.028  0.00  0.00     0.009 C 
ATOM     17  C   UNL d   1      20.043 -19.322  -1.270  0.00  0.00     0.009 C 
ENDBRANCH  14  15
ENDBRANCH  13  14
ENDBRANCH   1  13
TORSDOF 5
ENDMDL
MODEL 9
REMARK VINA RESULT:    -5.301      4.178      5.879
REMARK INTER + INTRA:          -8.221
REMARK INTER:                  -6.792
REMARK INTRA:                  -1.429
REMARK CONF_INDEPENDENT:        1.492
REMARK UNBOUND:                -1.429
REMARK  5 active torsions:
REMARK  status: ('A' for Active; 'I' for Inactive)
REMARK    1  A    between atoms: C_2  and  C_4 
REMARK    2  A    between atoms: C_4  and  C_5 
REMARK    3  A    between atoms: C_5  and  C_6 
REMARK       I    between atoms: C_6  and  N_8 
REMARK    4  A    between atoms: N_8  and  N_9 
REMARK       I    between atoms: N_9  and  C_10 
REMARK    5  A    between atoms: C_10  and  C_12 
ROOT
ATOM      1  C   UNL d   1      25.701 -16.321  -0.778  0.00  0.00     0.236 C 
ATOM      2  O   UNL d   1      25.923 -15.427   0.039  0.00  0.00    -0.272 OA
ATOM      3  N   UNL d   1      25.461 -16.041  -2.113  0.00  0.00    -0.268 N 
ATOM      4  H   UNL d   1      25.246 -16.739  -2.823  0.00  0.00     0.190 HD
ENDROOT
BRANCH   3   5
ATOM      5  N   UNL d   1      25.490 -14.683  -2.526  0.00  0.00    -0.267 N 
ATOM      6  C   UNL d   1      25.335 -14.353  -3.859  0.00  0.00     0.240 C 
ATOM      7  O   UNL d   1      25.208 -15.204  -4.740  0.00  0.00    -0.271 OA
ATOM      8  H   UNL d   1      25.571 -13.995  -1.782  0.00  0.00     0.190 HD
BRANCH   6   9
ATOM      9  C   UNL d   1      25.256 -12.893  -4.224  0.00  0.00     0.083 A 
ATOM     10  C   UNL d   1      26.259 -12.286  -5.192  0.00  0.00     0.019 A 
ATOM     11  C   UNL d   1      26.245 -11.833  -3.754  0.00  0.00    -0.005 A 
ATOM     12  C   UNL d   1      25.861 -10.433  -3.384  0.00  0.00     0.011 C 
ENDBRANCH   6   9
ENDBRANCH   3   5
BRANCH   1  13
ATOM     13  C   UNL d   1      25.657 -17.799  -0.401  0.00  0.00     0.105 C 
BRANCH  13  14
ATOM     14  C   UNL d   1      24.291 -18.198   0.187  0.00  0.00     0.013 C 
BRANCH  14  15
ATOM     15  C   UNL d   1      23.097 -17.919  -0.746  0.00  0.00    -0.022 C 
ATOM     16  C   UNL d   1      21.989 -18.954  -0.518  0.00  0.00     0.009 C 
ATOM     17  C   UNL d   1      22.526 -16.519  -0.520  0.00  0.00     0.009 C 
ENDBRANCH  14  15
ENDBRANCH  13  14
ENDBRANCH   1  13
TORSDOF 5
ENDMDL
