MODEL 1
REMARK VINA RESULT:   -10.213      0.000      0.000
REMARK INTER + INTRA:         -15.040
REMARK INTER:                 -12.897
REMARK INTRA:                  -2.143
REMARK CONF_INDEPENDENT:        2.685
REMARK UNBOUND:                -2.143
REMARK  9 active torsions:
REMARK  status: ('A' for Active; 'I' for Inactive)
REMARK    1  A    between atoms: O_2  and  C_3 
REMARK    2  A    between atoms: C_5  and  C_6 
REMARK    3  A    between atoms: C_8  and  C_9 
REMARK       I    between atoms: C_9  and  N_11 
REMARK    4  A    between atoms: N_11  and  N_12 
REMARK    5  A    between atoms: C_13  and  C_14 
REMARK    6  A    between atoms: C_19  and  O_20 
REMARK    7  A    between atoms: C_25  and  O_26 
REMARK    8  A    between atoms: O_26  and  C_27 
REMARK    9  A    between atoms: C_27  and  C_28 
ROOT
ATOM      1  C   UNL d   1      26.317 -15.339  -0.264  0.00  0.00     0.087 A 
ATOM      2  C   UNL d   1      26.365 -16.671  -0.144  0.00  0.00     0.046 A 
ATOM      3  C   UNL d   1      25.606 -17.207  -1.298  0.00  0.00     0.249 A 
ATOM      4  N   UNL d   1      25.223 -15.949  -2.018  0.00  0.00    -0.173 NA
ATOM      5  N   UNL d   1      25.636 -14.935  -1.378  0.00  0.00    -0.154 NA
ENDROOT
BRANCH   1   6
ATOM      6  C   UNL d   1      26.920 -14.438   0.722  0.00  0.00    -0.003 A 
ATOM      7  C   UNL d   1      26.612 -13.063   0.769  0.00  0.00     0.053 A 
ATOM      8  C   UNL d   1      26.923 -12.265   1.897  0.00  0.00     0.102 A 
ATOM      9  C   UNL d   1      27.637 -12.881   2.953  0.00  0.00     0.102 A 
ATOM     10  C   UNL d   1      28.022 -14.230   2.850  0.00  0.00     0.040 A 
ATOM     11  C   UNL d   1      27.672 -15.002   1.751  0.00  0.00     0.017 A 
BRANCH   8  12
ATOM     12  O   UNL d   1      26.191 -11.090   1.929  0.00  0.00    -0.353 OA
ATOM     13  C   UNL d   1      26.696  -9.825   1.493  0.00  0.00     0.210 C 
ENDBRANCH   8  12
BRANCH   9  14
ATOM     14  O   UNL d   1      28.008 -12.403   4.190  0.00  0.00    -0.344 OA
BRANCH  14  15
ATOM     15  C   UNL d   1      28.585 -13.394   5.000  0.00  0.00     0.214 C 
BRANCH  15  16
ATOM     16  C   UNL d   1      28.827 -13.102   6.441  0.00  0.00    -0.034 A 
ATOM     17  C   UNL d   1      29.370 -14.079   7.302  0.00  0.00     0.009 A 
ATOM     18  C   UNL d   1      29.428 -13.824   8.667  0.00  0.00     0.001 A 
ATOM     19  C   UNL d   1      29.021 -12.578   9.141  0.00  0.00     0.000 A 
ATOM     20  C   UNL d   1      28.529 -11.603   8.270  0.00  0.00     0.001 A 
ATOM     21  C   UNL d   1      28.433 -11.867   6.922  0.00  0.00     0.009 A 
ENDBRANCH  15  16
ENDBRANCH  14  15
ENDBRANCH   9  14
ENDBRANCH   1   6
BRANCH   3  22
ATOM     22  C   UNL d   1      24.328 -17.955  -0.864  0.00  0.00     0.268 C 
ATOM     23  O   UNL d   1      24.364 -19.038  -0.300  0.00  0.00    -0.269 OA
ATOM     24  N   UNL d   1      23.132 -17.269  -1.155  0.00  0.00    -0.245 N 
ATOM     25  H   UNL d   1      23.113 -16.344  -1.561  0.00  0.00     0.192 HD
BRANCH  24  26
ATOM     26  N   UNL d   1      21.964 -17.873  -0.793  0.00  0.00    -0.184 NA
ATOM     27  C   UNL d   1      21.909 -18.588   0.285  0.00  0.00     0.152 C 
BRANCH  27  28
ATOM     28  C   UNL d   1      20.661 -19.324   0.616  0.00  0.00     0.016 A 
ATOM     29  C   UNL d   1      20.288 -19.559   1.946  0.00  0.00     0.016 A 
ATOM     30  C   UNL d   1      19.119 -20.286   2.222  0.00  0.00     0.001 A 
ATOM     31  C   UNL d   1      18.299 -20.723   1.179  0.00  0.00     0.003 A 
ATOM     32  C   UNL d   1      18.671 -20.493  -0.144  0.00  0.00     0.037 A 
ATOM     33  C   UNL d   1      19.858 -19.816  -0.421  0.00  0.00     0.077 A 
BRANCH  33  34
ATOM     34  O   UNL d   1      20.277 -19.700  -1.716  0.00  0.00    -0.360 OA
ATOM     35  H   UNL d   1      20.398 -18.767  -1.945  0.00  0.00     0.217 HD
ENDBRANCH  33  34
ENDBRANCH  27  28
ENDBRANCH  24  26
ENDBRANCH   3  22
TORSDOF 9
ENDMDL
MODEL 2
REMARK VINA RESULT:    -9.698      5.791      8.841
REMARK INTER + INTRA:         -13.905
REMARK INTER:                 -12.383
REMARK INTRA:                  -1.522
REMARK CONF_INDEPENDENT:        2.685
REMARK UNBOUND:                -1.522
REMARK  9 active torsions:
REMARK  status: ('A' for Active; 'I' for Inactive)
REMARK    1  A    between atoms: O_2  and  C_3 
REMARK    2  A    between atoms: C_5  and  C_6 
REMARK    3  A    between atoms: C_8  and  C_9 
REMARK       I    between atoms: C_9  and  N_11 
REMARK    4  A    between atoms: N_11  and  N_12 
REMARK    5  A    between atoms: C_13  and  C_14 
REMARK    6  A    between atoms: C_19  and  O_20 
REMARK    7  A    between atoms: C_25  and  O_26 
REMARK    8  A    between atoms: O_26  and  C_27 
REMARK    9  A    between atoms: C_27  and  C_28 
ROOT
ATOM      1  C   UNL d   1      26.013 -13.906  -3.745  0.00  0.00     0.087 A 
ATOM      2  C   UNL d   1      26.360 -14.339  -2.528  0.00  0.00     0.046 A 
ATOM      3  C   UNL d   1      26.082 -15.795  -2.523  0.00  0.00     0.249 A 
ATOM      4  N   UNL d   1      25.594 -16.014  -3.924  0.00  0.00    -0.173 NA
ATOM      5  N   UNL d   1      25.562 -14.913  -4.553  0.00  0.00    -0.154 NA
ENDROOT
BRANCH   1   6
ATOM      6  C   UNL d   1      26.098 -12.495  -4.133  0.00  0.00    -0.003 A 
ATOM      7  C   UNL d   1      26.279 -12.094  -5.472  0.00  0.00     0.053 A 
ATOM      8  C   UNL d   1      26.035 -10.765  -5.895  0.00  0.00     0.102 A 
ATOM      9  C   UNL d   1      25.679  -9.821  -4.901  0.00  0.00     0.102 A 
ATOM     10  C   UNL d   1      25.596 -10.216  -3.553  0.00  0.00     0.040 A 
ATOM     11  C   UNL d   1      25.802 -11.533  -3.169  0.00  0.00     0.017 A 
BRANCH   8  12
ATOM     12  O   UNL d   1      25.863 -10.671  -7.265  0.00  0.00    -0.353 OA
ATOM     13  C   UNL d   1      26.930 -10.787  -8.210  0.00  0.00     0.210 C 
ENDBRANCH   8  12
BRANCH   9  14
ATOM     14  O   UNL d   1      25.308  -8.500  -5.004  0.00  0.00    -0.344 OA
BRANCH  14  15
ATOM     15  C   UNL d   1      23.916  -8.325  -4.956  0.00  0.00     0.214 C 
BRANCH  15  16
ATOM     16  C   UNL d   1      23.295  -7.233  -5.758  0.00  0.00    -0.034 A 
ATOM     17  C   UNL d   1      21.971  -6.811  -5.513  0.00  0.00     0.009 A 
ATOM     18  C   UNL d   1      21.374  -5.908  -6.383  0.00  0.00     0.001 A 
ATOM     19  C   UNL d   1      22.127  -5.380  -7.432  0.00  0.00     0.000 A 
ATOM     20  C   UNL d   1      23.452  -5.772  -7.633  0.00  0.00     0.001 A 
ATOM     21  C   UNL d   1      24.033  -6.698  -6.796  0.00  0.00     0.009 A 
ENDBRANCH  15  16
ENDBRANCH  14  15
ENDBRANCH   9  14
ENDBRANCH   1   6
BRANCH   3  22
ATOM     22  C   UNL d   1      24.964 -16.176  -1.529  0.00  0.00     0.268 C 
ATOM     23  O   UNL d   1      24.788 -15.574  -0.481  0.00  0.00    -0.269 OA
ATOM     24  N   UNL d   1      24.162 -17.255  -1.951  0.00  0.00    -0.245 N 
ATOM     25  H   UNL d   1      24.271 -17.704  -2.850  0.00  0.00     0.192 HD
BRANCH  24  26
ATOM     26  N   UNL d   1      23.151 -17.641  -1.121  0.00  0.00    -0.184 NA
ATOM     27  C   UNL d   1      22.548 -18.771  -1.313  0.00  0.00     0.152 C 
BRANCH  27  28
ATOM     28  C   UNL d   1      21.381 -19.133  -0.466  0.00  0.00     0.016 A 
ATOM     29  C   UNL d   1      21.406 -18.943   0.922  0.00  0.00     0.016 A 
ATOM     30  C   UNL d   1      20.299 -19.327   1.696  0.00  0.00     0.001 A 
ATOM     31  C   UNL d   1      19.155 -19.840   1.082  0.00  0.00     0.003 A 
ATOM     32  C   UNL d   1      19.130 -20.032  -0.299  0.00  0.00     0.037 A 
ATOM     33  C   UNL d   1      20.248 -19.700  -1.063  0.00  0.00     0.077 A 
BRANCH  33  34
ATOM     34  O   UNL d   1      20.263 -20.002  -2.395  0.00  0.00    -0.360 OA
ATOM     35  H   UNL d   1      19.780 -19.328  -2.895  0.00  0.00     0.217 HD
ENDBRANCH  33  34
ENDBRANCH  27  28
ENDBRANCH  24  26
ENDBRANCH   3  22
TORSDOF 9
ENDMDL
MODEL 3
REMARK VINA RESULT:    -9.462      1.194      1.624
REMARK INTER + INTRA:         -14.284
REMARK INTER:                 -12.146
REMARK INTRA:                  -2.138
REMARK CONF_INDEPENDENT:        2.685
REMARK UNBOUND:                -2.138
REMARK  9 active torsions:
REMARK  status: ('A' for Active; 'I' for Inactive)
REMARK    1  A    between atoms: O_2  and  C_3 
REMARK    2  A    between atoms: C_5  and  C_6 
REMARK    3  A    between atoms: C_8  and  C_9 
REMARK       I    between atoms: C_9  and  N_11 
REMARK    4  A    between atoms: N_11  and  N_12 
REMARK    5  A    between atoms: C_13  and  C_14 
REMARK    6  A    between atoms: C_19  and  O_20 
REMARK    7  A    between atoms: C_25  and  O_26 
REMARK    8  A    between atoms: O_26  and  C_27 
REMARK    9  A    between atoms: C_27  and  C_28 
ROOT
ATOM      1  C   UNL d   1      26.758 -15.013  -0.291  0.00  0.00     0.087 A 
ATOM      2  C   UNL d   1      26.903 -16.337  -0.168  0.00  0.00     0.046 A 
ATOM      3  C   UNL d   1      25.990 -16.938  -1.168  0.00  0.00     0.249 A 
ATOM      4  N   UNL d   1      25.415 -15.718  -1.823  0.00  0.00    -0.173 NA
ATOM      5  N   UNL d   1      25.872 -14.670  -1.275  0.00  0.00    -0.154 NA
ENDROOT
BRANCH   1   6
ATOM      6  C   UNL d   1      27.468 -14.060   0.566  0.00  0.00    -0.003 A 
ATOM      7  C   UNL d   1      26.970 -13.668   1.826  0.00  0.00     0.053 A 
ATOM      8  C   UNL d   1      27.786 -13.021   2.785  0.00  0.00     0.102 A 
ATOM      9  C   UNL d   1      29.112 -12.703   2.402  0.00  0.00     0.102 A 
ATOM     10  C   UNL d   1      29.566 -13.016   1.107  0.00  0.00     0.040 A 
ATOM     11  C   UNL d   1      28.759 -13.684   0.198  0.00  0.00     0.017 A 
BRANCH   8  12
ATOM     12  O   UNL d   1      27.259 -13.096   4.063  0.00  0.00    -0.353 OA
ATOM     13  C   UNL d   1      27.188 -14.304   4.824  0.00  0.00     0.210 C 
ENDBRANCH   8  12
BRANCH   9  14
ATOM     14  O   UNL d   1      30.153 -12.160   3.122  0.00  0.00    -0.344 OA
BRANCH  14  15
ATOM     15  C   UNL d   1      30.591 -13.002   4.156  0.00  0.00     0.214 C 
BRANCH  15  16
ATOM     16  C   UNL d   1      29.969 -12.879   5.504  0.00  0.00    -0.034 A 
ATOM     17  C   UNL d   1      29.965 -13.963   6.407  0.00  0.00     0.009 A 
ATOM     18  C   UNL d   1      29.235 -13.862   7.585  0.00  0.00     0.001 A 
ATOM     19  C   UNL d   1      28.591 -12.662   7.882  0.00  0.00     0.000 A 
ATOM     20  C   UNL d   1      28.643 -11.581   7.000  0.00  0.00     0.001 A 
ATOM     21  C   UNL d   1      29.332 -11.692   5.812  0.00  0.00     0.009 A 
ENDBRANCH  15  16
ENDBRANCH  14  15
ENDBRANCH   9  14
ENDBRANCH   1   6
BRANCH   3  22
ATOM     22  C   UNL d   1      24.851 -17.747  -0.512  0.00  0.00     0.268 C 
ATOM     23  O   UNL d   1      24.998 -18.904  -0.146  0.00  0.00    -0.269 OA
ATOM     24  N   UNL d   1      23.650 -17.028  -0.355  0.00  0.00    -0.245 N 
ATOM     25  H   UNL d   1      23.556 -16.051  -0.598  0.00  0.00     0.192 HD
BRANCH  24  26
ATOM     26  N   UNL d   1      22.603 -17.683   0.224  0.00  0.00    -0.184 NA
ATOM     27  C   UNL d   1      21.972 -18.606  -0.430  0.00  0.00     0.152 C 
BRANCH  27  28
ATOM     28  C   UNL d   1      20.770 -19.241   0.171  0.00  0.00     0.016 A 
ATOM     29  C   UNL d   1      20.643 -19.383   1.559  0.00  0.00     0.016 A 
ATOM     30  C   UNL d   1      19.509 -20.017   2.092  0.00  0.00     0.001 A 
ATOM     31  C   UNL d   1      18.484 -20.451   1.248  0.00  0.00     0.003 A 
ATOM     32  C   UNL d   1      18.610 -20.312  -0.133  0.00  0.00     0.037 A 
ATOM     33  C   UNL d   1      19.760 -19.730  -0.666  0.00  0.00     0.077 A 
BRANCH  33  34
ATOM     34  O   UNL d   1      19.932 -19.707  -2.021  0.00  0.00    -0.360 OA
ATOM     35  H   UNL d   1      19.151 -19.326  -2.450  0.00  0.00     0.217 HD
ENDBRANCH  33  34
ENDBRANCH  27  28
ENDBRANCH  24  26
ENDBRANCH   3  22
TORSDOF 9
ENDMDL
MODEL 4
REMARK VINA RESULT:    -9.453      1.117      2.034
REMARK INTER + INTRA:         -14.477
REMARK INTER:                 -12.138
REMARK INTRA:                  -2.339
REMARK CONF_INDEPENDENT:        2.685
REMARK UNBOUND:                -2.339
REMARK  9 active torsions:
REMARK  status: ('A' for Active; 'I' for Inactive)
REMARK    1  A    between atoms: O_2  and  C_3 
REMARK    2  A    between atoms: C_5  and  C_6 
REMARK    3  A    between atoms: C_8  and  C_9 
REMARK       I    between atoms: C_9  and  N_11 
REMARK    4  A    between atoms: N_11  and  N_12 
REMARK    5  A    between atoms: C_13  and  C_14 
REMARK    6  A    between atoms: C_19  and  O_20 
REMARK    7  A    between atoms: C_25  and  O_26 
REMARK    8  A    between atoms: O_26  and  C_27 
REMARK    9  A    between atoms: C_27  and  C_28 
ROOT
ATOM      1  C   UNL d   1      26.311 -15.343  -0.138  0.00  0.00     0.087 A 
ATOM      2  C   UNL d   1      26.371 -16.679  -0.116  0.00  0.00     0.046 A 
ATOM      3  C   UNL d   1      25.580 -17.138  -1.281  0.00  0.00     0.249 A 
ATOM      4  N   UNL d   1      25.165 -15.836  -1.896  0.00  0.00    -0.173 NA
ATOM      5  N   UNL d   1      25.592 -14.866  -1.199  0.00  0.00    -0.154 NA
ENDROOT
BRANCH   1   6
ATOM      6  C   UNL d   1      26.940 -14.509   0.890  0.00  0.00    -0.003 A 
ATOM      7  C   UNL d   1      28.274 -14.704   1.304  0.00  0.00     0.053 A 
ATOM      8  C   UNL d   1      28.981 -13.721   2.037  0.00  0.00     0.102 A 
ATOM      9  C   UNL d   1      28.271 -12.557   2.418  0.00  0.00     0.102 A 
ATOM     10  C   UNL d   1      26.912 -12.419   2.080  0.00  0.00     0.040 A 
ATOM     11  C   UNL d   1      26.251 -13.379   1.328  0.00  0.00     0.017 A 
BRANCH   8  12
ATOM     12  O   UNL d   1      30.352 -13.908   1.983  0.00  0.00    -0.353 OA
ATOM     13  C   UNL d   1      30.975 -15.066   1.422  0.00  0.00     0.210 C 
ENDBRANCH   8  12
BRANCH   9  14
ATOM     14  O   UNL d   1      28.693 -11.410   3.051  0.00  0.00    -0.344 OA
BRANCH  14  15
ATOM     15  C   UNL d   1      28.054 -11.209   4.286  0.00  0.00     0.214 C 
BRANCH  15  16
ATOM     16  C   UNL d   1      28.357 -12.131   5.416  0.00  0.00    -0.034 A 
ATOM     17  C   UNL d   1      28.904 -11.648   6.625  0.00  0.00     0.009 A 
ATOM     18  C   UNL d   1      29.322 -12.555   7.590  0.00  0.00     0.001 A 
ATOM     19  C   UNL d   1      29.118 -13.917   7.374  0.00  0.00     0.000 A 
ATOM     20  C   UNL d   1      28.532 -14.377   6.193  0.00  0.00     0.001 A 
ATOM     21  C   UNL d   1      28.153 -13.483   5.216  0.00  0.00     0.009 A 
ENDBRANCH  15  16
ENDBRANCH  14  15
ENDBRANCH   9  14
ENDBRANCH   1   6
BRANCH   3  22
ATOM     22  C   UNL d   1      24.321 -17.927  -0.861  0.00  0.00     0.268 C 
ATOM     23  O   UNL d   1      24.385 -19.001  -0.282  0.00  0.00    -0.269 OA
ATOM     24  N   UNL d   1      23.107 -17.288  -1.185  0.00  0.00    -0.245 N 
ATOM     25  H   UNL d   1      23.062 -16.369  -1.603  0.00  0.00     0.192 HD
BRANCH  24  26
ATOM     26  N   UNL d   1      21.955 -17.929  -0.837  0.00  0.00    -0.184 NA
ATOM     27  C   UNL d   1      21.870 -18.543   0.300  0.00  0.00     0.152 C 
BRANCH  27  28
ATOM     28  C   UNL d   1      20.648 -19.324   0.624  0.00  0.00     0.016 A 
ATOM     29  C   UNL d   1      20.281 -19.580   1.953  0.00  0.00     0.016 A 
ATOM     30  C   UNL d   1      19.138 -20.348   2.223  0.00  0.00     0.001 A 
ATOM     31  C   UNL d   1      18.335 -20.807   1.176  0.00  0.00     0.003 A 
ATOM     32  C   UNL d   1      18.700 -20.555  -0.146  0.00  0.00     0.037 A 
ATOM     33  C   UNL d   1      19.863 -19.837  -0.416  0.00  0.00     0.077 A 
BRANCH  33  34
ATOM     34  O   UNL d   1      20.279 -19.698  -1.710  0.00  0.00    -0.360 OA
ATOM     35  H   UNL d   1      20.998 -19.051  -1.762  0.00  0.00     0.217 HD
ENDBRANCH  33  34
ENDBRANCH  27  28
ENDBRANCH  24  26
ENDBRANCH   3  22
TORSDOF 9
ENDMDL
MODEL 5
REMARK VINA RESULT:    -9.219      5.296     10.698
REMARK INTER + INTRA:         -14.140
REMARK INTER:                 -11.904
REMARK INTRA:                  -2.236
REMARK CONF_INDEPENDENT:        2.685
REMARK UNBOUND:                -2.236
REMARK  9 active torsions:
REMARK  status: ('A' for Active; 'I' for Inactive)
REMARK    1  A    between atoms: O_2  and  C_3 
REMARK    2  A    between atoms: C_5  and  C_6 
REMARK    3  A    between atoms: C_8  and  C_9 
REMARK       I    between atoms: C_9  and  N_11 
REMARK    4  A    between atoms: N_11  and  N_12 
REMARK    5  A    between atoms: C_13  and  C_14 
REMARK    6  A    between atoms: C_19  and  O_20 
REMARK    7  A    between atoms: C_25  and  O_26 
REMARK    8  A    between atoms: O_26  and  C_27 
REMARK    9  A    between atoms: C_27  and  C_28 
ROOT
ATOM      1  C   UNL d   1      25.820 -14.858  -2.309  0.00  0.00     0.087 A 
ATOM      2  C   UNL d   1      25.895 -14.560  -3.611  0.00  0.00     0.046 A 
ATOM      3  C   UNL d   1      26.761 -13.361  -3.701  0.00  0.00     0.249 A 
ATOM      4  N   UNL d   1      27.130 -13.146  -2.264  0.00  0.00    -0.173 NA
ATOM      5  N   UNL d   1      26.556 -14.008  -1.531  0.00  0.00    -0.154 NA
ENDROOT
BRANCH   1   6
ATOM      6  C   UNL d   1      25.009 -15.968  -1.801  0.00  0.00    -0.003 A 
ATOM      7  C   UNL d   1      25.586 -17.160  -1.317  0.00  0.00     0.053 A 
ATOM      8  C   UNL d   1      24.851 -18.083  -0.534  0.00  0.00     0.102 A 
ATOM      9  C   UNL d   1      23.478 -17.807  -0.321  0.00  0.00     0.102 A 
ATOM     10  C   UNL d   1      22.893 -16.662  -0.892  0.00  0.00     0.040 A 
ATOM     11  C   UNL d   1      23.643 -15.752  -1.623  0.00  0.00     0.017 A 
BRANCH   8  12
ATOM     12  O   UNL d   1      25.671 -18.943   0.175  0.00  0.00    -0.353 OA
ATOM     13  C   UNL d   1      26.892 -18.542   0.803  0.00  0.00     0.210 C 
ENDBRANCH   8  12
BRANCH   9  14
ATOM     14  O   UNL d   1      22.537 -18.456   0.445  0.00  0.00    -0.344 OA
BRANCH  14  15
ATOM     15  C   UNL d   1      21.437 -18.896  -0.308  0.00  0.00     0.214 C 
BRANCH  15  16
ATOM     16  C   UNL d   1      20.298 -19.556   0.390  0.00  0.00    -0.034 A 
ATOM     17  C   UNL d   1      20.284 -19.693   1.795  0.00  0.00     0.009 A 
ATOM     18  C   UNL d   1      19.289 -20.455   2.393  0.00  0.00     0.001 A 
ATOM     19  C   UNL d   1      18.282 -20.999   1.596  0.00  0.00     0.000 A 
ATOM     20  C   UNL d   1      18.282 -20.815   0.212  0.00  0.00     0.001 A 
ATOM     21  C   UNL d   1      19.291 -20.094  -0.389  0.00  0.00     0.009 A 
ENDBRANCH  15  16
ENDBRANCH  14  15
ENDBRANCH   9  14
ENDBRANCH   1   6
BRANCH   3  22
ATOM     22  C   UNL d   1      25.997 -12.125  -4.221  0.00  0.00     0.268 C 
ATOM     23  O   UNL d   1      25.521 -12.075  -5.345  0.00  0.00    -0.269 OA
ATOM     24  N   UNL d   1      25.883 -11.081  -3.281  0.00  0.00    -0.245 N 
ATOM     25  H   UNL d   1      26.220 -11.155  -2.331  0.00  0.00     0.192 HD
BRANCH  24  26
ATOM     26  N   UNL d   1      25.214  -9.959  -3.675  0.00  0.00    -0.184 NA
ATOM     27  C   UNL d   1      25.417  -9.462  -4.854  0.00  0.00     0.152 C 
BRANCH  27  28
ATOM     28  C   UNL d   1      24.761  -8.183  -5.234  0.00  0.00     0.016 A 
ATOM     29  C   UNL d   1      24.315  -7.959  -6.543  0.00  0.00     0.016 A 
ATOM     30  C   UNL d   1      23.730  -6.727  -6.876  0.00  0.00     0.001 A 
ATOM     31  C   UNL d   1      23.537  -5.751  -5.895  0.00  0.00     0.003 A 
ATOM     32  C   UNL d   1      23.982  -5.973  -4.593  0.00  0.00     0.037 A 
ATOM     33  C   UNL d   1      24.612  -7.175  -4.273  0.00  0.00     0.077 A 
BRANCH  33  34
ATOM     34  O   UNL d   1      25.153  -7.338  -3.030  0.00  0.00    -0.360 OA
ATOM     35  H   UNL d   1      24.833  -8.161  -2.632  0.00  0.00     0.217 HD
ENDBRANCH  33  34
ENDBRANCH  27  28
ENDBRANCH  24  26
ENDBRANCH   3  22
TORSDOF 9
ENDMDL
MODEL 6
REMARK VINA RESULT:    -9.216      7.193     11.088
REMARK INTER + INTRA:         -14.234
REMARK INTER:                 -11.900
REMARK INTRA:                  -2.334
REMARK CONF_INDEPENDENT:        2.685
REMARK UNBOUND:                -2.334
REMARK  9 active torsions:
REMARK  status: ('A' for Active; 'I' for Inactive)
REMARK    1  A    between atoms: O_2  and  C_3 
REMARK    2  A    between atoms: C_5  and  C_6 
REMARK    3  A    between atoms: C_8  and  C_9 
REMARK       I    between atoms: C_9  and  N_11 
REMARK    4  A    between atoms: N_11  and  N_12 
REMARK    5  A    between atoms: C_13  and  C_14 
REMARK    6  A    between atoms: C_19  and  O_20 
REMARK    7  A    between atoms: C_25  and  O_26 
REMARK    8  A    between atoms: O_26  and  C_27 
REMARK    9  A    between atoms: C_27  and  C_28 
ROOT
ATOM      1  C   UNL d   1      25.911 -11.029  -3.869  0.00  0.00     0.087 A 
ATOM      2  C   UNL d   1      26.102 -10.505  -5.085  0.00  0.00     0.046 A 
ATOM      3  C   UNL d   1      25.971  -9.039  -4.918  0.00  0.00     0.249 A 
ATOM      4  N   UNL d   1      25.735  -8.923  -3.443  0.00  0.00    -0.173 NA
ATOM      5  N   UNL d   1      25.694 -10.075  -2.914  0.00  0.00    -0.154 NA
ENDROOT
BRANCH   1   6
ATOM      6  C   UNL d   1      25.917 -12.474  -3.624  0.00  0.00    -0.003 A 
ATOM      7  C   UNL d   1      26.157 -13.409  -4.653  0.00  0.00     0.053 A 
ATOM      8  C   UNL d   1      26.487 -14.757  -4.375  0.00  0.00     0.102 A 
ATOM      9  C   UNL d   1      26.487 -15.161  -3.018  0.00  0.00     0.102 A 
ATOM     10  C   UNL d   1      26.152 -14.240  -2.009  0.00  0.00     0.040 A 
ATOM     11  C   UNL d   1      25.869 -12.914  -2.303  0.00  0.00     0.017 A 
BRANCH   8  12
ATOM     12  O   UNL d   1      27.079 -15.388  -5.456  0.00  0.00    -0.353 OA
ATOM     13  C   UNL d   1      28.154 -14.826  -6.214  0.00  0.00     0.210 C 
ENDBRANCH   8  12
BRANCH   9  14
ATOM     14  O   UNL d   1      26.837 -16.357  -2.433  0.00  0.00    -0.344 OA
BRANCH  14  15
ATOM     15  C   UNL d   1      26.428 -16.443  -1.092  0.00  0.00     0.214 C 
BRANCH  15  16
ATOM     16  C   UNL d   1      25.104 -17.049  -0.776  0.00  0.00    -0.034 A 
ATOM     17  C   UNL d   1      25.005 -18.364  -0.273  0.00  0.00     0.009 A 
ATOM     18  C   UNL d   1      23.752 -18.949  -0.145  0.00  0.00     0.001 A 
ATOM     19  C   UNL d   1      22.618 -18.194  -0.443  0.00  0.00     0.000 A 
ATOM     20  C   UNL d   1      22.730 -16.878  -0.895  0.00  0.00     0.001 A 
ATOM     21  C   UNL d   1      23.973 -16.308  -1.062  0.00  0.00     0.009 A 
ENDBRANCH  15  16
ENDBRANCH  14  15
ENDBRANCH   9  14
ENDBRANCH   1   6
BRANCH   3  22
ATOM     22  C   UNL d   1      24.753  -8.468  -5.676  0.00  0.00     0.268 C 
ATOM     23  O   UNL d   1      24.735  -8.352  -6.892  0.00  0.00    -0.269 OA
ATOM     24  N   UNL d   1      23.670  -8.120  -4.844  0.00  0.00    -0.245 N 
ATOM     25  H   UNL d   1      23.667  -8.281  -3.847  0.00  0.00     0.192 HD
BRANCH  24  26
ATOM     26  N   UNL d   1      22.558  -7.613  -5.450  0.00  0.00    -0.184 NA
ATOM     27  C   UNL d   1      22.677  -6.768  -6.425  0.00  0.00     0.152 C 
BRANCH  27  28
ATOM     28  C   UNL d   1      21.461  -6.145  -7.009  0.00  0.00     0.016 A 
ATOM     29  C   UNL d   1      21.250  -6.126  -8.394  0.00  0.00     0.016 A 
ATOM     30  C   UNL d   1      20.106  -5.500  -8.915  0.00  0.00     0.001 A 
ATOM     31  C   UNL d   1      19.151  -4.952  -8.055  0.00  0.00     0.003 A 
ATOM     32  C   UNL d   1      19.361  -4.969  -6.677  0.00  0.00     0.037 A 
ATOM     33  C   UNL d   1      20.522  -5.543  -6.162  0.00  0.00     0.077 A 
BRANCH  33  34
ATOM     34  O   UNL d   1      20.779  -5.450  -4.824  0.00  0.00    -0.360 OA
ATOM     35  H   UNL d   1      21.085  -6.303  -4.482  0.00  0.00     0.217 HD
ENDBRANCH  33  34
ENDBRANCH  27  28
ENDBRANCH  24  26
ENDBRANCH   3  22
TORSDOF 9
ENDMDL
MODEL 7
REMARK VINA RESULT:    -8.935      1.218      1.661
REMARK INTER + INTRA:         -13.939
REMARK INTER:                 -11.619
REMARK INTRA:                  -2.319
REMARK CONF_INDEPENDENT:        2.685
REMARK UNBOUND:                -2.319
REMARK  9 active torsions:
REMARK  status: ('A' for Active; 'I' for Inactive)
REMARK    1  A    between atoms: O_2  and  C_3 
REMARK    2  A    between atoms: C_5  and  C_6 
REMARK    3  A    between atoms: C_8  and  C_9 
REMARK       I    between atoms: C_9  and  N_11 
REMARK    4  A    between atoms: N_11  and  N_12 
REMARK    5  A    between atoms: C_13  and  C_14 
REMARK    6  A    between atoms: C_19  and  O_20 
REMARK    7  A    between atoms: C_25  and  O_26 
REMARK    8  A    between atoms: O_26  and  C_27 
REMARK    9  A    between atoms: C_27  and  C_28 
ROOT
ATOM      1  C   UNL d   1      26.464 -15.078  -0.583  0.00  0.00     0.087 A 
ATOM      2  C   UNL d   1      26.675 -16.350  -0.227  0.00  0.00     0.046 A 
ATOM      3  C   UNL d   1      26.016 -17.175  -1.267  0.00  0.00     0.249 A 
ATOM      4  N   UNL d   1      25.494 -16.124  -2.200  0.00  0.00    -0.173 NA
ATOM      5  N   UNL d   1      25.762 -14.968  -1.752  0.00  0.00    -0.154 NA
ENDROOT
BRANCH   1   6
ATOM      6  C   UNL d   1      26.926 -13.946   0.226  0.00  0.00    -0.003 A 
ATOM      7  C   UNL d   1      27.217 -12.688  -0.341  0.00  0.00     0.053 A 
ATOM      8  C   UNL d   1      27.341 -11.522   0.452  0.00  0.00     0.102 A 
ATOM      9  C   UNL d   1      27.246 -11.676   1.857  0.00  0.00     0.102 A 
ATOM     10  C   UNL d   1      27.051 -12.954   2.412  0.00  0.00     0.040 A 
ATOM     11  C   UNL d   1      26.894 -14.077   1.613  0.00  0.00     0.017 A 
BRANCH   8  12
ATOM     12  O   UNL d   1      27.210 -10.362  -0.292  0.00  0.00    -0.353 OA
ATOM     13  C   UNL d   1      27.361 -10.307  -1.713  0.00  0.00     0.210 C 
ENDBRANCH   8  12
BRANCH   9  14
ATOM     14  O   UNL d   1      27.244 -10.743   2.868  0.00  0.00    -0.344 OA
BRANCH  14  15
ATOM     15  C   UNL d   1      28.450 -10.724   3.587  0.00  0.00     0.214 C 
BRANCH  15  16
ATOM     16  C   UNL d   1      28.685 -11.758   4.634  0.00  0.00    -0.034 A 
ATOM     17  C   UNL d   1      29.752 -12.676   4.526  0.00  0.00     0.009 A 
ATOM     18  C   UNL d   1      29.841 -13.724   5.433  0.00  0.00     0.001 A 
ATOM     19  C   UNL d   1      28.919 -13.796   6.477  0.00  0.00     0.000 A 
ATOM     20  C   UNL d   1      27.897 -12.853   6.598  0.00  0.00     0.001 A 
ATOM     21  C   UNL d   1      27.781 -11.836   5.676  0.00  0.00     0.009 A 
ENDBRANCH  15  16
ENDBRANCH  14  15
ENDBRANCH   9  14
ENDBRANCH   1   6
BRANCH   3  22
ATOM     22  C   UNL d   1      24.833 -17.991  -0.705  0.00  0.00     0.268 C 
ATOM     23  O   UNL d   1      24.835 -18.454   0.425  0.00  0.00    -0.269 OA
ATOM     24  N   UNL d   1      23.753 -18.129  -1.601  0.00  0.00    -0.245 N 
ATOM     25  H   UNL d   1      23.730 -17.687  -2.509  0.00  0.00     0.192 HD
BRANCH  24  26
ATOM     26  N   UNL d   1      22.671 -18.836  -1.165  0.00  0.00    -0.184 NA
ATOM     27  C   UNL d   1      21.874 -18.326  -0.280  0.00  0.00     0.152 C 
BRANCH  27  28
ATOM     28  C   UNL d   1      20.758 -19.145   0.262  0.00  0.00     0.016 A 
ATOM     29  C   UNL d   1      20.595 -19.325   1.642  0.00  0.00     0.016 A 
ATOM     30  C   UNL d   1      19.548 -20.130   2.118  0.00  0.00     0.001 A 
ATOM     31  C   UNL d   1      18.638 -20.703   1.226  0.00  0.00     0.003 A 
ATOM     32  C   UNL d   1      18.801 -20.526  -0.146  0.00  0.00     0.037 A 
ATOM     33  C   UNL d   1      19.871 -19.769  -0.624  0.00  0.00     0.077 A 
BRANCH  33  34
ATOM     34  O   UNL d   1      20.095 -19.700  -1.969  0.00  0.00    -0.360 OA
ATOM     35  H   UNL d   1      21.039 -19.569  -2.144  0.00  0.00     0.217 HD
ENDBRANCH  33  34
ENDBRANCH  27  28
ENDBRANCH  24  26
ENDBRANCH   3  22
TORSDOF 9
ENDMDL
MODEL 8
REMARK VINA RESULT:    -8.741      5.318      8.413
REMARK INTER + INTRA:         -13.742
REMARK INTER:                 -11.425
REMARK INTRA:                  -2.316
REMARK CONF_INDEPENDENT:        2.685
REMARK UNBOUND:                -2.316
REMARK  9 active torsions:
REMARK  status: ('A' for Active; 'I' for Inactive)
REMARK    1  A    between atoms: O_2  and  C_3 
REMARK    2  A    between atoms: C_5  and  C_6 
REMARK    3  A    between atoms: C_8  and  C_9 
REMARK       I    between atoms: C_9  and  N_11 
REMARK    4  A    between atoms: N_11  and  N_12 
REMARK    5  A    between atoms: C_13  and  C_14 
REMARK    6  A    between atoms: C_19  and  O_20 
REMARK    7  A    between atoms: C_25  and  O_26 
REMARK    8  A    between atoms: O_26  and  C_27 
REMARK    9  A    between atoms: C_27  and  C_28 
ROOT
ATOM      1  C   UNL d   1      25.594 -14.542  -3.056  0.00  0.00     0.087 A 
ATOM      2  C   UNL d   1      25.481 -14.780  -1.745  0.00  0.00     0.046 A 
ATOM      3  C   UNL d   1      25.394 -16.252  -1.607  0.00  0.00     0.249 A 
ATOM      4  N   UNL d   1      25.525 -16.697  -3.032  0.00  0.00    -0.173 NA
ATOM      5  N   UNL d   1      25.616 -15.690  -3.799  0.00  0.00    -0.154 NA
ENDROOT
BRANCH   1   6
ATOM      6  C   UNL d   1      25.660 -13.186  -3.609  0.00  0.00    -0.003 A 
ATOM      7  C   UNL d   1      26.045 -12.076  -2.829  0.00  0.00     0.053 A 
ATOM      8  C   UNL d   1      26.425 -10.845  -3.416  0.00  0.00     0.102 A 
ATOM      9  C   UNL d   1      26.326 -10.738  -4.825  0.00  0.00     0.102 A 
ATOM     10  C   UNL d   1      25.849 -11.824  -5.582  0.00  0.00     0.040 A 
ATOM     11  C   UNL d   1      25.519 -13.033  -4.986  0.00  0.00     0.017 A 
BRANCH   8  12
ATOM     12  O   UNL d   1      27.148 -10.047  -2.546  0.00  0.00    -0.353 OA
ATOM     13  C   UNL d   1      26.635  -8.853  -1.950  0.00  0.00     0.210 C 
ENDBRANCH   8  12
BRANCH   9  14
ATOM     14  O   UNL d   1      26.691  -9.723  -5.680  0.00  0.00    -0.344 OA
BRANCH  14  15
ATOM     15  C   UNL d   1      27.862 -10.015  -6.397  0.00  0.00     0.214 C 
BRANCH  15  16
ATOM     16  C   UNL d   1      27.749 -10.657  -7.737  0.00  0.00    -0.034 A 
ATOM     17  C   UNL d   1      26.849 -10.166  -8.707  0.00  0.00     0.009 A 
ATOM     18  C   UNL d   1      26.655 -10.886  -9.879  0.00  0.00     0.001 A 
ATOM     19  C   UNL d   1      27.415 -12.033 -10.103  0.00  0.00     0.000 A 
ATOM     20  C   UNL d   1      28.337 -12.480  -9.154  0.00  0.00     0.001 A 
ATOM     21  C   UNL d   1      28.502 -11.791  -7.973  0.00  0.00     0.009 A 
ENDBRANCH  15  16
ENDBRANCH  14  15
ENDBRANCH   9  14
ENDBRANCH   1   6
BRANCH   3  22
ATOM     22  C   UNL d   1      24.028 -16.710  -1.054  0.00  0.00     0.268 C 
ATOM     23  O   UNL d   1      23.460 -16.123  -0.145  0.00  0.00    -0.269 OA
ATOM     24  N   UNL d   1      23.493 -17.840  -1.704  0.00  0.00    -0.245 N 
ATOM     25  H   UNL d   1      23.936 -18.279  -2.499  0.00  0.00     0.192 HD
BRANCH  24  26
ATOM     26  N   UNL d   1      22.284 -18.295  -1.267  0.00  0.00    -0.184 NA
ATOM     27  C   UNL d   1      22.154 -18.737  -0.057  0.00  0.00     0.152 C 
BRANCH  27  28
ATOM     28  C   UNL d   1      20.859 -19.325   0.376  0.00  0.00     0.016 A 
ATOM     29  C   UNL d   1      20.554 -19.486   1.734  0.00  0.00     0.016 A 
ATOM     30  C   UNL d   1      19.335 -20.074   2.107  0.00  0.00     0.001 A 
ATOM     31  C   UNL d   1      18.404 -20.444   1.133  0.00  0.00     0.003 A 
ATOM     32  C   UNL d   1      18.708 -20.286  -0.218  0.00  0.00     0.037 A 
ATOM     33  C   UNL d   1      19.940 -19.750  -0.592  0.00  0.00     0.077 A 
BRANCH  33  34
ATOM     34  O   UNL d   1      20.280 -19.710  -1.914  0.00  0.00    -0.360 OA
ATOM     35  H   UNL d   1      20.810 -18.920  -2.099  0.00  0.00     0.217 HD
ENDBRANCH  33  34
ENDBRANCH  27  28
ENDBRANCH  24  26
ENDBRANCH   3  22
TORSDOF 9
ENDMDL
MODEL 9
REMARK VINA RESULT:    -8.671      2.177      4.387
REMARK INTER + INTRA:         -13.758
REMARK INTER:                 -11.356
REMARK INTRA:                  -2.403
REMARK CONF_INDEPENDENT:        2.685
REMARK UNBOUND:                -2.403
REMARK  9 active torsions:
REMARK  status: ('A' for Active; 'I' for Inactive)
REMARK    1  A    between atoms: O_2  and  C_3 
REMARK    2  A    between atoms: C_5  and  C_6 
REMARK    3  A    between atoms: C_8  and  C_9 
REMARK       I    between atoms: C_9  and  N_11 
REMARK    4  A    between atoms: N_11  and  N_12 
REMARK    5  A    between atoms: C_13  and  C_14 
REMARK    6  A    between atoms: C_19  and  O_20 
REMARK    7  A    between atoms: C_25  and  O_26 
REMARK    8  A    between atoms: O_26  and  C_27 
REMARK    9  A    between atoms: C_27  and  C_28 
ROOT
ATOM      1  C   UNL d   1      26.175 -15.229  -0.779  0.00  0.00     0.087 A 
ATOM      2  C   UNL d   1      26.323 -16.360  -0.080  0.00  0.00     0.046 A 
ATOM      3  C   UNL d   1      25.906 -17.453  -0.989  0.00  0.00     0.249 A 
ATOM      4  N   UNL d   1      25.576 -16.697  -2.240  0.00  0.00    -0.173 NA
ATOM      5  N   UNL d   1      25.730 -15.451  -2.053  0.00  0.00    -0.154 NA
ENDROOT
BRANCH   1   6
ATOM      6  C   UNL d   1      26.445 -13.907  -0.205  0.00  0.00    -0.003 A 
ATOM      7  C   UNL d   1      26.404 -13.670   1.184  0.00  0.00     0.053 A 
ATOM      8  C   UNL d   1      26.973 -12.509   1.762  0.00  0.00     0.102 A 
ATOM      9  C   UNL d   1      27.519 -11.544   0.880  0.00  0.00     0.102 A 
ATOM     10  C   UNL d   1      27.466 -11.752  -0.511  0.00  0.00     0.040 A 
ATOM     11  C   UNL d   1      26.937 -12.915  -1.051  0.00  0.00     0.017 A 
BRANCH   8  12
ATOM     12  O   UNL d   1      27.202 -12.654   3.120  0.00  0.00    -0.353 OA
ATOM     13  C   UNL d   1      27.410 -13.914   3.761  0.00  0.00     0.210 C 
ENDBRANCH   8  12
BRANCH   9  14
ATOM     14  O   UNL d   1      28.201 -10.376   1.133  0.00  0.00    -0.344 OA
BRANCH  14  15
ATOM     15  C   UNL d   1      27.544  -9.559   2.068  0.00  0.00     0.214 C 
BRANCH  15  16
ATOM     16  C   UNL d   1      26.865  -8.320   1.596  0.00  0.00    -0.034 A 
ATOM     17  C   UNL d   1      27.135  -7.068   2.191  0.00  0.00     0.009 A 
ATOM     18  C   UNL d   1      26.365  -5.968   1.835  0.00  0.00     0.001 A 
ATOM     19  C   UNL d   1      25.398  -6.110   0.841  0.00  0.00     0.000 A 
ATOM     20  C   UNL d   1      25.175  -7.345   0.227  0.00  0.00     0.001 A 
ATOM     21  C   UNL d   1      25.909  -8.447   0.606  0.00  0.00     0.009 A 
ENDBRANCH  15  16
ENDBRANCH  14  15
ENDBRANCH   9  14
ENDBRANCH   1   6
BRANCH   3  22
ATOM     22  C   UNL d   1      24.641 -18.182  -0.486  0.00  0.00     0.268 C 
ATOM     23  O   UNL d   1      24.515 -18.550   0.672  0.00  0.00    -0.269 OA
ATOM     24  N   UNL d   1      23.650 -18.361  -1.472  0.00  0.00    -0.245 N 
ATOM     25  H   UNL d   1      23.734 -17.996  -2.411  0.00  0.00     0.192 HD
BRANCH  24  26
ATOM     26  N   UNL d   1      22.504 -18.996  -1.094  0.00  0.00    -0.184 NA
ATOM     27  C   UNL d   1      21.829 -18.566  -0.074  0.00  0.00     0.152 C 
BRANCH  27  28
ATOM     28  C   UNL d   1      20.639 -19.325   0.391  0.00  0.00     0.016 A 
ATOM     29  C   UNL d   1      20.422 -19.569   1.754  0.00  0.00     0.016 A 
ATOM     30  C   UNL d   1      19.304 -20.316   2.157  0.00  0.00     0.001 A 
ATOM     31  C   UNL d   1      18.380 -20.765   1.211  0.00  0.00     0.003 A 
ATOM     32  C   UNL d   1      18.596 -20.525  -0.145  0.00  0.00     0.037 A 
ATOM     33  C   UNL d   1      19.733 -19.828  -0.551  0.00  0.00     0.077 A 
BRANCH  33  34
ATOM     34  O   UNL d   1      20.001 -19.701  -1.884  0.00  0.00    -0.360 OA
ATOM     35  H   UNL d   1      20.781 -19.142  -2.016  0.00  0.00     0.217 HD
ENDBRANCH  33  34
ENDBRANCH  27  28
ENDBRANCH  24  26
ENDBRANCH   3  22
TORSDOF 9
ENDMDL
