MODEL 1
REMARK VINA RESULT:    -9.882      0.000      0.000
REMARK INTER + INTRA:         -13.949
REMARK INTER:                 -12.567
REMARK INTRA:                  -1.382
REMARK CONF_INDEPENDENT:        2.685
REMARK UNBOUND:                -1.382
REMARK  9 active torsions:
REMARK  status: ('A' for Active; 'I' for Inactive)
REMARK    1  A    between atoms: C_2  and  C_3 
REMARK       I    between atoms: C_2  and  N_21 
REMARK    2  A    between atoms: C_3  and  N_4 
REMARK    3  A    between atoms: N_4  and  C_5 
REMARK    4  A    between atoms: C_10  and  C_11 
REMARK       I    between atoms: C_11  and  N_13 
REMARK    5  A    between atoms: N_13  and  C_14 
REMARK    6  A    between atoms: N_21  and  C_22 
REMARK    7  A    between atoms: C_25  and  C_26 
REMARK       I    between atoms: C_26  and  N_28 
REMARK    8  A    between atoms: N_28  and  C_29 
REMARK    9  A    between atoms: C_30  and  C_29 
ROOT
ATOM      1  O   UNL d   1      29.413 -15.254  -1.036  0.00  0.00    -0.271 OA
ATOM      2  C   UNL d   1      28.346 -15.673  -0.580  0.00  0.00     0.239 C 
ATOM      3  N   UNL d   1      27.520 -16.449  -1.381  0.00  0.00    -0.326 N 
ATOM      4  H   UNL d   1      27.938 -16.713  -2.268  0.00  0.00     0.169 HD
ENDROOT
BRANCH   2   5
ATOM      5  C   UNL d   1      27.945 -15.469   0.892  0.00  0.00     0.223 C 
BRANCH   5   6
ATOM      6  N   UNL d   1      28.972 -14.838   1.717  0.00  0.00    -0.381 N 
ATOM      7  H   UNL d   1      29.866 -15.316   1.800  0.00  0.00     0.160 HD
BRANCH   6   8
ATOM      8  C   UNL d   1      28.710 -13.677   2.421  0.00  0.00     0.029 A 
ATOM      9  C   UNL d   1      28.553 -12.453   1.772  0.00  0.00     0.031 A 
ATOM     10  C   UNL d   1      28.273 -11.282   2.473  0.00  0.00     0.027 A 
ATOM     11  C   UNL d   1      28.186 -11.282   3.863  0.00  0.00     0.049 A 
ATOM     12 CL   UNL d   1      27.831  -9.743   4.568  0.00  0.00    -0.083 Cl
ATOM     13  C   UNL d   1      28.384 -12.475   4.564  0.00  0.00     0.055 A 
ATOM     14  C   UNL d   1      28.655 -13.664   3.821  0.00  0.00     0.048 A 
BRANCH  13  15
ATOM     15  C   UNL d   1      28.310 -12.614   6.050  0.00  0.00     0.253 C 
ATOM     16  O   UNL d   1      27.192 -12.522   6.559  0.00  0.00    -0.268 OA
ATOM     17  N   UNL d   1      29.474 -12.805   6.776  0.00  0.00    -0.352 N 
ATOM     18  H   UNL d   1      30.326 -12.977   6.258  0.00  0.00     0.163 HD
BRANCH  17  19
ATOM     19  C   UNL d   1      29.582 -12.987   8.231  0.00  0.00     0.084 C 
ATOM     20  C   UNL d   1      28.502 -12.153   8.956  0.00  0.00     0.025 C 
ATOM     21  C   UNL d   1      28.495 -12.392  10.469  0.00  0.00     0.002 C 
ATOM     22  C   UNL d   1      28.380 -13.875  10.807  0.00  0.00     0.000 C 
ATOM     23  C   UNL d   1      29.496 -14.661  10.143  0.00  0.00     0.002 C 
ATOM     24  C   UNL d   1      29.488 -14.453   8.645  0.00  0.00     0.025 C 
ENDBRANCH  17  19
ENDBRANCH  13  15
ENDBRANCH   6   8
ENDBRANCH   5   6
ENDBRANCH   2   5
BRANCH   3  25
ATOM     25  C   UNL d   1      26.226 -16.923  -1.094  0.00  0.00     0.034 A 
ATOM     26  C   UNL d   1      26.041 -18.095  -0.360  0.00  0.00     0.030 A 
ATOM     27  C   UNL d   1      24.736 -18.563  -0.098  0.00  0.00     0.019 A 
ATOM     28  C   UNL d   1      23.605 -17.837  -0.515  0.00  0.00     0.032 A 
ATOM     29  C   UNL d   1      23.807 -16.701  -1.294  0.00  0.00     0.019 A 
ATOM     30  C   UNL d   1      25.100 -16.280  -1.602  0.00  0.00     0.030 A 
BRANCH  28  31
ATOM     31  C   UNL d   1      22.234 -18.292  -0.107  0.00  0.00     0.251 C 
ATOM     32  O   UNL d   1      22.016 -18.574   1.072  0.00  0.00    -0.268 OA
ATOM     33  N   UNL d   1      21.248 -18.353  -1.077  0.00  0.00    -0.354 N 
ATOM     34  H   UNL d   1      21.448 -18.068  -2.020  0.00  0.00     0.162 HD
BRANCH  33  35
ATOM     35  C   UNL d   1      19.907 -18.825  -0.754  0.00  0.00     0.155 C 
BRANCH  35  36
ATOM     36  C   UNL d   1      19.745 -20.315  -0.374  0.00  0.00     0.139 C 
ATOM     37  C   UNL d   1      20.279 -20.720   0.992  0.00  0.00     0.035 C 
ATOM     38  C   UNL d   1      19.101 -20.492   1.900  0.00  0.00     0.029 C 
ATOM     39  C   UNL d   1      17.932 -20.872   1.022  0.00  0.00     0.168 C 
ATOM     40  O   UNL d   1      18.330 -20.629  -0.335  0.00  0.00    -0.384 OA
ENDBRANCH  35  36
ENDBRANCH  33  35
ENDBRANCH  28  31
ENDBRANCH   3  25
TORSDOF 9
ENDMDL
MODEL 2
REMARK VINA RESULT:    -9.739      4.992      8.307
REMARK INTER + INTRA:         -14.387
REMARK INTER:                 -12.423
REMARK INTRA:                  -1.964
REMARK CONF_INDEPENDENT:        2.685
REMARK UNBOUND:                -1.964
REMARK  9 active torsions:
REMARK  status: ('A' for Active; 'I' for Inactive)
REMARK    1  A    between atoms: C_2  and  C_3 
REMARK       I    between atoms: C_2  and  N_21 
REMARK    2  A    between atoms: C_3  and  N_4 
REMARK    3  A    between atoms: N_4  and  C_5 
REMARK    4  A    between atoms: C_10  and  C_11 
REMARK       I    between atoms: C_11  and  N_13 
REMARK    5  A    between atoms: N_13  and  C_14 
REMARK    6  A    between atoms: N_21  and  C_22 
REMARK    7  A    between atoms: C_25  and  C_26 
REMARK       I    between atoms: C_26  and  N_28 
REMARK    8  A    between atoms: N_28  and  C_29 
REMARK    9  A    between atoms: C_30  and  C_29 
ROOT
ATOM      1  O   UNL d   1      31.009 -16.530  -0.182  0.00  0.00    -0.271 OA
ATOM      2  C   UNL d   1      29.791 -16.429  -0.015  0.00  0.00     0.239 C 
ATOM      3  N   UNL d   1      28.958 -17.462  -0.422  0.00  0.00    -0.326 N 
ATOM      4  H   UNL d   1      29.454 -18.295  -0.724  0.00  0.00     0.169 HD
ENDROOT
BRANCH   2   5
ATOM      5  C   UNL d   1      29.161 -15.244   0.740  0.00  0.00     0.223 C 
BRANCH   5   6
ATOM      6  N   UNL d   1      29.136 -13.992  -0.011  0.00  0.00    -0.381 N 
ATOM      7  H   UNL d   1      29.669 -13.210   0.363  0.00  0.00     0.160 HD
BRANCH   6   8
ATOM      8  C   UNL d   1      28.354 -13.852  -1.143  0.00  0.00     0.029 A 
ATOM      9  C   UNL d   1      27.252 -12.998  -1.163  0.00  0.00     0.031 A 
ATOM     10  C   UNL d   1      26.467 -12.841  -2.304  0.00  0.00     0.027 A 
ATOM     11  C   UNL d   1      26.729 -13.571  -3.460  0.00  0.00     0.049 A 
ATOM     12 CL   UNL d   1      25.657 -13.249  -4.779  0.00  0.00    -0.083 Cl
ATOM     13  C   UNL d   1      27.793 -14.477  -3.475  0.00  0.00     0.055 A 
ATOM     14  C   UNL d   1      28.591 -14.609  -2.298  0.00  0.00     0.048 A 
BRANCH  13  15
ATOM     15  C   UNL d   1      28.186 -15.313  -4.650  0.00  0.00     0.253 C 
ATOM     16  O   UNL d   1      27.511 -15.184  -5.671  0.00  0.00    -0.268 OA
ATOM     17  N   UNL d   1      29.245 -16.199  -4.532  0.00  0.00    -0.352 N 
ATOM     18  H   UNL d   1      29.803 -16.151  -3.689  0.00  0.00     0.163 HD
BRANCH  17  19
ATOM     19  C   UNL d   1      29.780 -17.073  -5.586  0.00  0.00     0.084 C 
ATOM     20  C   UNL d   1      30.539 -16.236  -6.640  0.00  0.00     0.025 C 
ATOM     21  C   UNL d   1      31.215 -17.107  -7.703  0.00  0.00     0.002 C 
ATOM     22  C   UNL d   1      32.114 -18.169  -7.077  0.00  0.00     0.000 C 
ATOM     23  C   UNL d   1      31.328 -19.024  -6.101  0.00  0.00     0.002 C 
ATOM     24  C   UNL d   1      30.683 -18.172  -5.031  0.00  0.00     0.025 C 
ENDBRANCH  17  19
ENDBRANCH  13  15
ENDBRANCH   6   8
ENDBRANCH   5   6
ENDBRANCH   2   5
BRANCH   3  25
ATOM     25  C   UNL d   1      27.550 -17.494  -0.426  0.00  0.00     0.034 A 
ATOM     26  C   UNL d   1      26.826 -16.908  -1.464  0.00  0.00     0.030 A 
ATOM     27  C   UNL d   1      25.415 -16.935  -1.440  0.00  0.00     0.019 A 
ATOM     28  C   UNL d   1      24.717 -17.597  -0.412  0.00  0.00     0.032 A 
ATOM     29  C   UNL d   1      25.454 -18.127   0.644  0.00  0.00     0.019 A 
ATOM     30  C   UNL d   1      26.845 -18.040   0.645  0.00  0.00     0.030 A 
BRANCH  28  31
ATOM     31  C   UNL d   1      23.223 -17.721  -0.485  0.00  0.00     0.251 C 
ATOM     32  O   UNL d   1      22.559 -16.785  -0.932  0.00  0.00    -0.268 OA
ATOM     33  N   UNL d   1      22.644 -18.907  -0.068  0.00  0.00    -0.354 N 
ATOM     34  H   UNL d   1      23.220 -19.670   0.246  0.00  0.00     0.162 HD
BRANCH  33  35
ATOM     35  C   UNL d   1      21.196 -19.078  -0.076  0.00  0.00     0.155 C 
BRANCH  35  36
ATOM     36  C   UNL d   1      20.618 -20.313   0.655  0.00  0.00     0.139 C 
ATOM     37  C   UNL d   1      20.025 -20.059   2.033  0.00  0.00     0.035 C 
ATOM     38  C   UNL d   1      18.589 -19.725   1.731  0.00  0.00     0.029 C 
ATOM     39  C   UNL d   1      18.285 -20.622   0.553  0.00  0.00     0.168 C 
ATOM     40  O   UNL d   1      19.525 -20.845  -0.135  0.00  0.00    -0.384 OA
ENDBRANCH  35  36
ENDBRANCH  33  35
ENDBRANCH  28  31
ENDBRANCH   3  25
TORSDOF 9
ENDMDL
MODEL 3
REMARK VINA RESULT:    -9.407      6.390     10.354
REMARK INTER + INTRA:         -14.294
REMARK INTER:                 -12.091
REMARK INTRA:                  -2.203
REMARK CONF_INDEPENDENT:        2.685
REMARK UNBOUND:                -2.203
REMARK  9 active torsions:
REMARK  status: ('A' for Active; 'I' for Inactive)
REMARK    1  A    between atoms: C_2  and  C_3 
REMARK       I    between atoms: C_2  and  N_21 
REMARK    2  A    between atoms: C_3  and  N_4 
REMARK    3  A    between atoms: N_4  and  C_5 
REMARK    4  A    between atoms: C_10  and  C_11 
REMARK       I    between atoms: C_11  and  N_13 
REMARK    5  A    between atoms: N_13  and  C_14 
REMARK    6  A    between atoms: N_21  and  C_22 
REMARK    7  A    between atoms: C_25  and  C_26 
REMARK       I    between atoms: C_26  and  N_28 
REMARK    8  A    between atoms: N_28  and  C_29 
REMARK    9  A    between atoms: C_30  and  C_29 
ROOT
ATOM      1  O   UNL d   1      25.948 -11.451  -3.682  0.00  0.00    -0.271 OA
ATOM      2  C   UNL d   1      26.367 -12.501  -4.175  0.00  0.00     0.239 C 
ATOM      3  N   UNL d   1      27.735 -12.693  -4.311  0.00  0.00    -0.326 N 
ATOM      4  H   UNL d   1      28.297 -11.974  -3.866  0.00  0.00     0.169 HD
ENDROOT
BRANCH   2   5
ATOM      5  C   UNL d   1      25.432 -13.668  -4.541  0.00  0.00     0.223 C 
BRANCH   5   6
ATOM      6  N   UNL d   1      24.617 -14.159  -3.432  0.00  0.00    -0.381 N 
ATOM      7  H   UNL d   1      23.676 -13.783  -3.339  0.00  0.00     0.160 HD
BRANCH   6   8
ATOM      8  C   UNL d   1      25.134 -15.040  -2.500  0.00  0.00     0.029 A 
ATOM      9  C   UNL d   1      26.437 -14.908  -2.021  0.00  0.00     0.031 A 
ATOM     10  C   UNL d   1      26.960 -15.782  -1.070  0.00  0.00     0.027 A 
ATOM     11  C   UNL d   1      26.212 -16.855  -0.593  0.00  0.00     0.049 A 
ATOM     12 CL   UNL d   1      27.016 -17.835   0.583  0.00  0.00    -0.083 Cl
ATOM     13  C   UNL d   1      24.917 -17.059  -1.079  0.00  0.00     0.055 A 
ATOM     14  C   UNL d   1      24.398 -16.141  -2.042  0.00  0.00     0.048 A 
BRANCH  13  15
ATOM     15  C   UNL d   1      24.007 -18.163  -0.646  0.00  0.00     0.253 C 
ATOM     16  O   UNL d   1      24.539 -19.156  -0.150  0.00  0.00    -0.268 OA
ATOM     17  N   UNL d   1      22.642 -18.038  -0.845  0.00  0.00    -0.352 N 
ATOM     18  H   UNL d   1      22.294 -17.140  -1.159  0.00  0.00     0.163 HD
BRANCH  17  19
ATOM     19  C   UNL d   1      21.606 -19.007  -0.460  0.00  0.00     0.084 C 
ATOM     20  C   UNL d   1      21.366 -18.955   1.066  0.00  0.00     0.025 C 
ATOM     21  C   UNL d   1      20.216 -19.865   1.510  0.00  0.00     0.002 C 
ATOM     22  C   UNL d   1      18.936 -19.579   0.731  0.00  0.00     0.000 C 
ATOM     23  C   UNL d   1      19.180 -19.709  -0.761  0.00  0.00     0.002 C 
ATOM     24  C   UNL d   1      20.294 -18.790  -1.211  0.00  0.00     0.025 C 
ENDBRANCH  17  19
ENDBRANCH  13  15
ENDBRANCH   6   8
ENDBRANCH   5   6
ENDBRANCH   2   5
BRANCH   3  25
ATOM     25  C   UNL d   1      28.405 -13.757  -4.945  0.00  0.00     0.034 A 
ATOM     26  C   UNL d   1      28.833 -13.644  -6.268  0.00  0.00     0.030 A 
ATOM     27  C   UNL d   1      29.488 -14.728  -6.890  0.00  0.00     0.019 A 
ATOM     28  C   UNL d   1      29.772 -15.911  -6.182  0.00  0.00     0.032 A 
ATOM     29  C   UNL d   1      29.288 -16.028  -4.881  0.00  0.00     0.019 A 
ATOM     30  C   UNL d   1      28.587 -14.975  -4.295  0.00  0.00     0.030 A 
BRANCH  28  31
ATOM     31  C   UNL d   1      30.584 -16.993  -6.831  0.00  0.00     0.251 C 
ATOM     32  O   UNL d   1      31.269 -16.725  -7.820  0.00  0.00    -0.268 OA
ATOM     33  N   UNL d   1      30.555 -18.259  -6.273  0.00  0.00    -0.354 N 
ATOM     34  H   UNL d   1      30.024 -18.432  -5.436  0.00  0.00     0.162 HD
BRANCH  33  35
ATOM     35  C   UNL d   1      31.290 -19.363  -6.878  0.00  0.00     0.155 C 
BRANCH  35  36
ATOM     36  C   UNL d   1      31.002 -20.789  -6.350  0.00  0.00     0.139 C 
ATOM     37  C   UNL d   1      32.201 -21.560  -5.818  0.00  0.00     0.035 C 
ATOM     38  C   UNL d   1      32.242 -21.168  -4.366  0.00  0.00     0.029 C 
ATOM     39  C   UNL d   1      30.777 -21.041  -4.019  0.00  0.00     0.168 C 
ATOM     40  O   UNL d   1      30.089 -20.688  -5.229  0.00  0.00    -0.384 OA
ENDBRANCH  35  36
ENDBRANCH  33  35
ENDBRANCH  28  31
ENDBRANCH   3  25
TORSDOF 9
ENDMDL
MODEL 4
REMARK VINA RESULT:    -9.104      5.462      8.567
REMARK INTER + INTRA:         -13.899
REMARK INTER:                 -11.789
REMARK INTRA:                  -2.111
REMARK CONF_INDEPENDENT:        2.685
REMARK UNBOUND:                -2.111
REMARK  9 active torsions:
REMARK  status: ('A' for Active; 'I' for Inactive)
REMARK    1  A    between atoms: C_2  and  C_3 
REMARK       I    between atoms: C_2  and  N_21 
REMARK    2  A    between atoms: C_3  and  N_4 
REMARK    3  A    between atoms: N_4  and  C_5 
REMARK    4  A    between atoms: C_10  and  C_11 
REMARK       I    between atoms: C_11  and  N_13 
REMARK    5  A    between atoms: N_13  and  C_14 
REMARK    6  A    between atoms: N_21  and  C_22 
REMARK    7  A    between atoms: C_25  and  C_26 
REMARK       I    between atoms: C_26  and  N_28 
REMARK    8  A    between atoms: N_28  and  C_29 
REMARK    9  A    between atoms: C_30  and  C_29 
ROOT
ATOM      1  O   UNL d   1      29.618 -15.229   0.500  0.00  0.00    -0.271 OA
ATOM      2  C   UNL d   1      28.698 -15.839  -0.050  0.00  0.00     0.239 C 
ATOM      3  N   UNL d   1      27.422 -15.783   0.492  0.00  0.00    -0.326 N 
ATOM      4  H   UNL d   1      27.329 -15.123   1.258  0.00  0.00     0.169 HD
ENDROOT
BRANCH   2   5
ATOM      5  C   UNL d   1      28.885 -16.569  -1.392  0.00  0.00     0.223 C 
BRANCH   5   6
ATOM      6  N   UNL d   1      27.760 -16.435  -2.315  0.00  0.00    -0.381 N 
ATOM      7  H   UNL d   1      26.950 -17.030  -2.156  0.00  0.00     0.160 HD
BRANCH   6   8
ATOM      8  C   UNL d   1      27.828 -15.591  -3.408  0.00  0.00     0.029 A 
ATOM      9  C   UNL d   1      28.778 -15.778  -4.412  0.00  0.00     0.031 A 
ATOM     10  C   UNL d   1      28.843 -14.941  -5.524  0.00  0.00     0.027 A 
ATOM     11  C   UNL d   1      27.987 -13.851  -5.652  0.00  0.00     0.049 A 
ATOM     12 CL   UNL d   1      28.206 -12.921  -7.094  0.00  0.00    -0.083 Cl
ATOM     13  C   UNL d   1      27.049 -13.592  -4.649  0.00  0.00     0.055 A 
ATOM     14  C   UNL d   1      26.992 -14.473  -3.526  0.00  0.00     0.048 A 
BRANCH  13  15
ATOM     15  C   UNL d   1      26.068 -12.464  -4.667  0.00  0.00     0.253 C 
ATOM     16  O   UNL d   1      25.015 -12.637  -4.051  0.00  0.00    -0.268 OA
ATOM     17  N   UNL d   1      26.362 -11.316  -5.383  0.00  0.00    -0.352 N 
ATOM     18  H   UNL d   1      27.297 -11.228  -5.763  0.00  0.00     0.163 HD
BRANCH  17  19
ATOM     19  C   UNL d   1      25.530 -10.109  -5.488  0.00  0.00     0.084 C 
ATOM     20  C   UNL d   1      25.603  -9.294  -4.177  0.00  0.00     0.025 C 
ATOM     21  C   UNL d   1      24.844  -7.967  -4.269  0.00  0.00     0.002 C 
ATOM     22  C   UNL d   1      25.296  -7.140  -5.469  0.00  0.00     0.000 C 
ATOM     23  C   UNL d   1      25.146  -7.935  -6.752  0.00  0.00     0.002 C 
ATOM     24  C   UNL d   1      25.918  -9.234  -6.678  0.00  0.00     0.025 C 
ENDBRANCH  17  19
ENDBRANCH  13  15
ENDBRANCH   6   8
ENDBRANCH   5   6
ENDBRANCH   2   5
BRANCH   3  25
ATOM     25  C   UNL d   1      26.274 -16.491   0.088  0.00  0.00     0.034 A 
ATOM     26  C   UNL d   1      25.226 -15.839  -0.563  0.00  0.00     0.030 A 
ATOM     27  C   UNL d   1      24.076 -16.563  -0.944  0.00  0.00     0.019 A 
ATOM     28  C   UNL d   1      23.986 -17.951  -0.732  0.00  0.00     0.032 A 
ATOM     29  C   UNL d   1      25.016 -18.575  -0.031  0.00  0.00     0.019 A 
ATOM     30  C   UNL d   1      26.120 -17.840   0.398  0.00  0.00     0.030 A 
BRANCH  28  31
ATOM     31  C   UNL d   1      22.809 -18.713  -1.266  0.00  0.00     0.251 C 
ATOM     32  O   UNL d   1      22.916 -19.325  -2.330  0.00  0.00    -0.268 OA
ATOM     33  N   UNL d   1      21.641 -18.721  -0.523  0.00  0.00    -0.354 N 
ATOM     34  H   UNL d   1      21.603 -18.251   0.366  0.00  0.00     0.162 HD
BRANCH  33  35
ATOM     35  C   UNL d   1      20.449 -19.408  -1.005  0.00  0.00     0.155 C 
BRANCH  35  36
ATOM     36  C   UNL d   1      19.162 -19.288  -0.156  0.00  0.00     0.139 C 
ATOM     37  C   UNL d   1      18.316 -20.548  -0.040  0.00  0.00     0.035 C 
ATOM     38  C   UNL d   1      18.895 -21.237   1.166  0.00  0.00     0.029 C 
ATOM     39  C   UNL d   1      19.265 -20.077   2.061  0.00  0.00     0.168 C 
ATOM     40  O   UNL d   1      19.537 -18.958   1.204  0.00  0.00    -0.384 OA
ENDBRANCH  35  36
ENDBRANCH  33  35
ENDBRANCH  28  31
ENDBRANCH   3  25
TORSDOF 9
ENDMDL
MODEL 5
REMARK VINA RESULT:    -7.507      4.601      9.187
REMARK INTER + INTRA:         -14.698
REMARK INTER:                 -10.192
REMARK INTRA:                  -4.506
REMARK CONF_INDEPENDENT:        2.685
REMARK UNBOUND:                -4.506
REMARK  9 active torsions:
REMARK  status: ('A' for Active; 'I' for Inactive)
REMARK    1  A    between atoms: C_2  and  C_3 
REMARK       I    between atoms: C_2  and  N_21 
REMARK    2  A    between atoms: C_3  and  N_4 
REMARK    3  A    between atoms: N_4  and  C_5 
REMARK    4  A    between atoms: C_10  and  C_11 
REMARK       I    between atoms: C_11  and  N_13 
REMARK    5  A    between atoms: N_13  and  C_14 
REMARK    6  A    between atoms: N_21  and  C_22 
REMARK    7  A    between atoms: C_25  and  C_26 
REMARK       I    between atoms: C_26  and  N_28 
REMARK    8  A    between atoms: N_28  and  C_29 
REMARK    9  A    between atoms: C_30  and  C_29 
ROOT
ATOM      1  O   UNL d   1      31.002 -17.566  -7.567  0.00  0.00    -0.271 OA
ATOM      2  C   UNL d   1      30.741 -16.783  -6.650  0.00  0.00     0.239 C 
ATOM      3  N   UNL d   1      30.670 -17.257  -5.348  0.00  0.00    -0.326 N 
ATOM      4  H   UNL d   1      30.968 -18.222  -5.245  0.00  0.00     0.169 HD
ENDROOT
BRANCH   2   5
ATOM      5  C   UNL d   1      30.607 -15.266  -6.878  0.00  0.00     0.223 C 
BRANCH   5   6
ATOM      6  N   UNL d   1      29.249 -14.818  -7.178  0.00  0.00    -0.381 N 
ATOM      7  H   UNL d   1      28.908 -14.956  -8.126  0.00  0.00     0.160 HD
BRANCH   6   8
ATOM      8  C   UNL d   1      28.489 -14.157  -6.230  0.00  0.00     0.029 A 
ATOM      9  C   UNL d   1      28.530 -12.768  -6.106  0.00  0.00     0.031 A 
ATOM     10  C   UNL d   1      27.755 -12.094  -5.164  0.00  0.00     0.027 A 
ATOM     11  C   UNL d   1      26.942 -12.790  -4.274  0.00  0.00     0.049 A 
ATOM     12 CL   UNL d   1      26.050 -11.795  -3.175  0.00  0.00    -0.083 Cl
ATOM     13  C   UNL d   1      26.904 -14.186  -4.325  0.00  0.00     0.055 A 
ATOM     14  C   UNL d   1      27.695 -14.853  -5.310  0.00  0.00     0.048 A 
BRANCH  13  15
ATOM     15  C   UNL d   1      26.069 -15.051  -3.437  0.00  0.00     0.253 C 
ATOM     16  O   UNL d   1      25.259 -15.795  -3.991  0.00  0.00    -0.268 OA
ATOM     17  N   UNL d   1      26.216 -14.959  -2.063  0.00  0.00    -0.352 N 
ATOM     18  H   UNL d   1      26.984 -14.401  -1.710  0.00  0.00     0.163 HD
BRANCH  17  19
ATOM     19  C   UNL d   1      25.502 -15.748  -1.048  0.00  0.00     0.084 C 
ATOM     20  C   UNL d   1      24.042 -15.993  -1.492  0.00  0.00     0.025 C 
ATOM     21  C   UNL d   1      23.282 -16.905  -0.524  0.00  0.00     0.002 C 
ATOM     22  C   UNL d   1      24.022 -18.217  -0.284  0.00  0.00     0.000 C 
ATOM     23  C   UNL d   1      25.428 -17.950   0.222  0.00  0.00     0.002 C 
ATOM     24  C   UNL d   1      26.194 -17.074  -0.744  0.00  0.00     0.025 C 
ENDBRANCH  17  19
ENDBRANCH  13  15
ENDBRANCH   6   8
ENDBRANCH   5   6
ENDBRANCH   2   5
BRANCH   3  25
ATOM     25  C   UNL d   1      30.278 -16.560  -4.189  0.00  0.00     0.034 A 
ATOM     26  C   UNL d   1      29.293 -17.073  -3.345  0.00  0.00     0.030 A 
ATOM     27  C   UNL d   1      28.902 -16.350  -2.198  0.00  0.00     0.019 A 
ATOM     28  C   UNL d   1      29.531 -15.139  -1.852  0.00  0.00     0.032 A 
ATOM     29  C   UNL d   1      30.472 -14.614  -2.734  0.00  0.00     0.019 A 
ATOM     30  C   UNL d   1      30.807 -15.304  -3.898  0.00  0.00     0.030 A 
BRANCH  28  31
ATOM     31  C   UNL d   1      29.185 -14.462  -0.558  0.00  0.00     0.251 C 
ATOM     32  O   UNL d   1      28.553 -13.405  -0.577  0.00  0.00    -0.268 OA
ATOM     33  N   UNL d   1      29.570 -15.072   0.624  0.00  0.00    -0.354 N 
ATOM     34  H   UNL d   1      30.041 -15.961   0.605  0.00  0.00     0.162 HD
BRANCH  33  35
ATOM     35  C   UNL d   1      29.299 -14.448   1.913  0.00  0.00     0.155 C 
BRANCH  35  36
ATOM     36  C   UNL d   1      27.835 -14.440   2.411  0.00  0.00     0.139 C 
ATOM     37  C   UNL d   1      27.409 -13.224   3.221  0.00  0.00     0.035 C 
ATOM     38  C   UNL d   1      26.922 -12.267   2.167  0.00  0.00     0.029 C 
ATOM     39  C   UNL d   1      26.284 -13.189   1.155  0.00  0.00     0.168 C 
ATOM     40  O   UNL d   1      26.957 -14.453   1.258  0.00  0.00    -0.384 OA
ENDBRANCH  35  36
ENDBRANCH  33  35
ENDBRANCH  28  31
ENDBRANCH   3  25
TORSDOF 9
ENDMDL
MODEL 6
REMARK VINA RESULT:    -7.467      6.812     10.218
REMARK INTER + INTRA:         -13.749
REMARK INTER:                 -10.152
REMARK INTRA:                  -3.597
REMARK CONF_INDEPENDENT:        2.685
REMARK UNBOUND:                -3.597
REMARK  9 active torsions:
REMARK  status: ('A' for Active; 'I' for Inactive)
REMARK    1  A    between atoms: C_2  and  C_3 
REMARK       I    between atoms: C_2  and  N_21 
REMARK    2  A    between atoms: C_3  and  N_4 
REMARK    3  A    between atoms: N_4  and  C_5 
REMARK    4  A    between atoms: C_10  and  C_11 
REMARK       I    between atoms: C_11  and  N_13 
REMARK    5  A    between atoms: N_13  and  C_14 
REMARK    6  A    between atoms: N_21  and  C_22 
REMARK    7  A    between atoms: C_25  and  C_26 
REMARK       I    between atoms: C_26  and  N_28 
REMARK    8  A    between atoms: N_28  and  C_29 
REMARK    9  A    between atoms: C_30  and  C_29 
ROOT
ATOM      1  O   UNL d   1      27.475  -9.106  -8.187  0.00  0.00    -0.271 OA
ATOM      2  C   UNL d   1      27.440 -10.192  -7.603  0.00  0.00     0.239 C 
ATOM      3  N   UNL d   1      28.609 -10.723  -7.078  0.00  0.00    -0.326 N 
ATOM      4  H   UNL d   1      29.402 -10.090  -7.118  0.00  0.00     0.169 HD
ENDROOT
BRANCH   2   5
ATOM      5  C   UNL d   1      26.118 -10.932  -7.326  0.00  0.00     0.223 C 
BRANCH   5   6
ATOM      6  N   UNL d   1      25.503 -10.610  -6.040  0.00  0.00    -0.381 N 
ATOM      7  H   UNL d   1      24.811  -9.866  -6.025  0.00  0.00     0.160 HD
BRANCH   6   8
ATOM      8  C   UNL d   1      25.908 -11.239  -4.877  0.00  0.00     0.029 A 
ATOM      9  C   UNL d   1      26.673 -10.574  -3.920  0.00  0.00     0.031 A 
ATOM     10  C   UNL d   1      27.071 -11.197  -2.738  0.00  0.00     0.027 A 
ATOM     11  C   UNL d   1      26.757 -12.530  -2.489  0.00  0.00     0.049 A 
ATOM     12 CL   UNL d   1      27.329 -13.140  -0.975  0.00  0.00    -0.083 Cl
ATOM     13  C   UNL d   1      26.033 -13.255  -3.440  0.00  0.00     0.055 A 
ATOM     14  C   UNL d   1      25.624 -12.590  -4.636  0.00  0.00     0.048 A 
BRANCH  13  15
ATOM     15  C   UNL d   1      25.624 -14.685  -3.294  0.00  0.00     0.253 C 
ATOM     16  O   UNL d   1      25.512 -15.338  -4.332  0.00  0.00    -0.268 OA
ATOM     17  N   UNL d   1      25.363 -15.194  -2.032  0.00  0.00    -0.352 N 
ATOM     18  H   UNL d   1      25.590 -14.610  -1.236  0.00  0.00     0.163 HD
BRANCH  17  19
ATOM     19  C   UNL d   1      24.978 -16.574  -1.703  0.00  0.00     0.084 C 
ATOM     20  C   UNL d   1      25.909 -17.142  -0.608  0.00  0.00     0.025 C 
ATOM     21  C   UNL d   1      25.484 -18.539  -0.145  0.00  0.00     0.002 C 
ATOM     22  C   UNL d   1      24.022 -18.570   0.289  0.00  0.00     0.000 C 
ATOM     23  C   UNL d   1      23.123 -18.078  -0.829  0.00  0.00     0.002 C 
ATOM     24  C   UNL d   1      23.519 -16.686  -1.270  0.00  0.00     0.025 C 
ENDBRANCH  17  19
ENDBRANCH  13  15
ENDBRANCH   6   8
ENDBRANCH   5   6
ENDBRANCH   2   5
BRANCH   3  25
ATOM     25  C   UNL d   1      28.801 -11.985  -6.484  0.00  0.00     0.034 A 
ATOM     26  C   UNL d   1      29.317 -12.096  -5.193  0.00  0.00     0.030 A 
ATOM     27  C   UNL d   1      29.518 -13.370  -4.622  0.00  0.00     0.019 A 
ATOM     28  C   UNL d   1      29.153 -14.542  -5.311  0.00  0.00     0.032 A 
ATOM     29  C   UNL d   1      28.692 -14.416  -6.619  0.00  0.00     0.019 A 
ATOM     30  C   UNL d   1      28.556 -13.156  -7.198  0.00  0.00     0.030 A 
BRANCH  28  31
ATOM     31  C   UNL d   1      29.257 -15.873  -4.626  0.00  0.00     0.251 C 
ATOM     32  O   UNL d   1      28.514 -16.124  -3.675  0.00  0.00    -0.268 OA
ATOM     33  N   UNL d   1      30.175 -16.790  -5.109  0.00  0.00    -0.354 N 
ATOM     34  H   UNL d   1      30.730 -16.571  -5.919  0.00  0.00     0.162 HD
BRANCH  33  35
ATOM     35  C   UNL d   1      30.353 -18.085  -4.465  0.00  0.00     0.155 C 
BRANCH  35  36
ATOM     36  C   UNL d   1      31.311 -19.094  -5.141  0.00  0.00     0.139 C 
ATOM     37  C   UNL d   1      30.656 -20.287  -5.821  0.00  0.00     0.035 C 
ATOM     38  C   UNL d   1      30.404 -19.786  -7.218  0.00  0.00     0.029 C 
ATOM     39  C   UNL d   1      31.601 -18.900  -7.470  0.00  0.00     0.168 C 
ATOM     40  O   UNL d   1      32.034 -18.408  -6.193  0.00  0.00    -0.384 OA
ENDBRANCH  35  36
ENDBRANCH  33  35
ENDBRANCH  28  31
ENDBRANCH   3  25
TORSDOF 9
ENDMDL
MODEL 7
REMARK VINA RESULT:    -7.283      4.355      9.630
REMARK INTER + INTRA:         -14.174
REMARK INTER:                  -9.967
REMARK INTRA:                  -4.207
REMARK CONF_INDEPENDENT:        2.685
REMARK UNBOUND:                -4.207
REMARK  9 active torsions:
REMARK  status: ('A' for Active; 'I' for Inactive)
REMARK    1  A    between atoms: C_2  and  C_3 
REMARK       I    between atoms: C_2  and  N_21 
REMARK    2  A    between atoms: C_3  and  N_4 
REMARK    3  A    between atoms: N_4  and  C_5 
REMARK    4  A    between atoms: C_10  and  C_11 
REMARK       I    between atoms: C_11  and  N_13 
REMARK    5  A    between atoms: N_13  and  C_14 
REMARK    6  A    between atoms: N_21  and  C_22 
REMARK    7  A    between atoms: C_25  and  C_26 
REMARK       I    between atoms: C_26  and  N_28 
REMARK    8  A    between atoms: N_28  and  C_29 
REMARK    9  A    between atoms: C_30  and  C_29 
ROOT
ATOM      1  O   UNL d   1      26.481  -7.458  -3.955  0.00  0.00    -0.271 OA
ATOM      2  C   UNL d   1      26.404  -8.508  -3.312  0.00  0.00     0.239 C 
ATOM      3  N   UNL d   1      27.343  -8.774  -2.326  0.00  0.00    -0.326 N 
ATOM      4  H   UNL d   1      27.966  -7.996  -2.130  0.00  0.00     0.169 HD
ENDROOT
BRANCH   2   5
ATOM      5  C   UNL d   1      25.230  -9.489  -3.479  0.00  0.00     0.223 C 
BRANCH   5   6
ATOM      6  N   UNL d   1      25.306 -10.325  -4.675  0.00  0.00    -0.381 N 
ATOM      7  H   UNL d   1      24.768 -10.032  -5.487  0.00  0.00     0.160 HD
BRANCH   6   8
ATOM      8  C   UNL d   1      26.017 -11.511  -4.674  0.00  0.00     0.029 A 
ATOM      9  C   UNL d   1      27.171 -11.667  -5.441  0.00  0.00     0.031 A 
ATOM     10  C   UNL d   1      27.901 -12.854  -5.433  0.00  0.00     0.027 A 
ATOM     11  C   UNL d   1      27.477 -13.952  -4.690  0.00  0.00     0.049 A 
ATOM     12 CL   UNL d   1      28.504 -15.340  -4.796  0.00  0.00    -0.083 Cl
ATOM     13  C   UNL d   1      26.299 -13.863  -3.943  0.00  0.00     0.055 A 
ATOM     14  C   UNL d   1      25.576 -12.631  -3.956  0.00  0.00     0.048 A 
BRANCH  13  15
ATOM     15  C   UNL d   1      25.739 -14.961  -3.098  0.00  0.00     0.253 C 
ATOM     16  O   UNL d   1      25.155 -15.870  -3.688  0.00  0.00    -0.268 OA
ATOM     17  N   UNL d   1      25.868 -14.894  -1.720  0.00  0.00    -0.352 N 
ATOM     18  H   UNL d   1      26.459 -14.165  -1.340  0.00  0.00     0.163 HD
BRANCH  17  19
ATOM     19  C   UNL d   1      25.404 -15.891  -0.745  0.00  0.00     0.084 C 
ATOM     20  C   UNL d   1      23.954 -16.319  -1.068  0.00  0.00     0.025 C 
ATOM     21  C   UNL d   1      23.457 -17.441  -0.150  0.00  0.00     0.002 C 
ATOM     22  C   UNL d   1      24.408 -18.634  -0.149  0.00  0.00     0.000 C 
ATOM     23  C   UNL d   1      25.808 -18.200   0.242  0.00  0.00     0.002 C 
ATOM     24  C   UNL d   1      26.316 -17.114  -0.679  0.00  0.00     0.025 C 
ENDBRANCH  17  19
ENDBRANCH  13  15
ENDBRANCH   6   8
ENDBRANCH   5   6
ENDBRANCH   2   5
BRANCH   3  25
ATOM     25  C   UNL d   1      27.498  -9.950  -1.567  0.00  0.00     0.034 A 
ATOM     26  C   UNL d   1      27.206  -9.964  -0.203  0.00  0.00     0.030 A 
ATOM     27  C   UNL d   1      27.385 -11.149   0.543  0.00  0.00     0.019 A 
ATOM     28  C   UNL d   1      27.801 -12.343  -0.076  0.00  0.00     0.032 A 
ATOM     29  C   UNL d   1      28.141 -12.297  -1.425  0.00  0.00     0.019 A 
ATOM     30  C   UNL d   1      28.022 -11.107  -2.141  0.00  0.00     0.030 A 
BRANCH  28  31
ATOM     31  C   UNL d   1      27.854 -13.615   0.719  0.00  0.00     0.251 C 
ATOM     32  O   UNL d   1      27.991 -14.689   0.132  0.00  0.00    -0.268 OA
ATOM     33  N   UNL d   1      27.774 -13.530   2.098  0.00  0.00    -0.354 N 
ATOM     34  H   UNL d   1      27.713 -12.632   2.548  0.00  0.00     0.162 HD
BRANCH  33  35
ATOM     35  C   UNL d   1      27.780 -14.730   2.925  0.00  0.00     0.155 C 
BRANCH  35  36
ATOM     36  C   UNL d   1      27.777 -14.541   4.461  0.00  0.00     0.139 C 
ATOM     37  C   UNL d   1      29.105 -14.774   5.167  0.00  0.00     0.035 C 
ATOM     38  C   UNL d   1      29.754 -13.418   5.128  0.00  0.00     0.029 C 
ATOM     39  C   UNL d   1      28.577 -12.485   5.286  0.00  0.00     0.168 C 
ATOM     40  O   UNL d   1      27.430 -13.164   4.753  0.00  0.00    -0.384 OA
ENDBRANCH  35  36
ENDBRANCH  33  35
ENDBRANCH  28  31
ENDBRANCH   3  25
TORSDOF 9
ENDMDL
MODEL 8
REMARK VINA RESULT:    -6.889      5.145      9.658
REMARK INTER + INTRA:         -14.670
REMARK INTER:                  -9.574
REMARK INTRA:                  -5.096
REMARK CONF_INDEPENDENT:        2.685
REMARK UNBOUND:                -5.096
REMARK  9 active torsions:
REMARK  status: ('A' for Active; 'I' for Inactive)
REMARK    1  A    between atoms: C_2  and  C_3 
REMARK       I    between atoms: C_2  and  N_21 
REMARK    2  A    between atoms: C_3  and  N_4 
REMARK    3  A    between atoms: N_4  and  C_5 
REMARK    4  A    between atoms: C_10  and  C_11 
REMARK       I    between atoms: C_11  and  N_13 
REMARK    5  A    between atoms: N_13  and  C_14 
REMARK    6  A    between atoms: N_21  and  C_22 
REMARK    7  A    between atoms: C_25  and  C_26 
REMARK       I    between atoms: C_26  and  N_28 
REMARK    8  A    between atoms: N_28  and  C_29 
REMARK    9  A    between atoms: C_30  and  C_29 
ROOT
ATOM      1  O   UNL d   1      32.323 -13.519  -9.172  0.00  0.00    -0.271 OA
ATOM      2  C   UNL d   1      31.634 -13.662  -8.158  0.00  0.00     0.239 C 
ATOM      3  N   UNL d   1      32.096 -14.468  -7.128  0.00  0.00    -0.326 N 
ATOM      4  H   UNL d   1      33.052 -14.787  -7.252  0.00  0.00     0.169 HD
ENDROOT
BRANCH   2   5
ATOM      5  C   UNL d   1      30.326 -12.881  -7.938  0.00  0.00     0.223 C 
BRANCH   5   6
ATOM      6  N   UNL d   1      29.194 -13.703  -7.518  0.00  0.00    -0.381 N 
ATOM      7  H   UNL d   1      28.902 -14.452  -8.142  0.00  0.00     0.160 HD
BRANCH   6   8
ATOM      8  C   UNL d   1      28.497 -13.421  -6.358  0.00  0.00     0.029 A 
ATOM      9  C   UNL d   1      28.654 -12.205  -5.693  0.00  0.00     0.031 A 
ATOM     10  C   UNL d   1      27.944 -11.908  -4.531  0.00  0.00     0.027 A 
ATOM     11  C   UNL d   1      27.078 -12.839  -3.962  0.00  0.00     0.049 A 
ATOM     12 CL   UNL d   1      26.279 -12.302  -2.525  0.00  0.00    -0.083 Cl
ATOM     13  C   UNL d   1      26.923 -14.091  -4.564  0.00  0.00     0.055 A 
ATOM     14  C   UNL d   1      27.651 -14.366  -5.761  0.00  0.00     0.048 A 
BRANCH  13  15
ATOM     15  C   UNL d   1      26.023 -15.173  -4.062  0.00  0.00     0.253 C 
ATOM     16  O   UNL d   1      25.155 -15.575  -4.838  0.00  0.00    -0.268 OA
ATOM     17  N   UNL d   1      26.178 -15.644  -2.769  0.00  0.00    -0.352 N 
ATOM     18  H   UNL d   1      26.988 -15.329  -2.250  0.00  0.00     0.163 HD
BRANCH  17  19
ATOM     19  C   UNL d   1      25.404 -16.715  -2.125  0.00  0.00     0.084 C 
ATOM     20  C   UNL d   1      26.204 -17.321  -0.950  0.00  0.00     0.025 C 
ATOM     21  C   UNL d   1      25.400 -18.367  -0.171  0.00  0.00     0.002 C 
ATOM     22  C   UNL d   1      24.055 -17.816   0.292  0.00  0.00     0.000 C 
ATOM     23  C   UNL d   1      23.257 -17.294  -0.890  0.00  0.00     0.002 C 
ATOM     24  C   UNL d   1      24.034 -16.240  -1.645  0.00  0.00     0.025 C 
ENDBRANCH  17  19
ENDBRANCH  13  15
ENDBRANCH   6   8
ENDBRANCH   5   6
ENDBRANCH   2   5
BRANCH   3  25
ATOM     25  C   UNL d   1      31.421 -14.848  -5.952  0.00  0.00     0.034 A 
ATOM     26  C   UNL d   1      30.675 -16.027  -5.906  0.00  0.00     0.030 A 
ATOM     27  C   UNL d   1      29.992 -16.380  -4.723  0.00  0.00     0.019 A 
ATOM     28  C   UNL d   1      30.092 -15.594  -3.560  0.00  0.00     0.032 A 
ATOM     29  C   UNL d   1      30.794 -14.393  -3.641  0.00  0.00     0.019 A 
ATOM     30  C   UNL d   1      31.414 -14.020  -4.832  0.00  0.00     0.030 A 
BRANCH  28  31
ATOM     31  C   UNL d   1      29.462 -16.066  -2.283  0.00  0.00     0.251 C 
ATOM     32  O   UNL d   1      28.546 -16.888  -2.328  0.00  0.00    -0.268 OA
ATOM     33  N   UNL d   1      29.957 -15.575  -1.087  0.00  0.00    -0.354 N 
ATOM     34  H   UNL d   1      30.740 -14.943  -1.084  0.00  0.00     0.162 HD
BRANCH  33  35
ATOM     35  C   UNL d   1      29.364 -15.963   0.187  0.00  0.00     0.155 C 
BRANCH  35  36
ATOM     36  C   UNL d   1      27.963 -15.400   0.524  0.00  0.00     0.139 C 
ATOM     37  C   UNL d   1      27.813 -14.752   1.892  0.00  0.00     0.035 C 
ATOM     38  C   UNL d   1      28.187 -13.317   1.632  0.00  0.00     0.029 C 
ATOM     39  C   UNL d   1      27.644 -13.084   0.242  0.00  0.00     0.168 C 
ATOM     40  O   UNL d   1      27.647 -14.354  -0.428  0.00  0.00    -0.384 OA
ENDBRANCH  35  36
ENDBRANCH  33  35
ENDBRANCH  28  31
ENDBRANCH   3  25
TORSDOF 9
ENDMDL
