MODEL 1
REMARK VINA RESULT:    -9.373      0.000      0.000
REMARK INTER + INTRA:         -14.142
REMARK INTER:                 -11.760
REMARK INTRA:                  -2.382
REMARK CONF_INDEPENDENT:        2.386
REMARK UNBOUND:                -2.382
REMARK  8 active torsions:
REMARK  status: ('A' for Active; 'I' for Inactive)
REMARK    1  A    between atoms: C_2  and  C_3 
REMARK       I    between atoms: C_2  and  N_17 
REMARK    2  A    between atoms: C_3  and  S_4 
REMARK    3  A    between atoms: C_5  and  S_4 
REMARK    4  A    between atoms: C_8  and  C_9 
REMARK    5  A    between atoms: N_17  and  CA_18 
REMARK    6  A    between atoms: CA_18  and  CB_19 
REMARK    7  A    between atoms: CA_18  and  C_29 
REMARK    8  A    between atoms: CB_19  and  CG_20 
ROOT
ATOM      1  O   UNK d   0      26.289 -12.903   0.085  0.00  0.00    -0.273 OA
ATOM      2  C   UNK d   0      27.114 -13.266  -0.799  0.00  0.00     0.227 C 
ATOM      3  N   TRP d   1      26.613 -13.831  -1.975  0.00  0.00    -0.346 N 
ATOM      4  H   TRP d   1      25.600 -13.801  -2.078  0.00  0.00     0.163 HD
ENDROOT
BRANCH   2   5
ATOM      5  C   UNK d   0      28.627 -13.203  -0.522  0.00  0.00     0.180 C 
BRANCH   5   6
ATOM      6  S   UNK d   0      29.373 -13.428   1.319  0.00  0.00    -0.112 SA
BRANCH   6   7
ATOM      7  C   UNK d   0      28.008 -13.704   2.873  0.00  0.00     0.275 C 
ATOM      8  N   UNK d   0      27.784 -15.121   3.100  0.00  0.00    -0.222 NA
ATOM      9  N   UNK d   0      28.266 -15.413   4.733  0.00  0.00    -0.226 NA
ATOM     10  H   UNK d   0      28.420 -15.587   2.459  0.00  0.00     0.144 HD
ATOM     11  C   UNK d   0      28.641 -14.089   5.219  0.00  0.00     0.245 C 
ATOM     12  H   UNK d   0      29.170 -15.889   4.628  0.00  0.00     0.143 HD
ATOM     13  O   UNK d   0      28.202 -13.279   4.190  0.00  0.00    -0.336 OA
BRANCH  11  14
ATOM     14  C   UNK d   0      28.837 -13.423   6.654  0.00  0.00    -0.013 C 
ATOM     15  C   UNK d   0      28.573 -12.044   6.743  0.00  0.00     0.011 C 
ATOM     16  C   UNK d   0      28.682 -11.314   7.937  0.00  0.00     0.002 C 
ATOM     17  C   UNK d   0      28.983 -11.953   9.133  0.00  0.00     0.024 C 
ATOM     18  C   UNK d   0      29.019 -13.335   9.147  0.00  0.00     0.034 C 
ATOM     19 CL   UNK d   0      29.284 -14.155  10.649  0.00  0.00    -0.084 Cl
ATOM     20  C   UNK d   0      28.902 -14.059   7.939  0.00  0.00     0.035 C 
ENDBRANCH  11  14
ENDBRANCH   6   7
ENDBRANCH   5   6
ENDBRANCH   2   5
BRANCH   3  21
ATOM     21  CA  TRP d   1      27.201 -14.465  -3.250  0.00  0.00     0.190 C 
BRANCH  21  22
ATOM     22  CB  TRP d   1      27.952 -15.804  -3.082  0.00  0.00     0.077 C 
BRANCH  22  23
ATOM     23  CG  TRP d   1      27.728 -16.292  -1.727  0.00  0.00    -0.028 C 
ATOM     24  CD1 TRP d   1      28.767 -16.690  -0.922  0.00  0.00     0.096 C 
ATOM     25  NE1 TRP d   1      28.127 -17.570  -0.117  0.00  0.00    -0.365 N 
ATOM     26  CE2 TRP d   1      26.698 -17.519  -0.131  0.00  0.00     0.042 A 
ATOM     27  HE1 TRP d   1      28.674 -18.351   0.241  0.00  0.00     0.165 HD
ATOM     28  CZ2 TRP d   1      25.566 -18.196   0.561  0.00  0.00     0.030 A 
ATOM     29  CD2 TRP d   1      26.440 -16.749  -1.220  0.00  0.00    -0.002 A 
ATOM     30  CH2 TRP d   1      24.278 -18.248   0.159  0.00  0.00     0.002 A 
ATOM     31  CZ3 TRP d   1      24.064 -17.593  -1.002  0.00  0.00     0.001 A 
ATOM     32  CE3 TRP d   1      25.094 -16.841  -1.656  0.00  0.00     0.014 A 
ENDBRANCH  22  23
ENDBRANCH  21  22
BRANCH  21  33
ATOM     33  C   TRP d   1      26.172 -14.929  -4.325  0.00  0.00     0.197 C 
ATOM     34  O   TRP d   1      24.979 -14.583  -4.088  0.00  0.00    -0.646 OA
ATOM     35  OXT TRP d   1      26.640 -15.579  -5.306  0.00  0.00    -0.646 OA
ENDBRANCH  21  33
ENDBRANCH   3  21
TORSDOF 8
ENDMDL
MODEL 2
REMARK VINA RESULT:    -8.359      5.846      8.105
REMARK INTER + INTRA:         -14.545
REMARK INTER:                 -10.746
REMARK INTRA:                  -3.799
REMARK CONF_INDEPENDENT:        2.386
REMARK UNBOUND:                -3.799
REMARK  8 active torsions:
REMARK  status: ('A' for Active; 'I' for Inactive)
REMARK    1  A    between atoms: C_2  and  C_3 
REMARK       I    between atoms: C_2  and  N_17 
REMARK    2  A    between atoms: C_3  and  S_4 
REMARK    3  A    between atoms: C_5  and  S_4 
REMARK    4  A    between atoms: C_8  and  C_9 
REMARK    5  A    between atoms: N_17  and  CA_18 
REMARK    6  A    between atoms: CA_18  and  CB_19 
REMARK    7  A    between atoms: CA_18  and  C_29 
REMARK    8  A    between atoms: CB_19  and  CG_20 
ROOT
ATOM      1  O   UNK d   0      28.537 -14.001  -1.063  0.00  0.00    -0.273 OA
ATOM      2  C   UNK d   0      28.603 -13.762  -2.301  0.00  0.00     0.227 C 
ATOM      3  N   TRP d   1      28.996 -14.798  -3.152  0.00  0.00    -0.346 N 
ATOM      4  H   TRP d   1      29.089 -15.713  -2.714  0.00  0.00     0.163 HD
ENDROOT
BRANCH   2   5
ATOM      5  C   UNK d   0      28.382 -12.333  -2.828  0.00  0.00     0.180 C 
BRANCH   5   6
ATOM      6  S   UNK d   0      26.613 -11.733  -3.543  0.00  0.00    -0.112 SA
BRANCH   6   7
ATOM      7  C   UNK d   0      25.124 -13.182  -3.736  0.00  0.00     0.275 C 
ATOM      8  N   UNK d   0      25.313 -13.939  -4.962  0.00  0.00    -0.222 NA
ATOM      9  N   UNK d   0      25.530 -15.580  -4.468  0.00  0.00    -0.226 NA
ATOM     10  H   UNK d   0      26.177 -13.576  -5.356  0.00  0.00     0.144 HD
ATOM     11  C   UNK d   0      25.369 -15.523  -3.018  0.00  0.00     0.245 C 
ATOM     12  H   UNK d   0      26.539 -15.728  -4.586  0.00  0.00     0.143 HD
ATOM     13  O   UNK d   0      24.911 -14.232  -2.839  0.00  0.00    -0.336 OA
BRANCH  11  14
ATOM     14  C   UNK d   0      25.059 -16.585  -1.871  0.00  0.00    -0.013 C 
ATOM     15  C   UNK d   0      26.030 -16.712  -0.859  0.00  0.00     0.011 C 
ATOM     16  C   UNK d   0      25.899 -17.589   0.228  0.00  0.00     0.002 C 
ATOM     17  C   UNK d   0      24.738 -18.329   0.405  0.00  0.00     0.024 C 
ATOM     18  C   UNK d   0      23.661 -18.070  -0.423  0.00  0.00     0.034 C 
ATOM     19 CL   UNK d   0      22.169 -18.904  -0.149  0.00  0.00    -0.084 Cl
ATOM     20  C   UNK d   0      23.804 -17.180  -1.511  0.00  0.00     0.035 C 
ENDBRANCH  11  14
ENDBRANCH   6   7
ENDBRANCH   5   6
ENDBRANCH   2   5
BRANCH   3  21
ATOM     21  CA  TRP d   1      29.282 -14.961  -4.657  0.00  0.00     0.190 C 
BRANCH  21  22
ATOM     22  CB  TRP d   1      29.278 -16.401  -5.216  0.00  0.00     0.077 C 
BRANCH  22  23
ATOM     23  CG  TRP d   1      30.404 -16.544  -6.131  0.00  0.00    -0.028 C 
ATOM     24  CD1 TRP d   1      30.981 -15.457  -6.740  0.00  0.00     0.096 C 
ATOM     25  NE1 TRP d   1      31.478 -16.039  -7.856  0.00  0.00    -0.365 N 
ATOM     26  CE2 TRP d   1      31.549 -17.468  -7.848  0.00  0.00     0.042 A 
ATOM     27  HE1 TRP d   1      31.531 -15.463  -8.694  0.00  0.00     0.165 HD
ATOM     28  CZ2 TRP d   1      32.030 -18.551  -8.750  0.00  0.00     0.030 A 
ATOM     29  CD2 TRP d   1      30.790 -17.795  -6.770  0.00  0.00    -0.002 A 
ATOM     30  CH2 TRP d   1      31.695 -19.858  -8.707  0.00  0.00     0.002 A 
ATOM     31  CZ3 TRP d   1      30.828 -20.144  -7.712  0.00  0.00     0.001 A 
ATOM     32  CE3 TRP d   1      30.413 -19.162  -6.754  0.00  0.00     0.014 A 
ENDBRANCH  22  23
ENDBRANCH  21  22
BRANCH  21  33
ATOM     33  C   TRP d   1      28.227 -14.351  -5.629  0.00  0.00     0.197 C 
ATOM     34  O   TRP d   1      27.442 -15.198  -6.145  0.00  0.00    -0.646 OA
ATOM     35  OXT TRP d   1      28.265 -13.094  -5.781  0.00  0.00    -0.646 OA
ENDBRANCH  21  33
ENDBRANCH   3  21
TORSDOF 8
ENDMDL
MODEL 3
REMARK VINA RESULT:    -8.294      6.825      9.289
REMARK INTER + INTRA:         -14.006
REMARK INTER:                 -10.681
REMARK INTRA:                  -3.325
REMARK CONF_INDEPENDENT:        2.386
REMARK UNBOUND:                -3.325
REMARK  8 active torsions:
REMARK  status: ('A' for Active; 'I' for Inactive)
REMARK    1  A    between atoms: C_2  and  C_3 
REMARK       I    between atoms: C_2  and  N_17 
REMARK    2  A    between atoms: C_3  and  S_4 
REMARK    3  A    between atoms: C_5  and  S_4 
REMARK    4  A    between atoms: C_8  and  C_9 
REMARK    5  A    between atoms: N_17  and  CA_18 
REMARK    6  A    between atoms: CA_18  and  CB_19 
REMARK    7  A    between atoms: CA_18  and  C_29 
REMARK    8  A    between atoms: CB_19  and  CG_20 
ROOT
ATOM      1  O   UNK d   0      25.634 -10.563  -6.528  0.00  0.00    -0.273 OA
ATOM      2  C   UNK d   0      26.327 -11.488  -6.019  0.00  0.00     0.227 C 
ATOM      3  N   TRP d   1      25.685 -12.410  -5.188  0.00  0.00    -0.346 N 
ATOM      4  H   TRP d   1      24.671 -12.331  -5.147  0.00  0.00     0.163 HD
ENDROOT
BRANCH   2   5
ATOM      5  C   UNK d   0      27.854 -11.511  -6.212  0.00  0.00     0.180 C 
BRANCH   5   6
ATOM      6  S   UNK d   0      28.793 -13.081  -7.018  0.00  0.00    -0.112 SA
BRANCH   6   7
ATOM      7  C   UNK d   0      30.031 -14.197  -5.762  0.00  0.00     0.275 C 
ATOM      8  N   UNK d   0      29.394 -14.394  -4.472  0.00  0.00    -0.222 NA
ATOM      9  N   UNK d   0      29.243 -16.105  -4.282  0.00  0.00    -0.226 NA
ATOM     10  H   UNK d   0      28.475 -13.972  -4.573  0.00  0.00     0.144 HD
ATOM     11  C   UNK d   0      29.881 -16.637  -5.482  0.00  0.00     0.245 C 
ATOM     12  H   UNK d   0      28.245 -16.272  -4.454  0.00  0.00     0.143 HD
ATOM     13  O   UNK d   0      30.459 -15.502  -6.018  0.00  0.00    -0.336 OA
BRANCH  11  14
ATOM     14  C   UNK d   0      30.482 -18.049  -5.914  0.00  0.00    -0.013 C 
ATOM     15  C   UNK d   0      30.410 -19.078  -4.956  0.00  0.00     0.011 C 
ATOM     16  C   UNK d   0      30.879 -20.380  -5.187  0.00  0.00     0.002 C 
ATOM     17  C   UNK d   0      31.371 -20.745  -6.432  0.00  0.00     0.024 C 
ATOM     18  C   UNK d   0      31.247 -19.846  -7.476  0.00  0.00     0.034 C 
ATOM     19 CL   UNK d   0      31.754 -20.323  -9.062  0.00  0.00    -0.084 Cl
ATOM     20  C   UNK d   0      30.768 -18.540  -7.232  0.00  0.00     0.035 C 
ENDBRANCH  11  14
ENDBRANCH   6   7
ENDBRANCH   5   6
ENDBRANCH   2   5
BRANCH   3  21
ATOM     21  CA  TRP d   1      26.102 -13.612  -4.319  0.00  0.00     0.190 C 
BRANCH  21  22
ATOM     22  CB  TRP d   1      25.164 -13.988  -3.151  0.00  0.00     0.077 C 
BRANCH  22  23
ATOM     23  CG  TRP d   1      25.908 -14.818  -2.211  0.00  0.00    -0.028 C 
ATOM     24  CD1 TRP d   1      27.281 -14.844  -2.200  0.00  0.00     0.096 C 
ATOM     25  NE1 TRP d   1      27.496 -16.080  -1.693  0.00  0.00    -0.365 N 
ATOM     26  CE2 TRP d   1      26.375 -16.715  -1.072  0.00  0.00     0.042 A 
ATOM     27  HE1 TRP d   1      28.340 -16.563  -1.996  0.00  0.00     0.165 HD
ATOM     28  CZ2 TRP d   1      26.091 -17.987  -0.352  0.00  0.00     0.030 A 
ATOM     29  CD2 TRP d   1      25.336 -15.936  -1.471  0.00  0.00    -0.002 A 
ATOM     30  CH2 TRP d   1      24.884 -18.554  -0.143  0.00  0.00     0.002 A 
ATOM     31  CZ3 TRP d   1      23.869 -17.836  -0.668  0.00  0.00     0.001 A 
ATOM     32  CE3 TRP d   1      24.075 -16.557  -1.281  0.00  0.00     0.014 A 
ENDBRANCH  22  23
ENDBRANCH  21  22
BRANCH  21  33
ATOM     33  C   TRP d   1      26.127 -14.999  -5.029  0.00  0.00     0.197 C 
ATOM     34  O   TRP d   1      27.138 -15.190  -5.765  0.00  0.00    -0.646 OA
ATOM     35  OXT TRP d   1      25.155 -15.772  -4.784  0.00  0.00    -0.646 OA
ENDBRANCH  21  33
ENDBRANCH   3  21
TORSDOF 8
ENDMDL
MODEL 4
REMARK VINA RESULT:    -8.069      6.198      7.938
REMARK INTER + INTRA:         -14.140
REMARK INTER:                 -10.455
REMARK INTRA:                  -3.685
REMARK CONF_INDEPENDENT:        2.386
REMARK UNBOUND:                -3.685
REMARK  8 active torsions:
REMARK  status: ('A' for Active; 'I' for Inactive)
REMARK    1  A    between atoms: C_2  and  C_3 
REMARK       I    between atoms: C_2  and  N_17 
REMARK    2  A    between atoms: C_3  and  S_4 
REMARK    3  A    between atoms: C_5  and  S_4 
REMARK    4  A    between atoms: C_8  and  C_9 
REMARK    5  A    between atoms: N_17  and  CA_18 
REMARK    6  A    between atoms: CA_18  and  CB_19 
REMARK    7  A    between atoms: CA_18  and  C_29 
REMARK    8  A    between atoms: CB_19  and  CG_20 
ROOT
ATOM      1  O   UNK d   0      30.997 -11.516  -4.588  0.00  0.00    -0.273 OA
ATOM      2  C   UNK d   0      30.174 -12.473  -4.540  0.00  0.00     0.227 C 
ATOM      3  N   TRP d   1      30.122 -13.352  -5.624  0.00  0.00    -0.346 N 
ATOM      4  H   TRP d   1      30.843 -13.218  -6.331  0.00  0.00     0.163 HD
ENDROOT
BRANCH   2   5
ATOM      5  C   UNK d   0      29.175 -12.579  -3.374  0.00  0.00     0.180 C 
BRANCH   5   6
ATOM      6  S   UNK d   0      27.549 -11.419  -3.268  0.00  0.00    -0.112 SA
BRANCH   6   7
ATOM      7  C   UNK d   0      25.710 -12.376  -3.030  0.00  0.00     0.275 C 
ATOM      8  N   UNK d   0      25.155 -12.729  -4.325  0.00  0.00    -0.222 NA
ATOM      9  N   UNK d   0      24.986 -14.448  -4.308  0.00  0.00    -0.226 NA
ATOM     10  H   UNK d   0      25.869 -12.455  -4.994  0.00  0.00     0.144 HD
ATOM     11  C   UNK d   0      25.420 -14.819  -2.965  0.00  0.00     0.245 C 
ATOM     12  H   UNK d   0      25.763 -14.765  -4.901  0.00  0.00     0.143 HD
ATOM     13  O   UNK d   0      25.522 -13.584  -2.354  0.00  0.00    -0.336 OA
BRANCH  11  14
ATOM     14  C   UNK d   0      25.240 -16.097  -2.029  0.00  0.00    -0.013 C 
ATOM     15  C   UNK d   0      26.324 -16.414  -1.190  0.00  0.00     0.011 C 
ATOM     16  C   UNK d   0      26.316 -17.496  -0.296  0.00  0.00     0.002 C 
ATOM     17  C   UNK d   0      25.176 -18.272  -0.134  0.00  0.00     0.024 C 
ATOM     18  C   UNK d   0      24.010 -17.863  -0.754  0.00  0.00     0.034 C 
ATOM     19 CL   UNK d   0      22.552 -18.755  -0.477  0.00  0.00    -0.084 Cl
ATOM     20  C   UNK d   0      24.030 -16.769  -1.647  0.00  0.00     0.035 C 
ENDBRANCH  11  14
ENDBRANCH   6   7
ENDBRANCH   5   6
ENDBRANCH   2   5
BRANCH   3  21
ATOM     21  CA  TRP d   1      29.271 -14.567  -6.039  0.00  0.00     0.190 C 
BRANCH  21  22
ATOM     22  CB  TRP d   1      29.529 -15.890  -5.285  0.00  0.00     0.077 C 
BRANCH  22  23
ATOM     23  CG  TRP d   1      30.490 -16.676  -6.049  0.00  0.00    -0.028 C 
ATOM     24  CD1 TRP d   1      30.960 -16.255  -7.269  0.00  0.00     0.096 C 
ATOM     25  NE1 TRP d   1      31.267 -17.446  -7.835  0.00  0.00    -0.365 N 
ATOM     26  CE2 TRP d   1      31.338 -18.568  -6.952  0.00  0.00     0.042 A 
ATOM     27  HE1 TRP d   1      31.181 -17.512  -8.848  0.00  0.00     0.165 HD
ATOM     28  CZ2 TRP d   1      31.665 -20.019  -7.041  0.00  0.00     0.030 A 
ATOM     29  CD2 TRP d   1      30.766 -18.088  -5.817  0.00  0.00    -0.002 A 
ATOM     30  CH2 TRP d   1      31.341 -20.984  -6.154  0.00  0.00     0.002 A 
ATOM     31  CZ3 TRP d   1      30.649 -20.512  -5.095  0.00  0.00     0.001 A 
ATOM     32  CE3 TRP d   1      30.397 -19.113  -4.909  0.00  0.00     0.014 A 
ENDBRANCH  22  23
ENDBRANCH  21  22
BRANCH  21  33
ATOM     33  C   TRP d   1      27.740 -14.460  -5.767  0.00  0.00     0.197 C 
ATOM     34  O   TRP d   1      27.161 -15.573  -5.602  0.00  0.00    -0.646 OA
ATOM     35  OXT TRP d   1      27.257 -13.291  -5.729  0.00  0.00    -0.646 OA
ENDBRANCH  21  33
ENDBRANCH   3  21
TORSDOF 8
ENDMDL
MODEL 5
REMARK VINA RESULT:    -7.952      4.782      7.020
REMARK INTER + INTRA:         -14.918
REMARK INTER:                 -10.338
REMARK INTRA:                  -4.580
REMARK CONF_INDEPENDENT:        2.386
REMARK UNBOUND:                -4.580
REMARK  8 active torsions:
REMARK  status: ('A' for Active; 'I' for Inactive)
REMARK    1  A    between atoms: C_2  and  C_3 
REMARK       I    between atoms: C_2  and  N_17 
REMARK    2  A    between atoms: C_3  and  S_4 
REMARK    3  A    between atoms: C_5  and  S_4 
REMARK    4  A    between atoms: C_8  and  C_9 
REMARK    5  A    between atoms: N_17  and  CA_18 
REMARK    6  A    between atoms: CA_18  and  CB_19 
REMARK    7  A    between atoms: CA_18  and  C_29 
REMARK    8  A    between atoms: CB_19  and  CG_20 
ROOT
ATOM      1  O   UNK d   0      30.013 -11.496  -3.209  0.00  0.00    -0.273 OA
ATOM      2  C   UNK d   0      29.388 -12.445  -3.759  0.00  0.00     0.227 C 
ATOM      3  N   TRP d   1      29.985 -13.708  -3.768  0.00  0.00    -0.346 N 
ATOM      4  H   TRP d   1      30.840 -13.792  -3.221  0.00  0.00     0.163 HD
ENDROOT
BRANCH   2   5
ATOM      5  C   UNK d   0      28.070 -12.177  -4.507  0.00  0.00     0.180 C 
BRANCH   5   6
ATOM      6  S   UNK d   0      26.324 -12.014  -3.545  0.00  0.00    -0.112 SA
BRANCH   6   7
ATOM      7  C   UNK d   0      24.934 -13.544  -3.831  0.00  0.00     0.275 C 
ATOM      8  N   UNK d   0      25.291 -14.339  -4.993  0.00  0.00    -0.222 NA
ATOM      9  N   UNK d   0      25.528 -15.945  -4.404  0.00  0.00    -0.226 NA
ATOM     10  H   UNK d   0      26.175 -13.949  -5.308  0.00  0.00     0.144 HD
ATOM     11  C   UNK d   0      25.206 -15.838  -2.984  0.00  0.00     0.245 C 
ATOM     12  H   UNK d   0      26.549 -16.047  -4.405  0.00  0.00     0.143 HD
ATOM     13  O   UNK d   0      24.672 -14.566  -2.915  0.00  0.00    -0.336 OA
BRANCH  11  14
ATOM     14  C   UNK d   0      24.821 -16.867  -1.829  0.00  0.00    -0.013 C 
ATOM     15  C   UNK d   0      25.759 -17.018  -0.790  0.00  0.00     0.011 C 
ATOM     16  C   UNK d   0      25.563 -17.871   0.307  0.00  0.00     0.002 C 
ATOM     17  C   UNK d   0      24.367 -18.558   0.465  0.00  0.00     0.024 C 
ATOM     18  C   UNK d   0      23.324 -18.267  -0.395  0.00  0.00     0.034 C 
ATOM     19 CL   UNK d   0      21.791 -19.032  -0.149  0.00  0.00    -0.084 Cl
ATOM     20  C   UNK d   0      23.533 -17.402  -1.493  0.00  0.00     0.035 C 
ENDBRANCH  11  14
ENDBRANCH   6   7
ENDBRANCH   5   6
ENDBRANCH   2   5
BRANCH   3  21
ATOM     21  CA  TRP d   1      29.660 -15.095  -4.356  0.00  0.00     0.190 C 
BRANCH  21  22
ATOM     22  CB  TRP d   1      28.639 -15.959  -3.583  0.00  0.00     0.077 C 
BRANCH  22  23
ATOM     23  CG  TRP d   1      29.000 -15.946  -2.170  0.00  0.00    -0.028 C 
ATOM     24  CD1 TRP d   1      29.717 -16.969  -1.599  0.00  0.00     0.096 C 
ATOM     25  NE1 TRP d   1      29.299 -16.871  -0.316  0.00  0.00    -0.365 N 
ATOM     26  CE2 TRP d   1      28.625 -15.661   0.042  0.00  0.00     0.042 A 
ATOM     27  HE1 TRP d   1      29.267 -17.732   0.227  0.00  0.00     0.165 HD
ATOM     28  CZ2 TRP d   1      28.033 -15.051   1.264  0.00  0.00     0.030 A 
ATOM     29  CD2 TRP d   1      28.367 -15.099  -1.168  0.00  0.00    -0.002 A 
ATOM     30  CH2 TRP d   1      27.135 -14.045   1.322  0.00  0.00     0.002 A 
ATOM     31  CZ3 TRP d   1      26.782 -13.588   0.102  0.00  0.00     0.001 A 
ATOM     32  CE3 TRP d   1      27.395 -14.068  -1.102  0.00  0.00     0.014 A 
ENDBRANCH  22  23
ENDBRANCH  21  22
BRANCH  21  33
ATOM     33  C   TRP d   1      28.944 -15.105  -5.741  0.00  0.00     0.197 C 
ATOM     34  O   TRP d   1      27.718 -15.412  -5.691  0.00  0.00    -0.646 OA
ATOM     35  OXT TRP d   1      29.655 -14.798  -6.742  0.00  0.00    -0.646 OA
ENDBRANCH  21  33
ENDBRANCH   3  21
TORSDOF 8
ENDMDL
MODEL 6
REMARK VINA RESULT:    -7.803      1.839      2.479
REMARK INTER + INTRA:         -13.811
REMARK INTER:                 -10.189
REMARK INTRA:                  -3.621
REMARK CONF_INDEPENDENT:        2.386
REMARK UNBOUND:                -3.621
REMARK  8 active torsions:
REMARK  status: ('A' for Active; 'I' for Inactive)
REMARK    1  A    between atoms: C_2  and  C_3 
REMARK       I    between atoms: C_2  and  N_17 
REMARK    2  A    between atoms: C_3  and  S_4 
REMARK    3  A    between atoms: C_5  and  S_4 
REMARK    4  A    between atoms: C_8  and  C_9 
REMARK    5  A    between atoms: N_17  and  CA_18 
REMARK    6  A    between atoms: CA_18  and  CB_19 
REMARK    7  A    between atoms: CA_18  and  C_29 
REMARK    8  A    between atoms: CB_19  and  CG_20 
ROOT
ATOM      1  O   UNK d   0      26.582 -12.557  -0.426  0.00  0.00    -0.273 OA
ATOM      2  C   UNK d   0      27.325 -12.867  -1.398  0.00  0.00     0.227 C 
ATOM      3  N   TRP d   1      26.868 -13.838  -2.294  0.00  0.00    -0.346 N 
ATOM      4  H   TRP d   1      25.907 -14.143  -2.155  0.00  0.00     0.163 HD
ENDROOT
BRANCH   2   5
ATOM      5  C   UNK d   0      28.744 -12.280  -1.508  0.00  0.00     0.180 C 
BRANCH   5   6
ATOM      6  S   UNK d   0      29.281 -10.624  -0.524  0.00  0.00    -0.112 SA
BRANCH   6   7
ATOM      7  C   UNK d   0      28.359 -10.268   1.314  0.00  0.00     0.275 C 
ATOM      8  N   UNK d   0      26.915 -10.250   1.158  0.00  0.00    -0.222 NA
ATOM      9  N   UNK d   0      26.321 -11.517   2.172  0.00  0.00    -0.226 NA
ATOM     10  H   UNK d   0      26.760 -10.484   0.181  0.00  0.00     0.144 HD
ATOM     11  C   UNK d   0      27.527 -12.035   2.810  0.00  0.00     0.245 C 
ATOM     12  H   UNK d   0      26.074 -12.256   1.503  0.00  0.00     0.143 HD
ATOM     13  O   UNK d   0      28.467 -11.096   2.434  0.00  0.00    -0.336 OA
BRANCH  11  14
ATOM     14  C   UNK d   0      27.835 -12.916   4.103  0.00  0.00    -0.013 C 
ATOM     15  C   UNK d   0      28.078 -14.285   3.882  0.00  0.00     0.011 C 
ATOM     16  C   UNK d   0      28.379 -15.189   4.911  0.00  0.00     0.002 C 
ATOM     17  C   UNK d   0      28.539 -14.748   6.218  0.00  0.00     0.024 C 
ATOM     18  C   UNK d   0      28.546 -13.385   6.454  0.00  0.00     0.034 C 
ATOM     19 CL   UNK d   0      28.853 -12.810   8.058  0.00  0.00    -0.084 Cl
ATOM     20  C   UNK d   0      28.247 -12.484   5.408  0.00  0.00     0.035 C 
ENDBRANCH  11  14
ENDBRANCH   6   7
ENDBRANCH   5   6
ENDBRANCH   2   5
BRANCH   3  21
ATOM     21  CA  TRP d   1      27.424 -14.567  -3.531  0.00  0.00     0.190 C 
BRANCH  21  22
ATOM     22  CB  TRP d   1      28.145 -15.911  -3.285  0.00  0.00     0.077 C 
BRANCH  22  23
ATOM     23  CG  TRP d   1      27.954 -16.288  -1.890  0.00  0.00    -0.028 C 
ATOM     24  CD1 TRP d   1      29.012 -16.620  -1.080  0.00  0.00     0.096 C 
ATOM     25  NE1 TRP d   1      28.393 -17.433  -0.192  0.00  0.00    -0.365 N 
ATOM     26  CE2 TRP d   1      26.963 -17.382  -0.176  0.00  0.00     0.042 A 
ATOM     27  HE1 TRP d   1      28.949 -18.182   0.215  0.00  0.00     0.165 HD
ATOM     28  CZ2 TRP d   1      25.849 -18.001   0.594  0.00  0.00     0.030 A 
ATOM     29  CD2 TRP d   1      26.679 -16.703  -1.318  0.00  0.00    -0.002 A 
ATOM     30  CH2 TRP d   1      24.552 -18.086   0.228  0.00  0.00     0.002 A 
ATOM     31  CZ3 TRP d   1      24.310 -17.526  -0.977  0.00  0.00     0.001 A 
ATOM     32  CE3 TRP d   1      25.323 -16.829  -1.713  0.00  0.00     0.014 A 
ENDBRANCH  22  23
ENDBRANCH  21  22
BRANCH  21  33
ATOM     33  C   TRP d   1      26.370 -15.076  -4.561  0.00  0.00     0.197 C 
ATOM     34  O   TRP d   1      25.168 -14.914  -4.200  0.00  0.00    -0.646 OA
ATOM     35  OXT TRP d   1      26.826 -15.575  -5.631  0.00  0.00    -0.646 OA
ENDBRANCH  21  33
ENDBRANCH   3  21
TORSDOF 8
ENDMDL
MODEL 7
REMARK VINA RESULT:    -7.626      6.027      7.578
REMARK INTER + INTRA:         -13.920
REMARK INTER:                 -10.013
REMARK INTRA:                  -3.907
REMARK CONF_INDEPENDENT:        2.386
REMARK UNBOUND:                -3.907
REMARK  8 active torsions:
REMARK  status: ('A' for Active; 'I' for Inactive)
REMARK    1  A    between atoms: C_2  and  C_3 
REMARK       I    between atoms: C_2  and  N_17 
REMARK    2  A    between atoms: C_3  and  S_4 
REMARK    3  A    between atoms: C_5  and  S_4 
REMARK    4  A    between atoms: C_8  and  C_9 
REMARK    5  A    between atoms: N_17  and  CA_18 
REMARK    6  A    between atoms: CA_18  and  CB_19 
REMARK    7  A    between atoms: CA_18  and  C_29 
REMARK    8  A    between atoms: CB_19  and  CG_20 
ROOT
ATOM      1  O   UNK d   0      29.963 -10.961  -2.994  0.00  0.00    -0.273 OA
ATOM      2  C   UNK d   0      29.273 -11.994  -3.221  0.00  0.00     0.227 C 
ATOM      3  N   TRP d   1      29.767 -12.930  -4.132  0.00  0.00    -0.346 N 
ATOM      4  H   TRP d   1      30.716 -12.760  -4.462  0.00  0.00     0.163 HD
ENDROOT
BRANCH   2   5
ATOM      5  C   UNK d   0      27.870 -12.140  -2.604  0.00  0.00     0.180 C 
BRANCH   5   6
ATOM      6  S   UNK d   0      26.209 -11.804  -3.665  0.00  0.00    -0.112 SA
BRANCH   6   7
ATOM      7  C   UNK d   0      24.868 -13.390  -3.863  0.00  0.00     0.275 C 
ATOM      8  N   UNK d   0      25.212 -14.199  -5.020  0.00  0.00    -0.222 NA
ATOM      9  N   UNK d   0      25.532 -15.781  -4.404  0.00  0.00    -0.226 NA
ATOM     10  H   UNK d   0      26.069 -13.785  -5.377  0.00  0.00     0.144 HD
ATOM     11  C   UNK d   0      25.259 -15.652  -2.976  0.00  0.00     0.245 C 
ATOM     12  H   UNK d   0      26.556 -15.845  -4.441  0.00  0.00     0.143 HD
ATOM     13  O   UNK d   0      24.680 -14.399  -2.915  0.00  0.00    -0.336 OA
BRANCH  11  14
ATOM     14  C   UNK d   0      24.957 -16.666  -1.783  0.00  0.00    -0.013 C 
ATOM     15  C   UNK d   0      25.997 -16.867  -0.856  0.00  0.00     0.011 C 
ATOM     16  C   UNK d   0      25.883 -17.715   0.256  0.00  0.00     0.002 C 
ATOM     17  C   UNK d   0      24.681 -18.344   0.548  0.00  0.00     0.024 C 
ATOM     18  C   UNK d   0      23.563 -17.998  -0.190  0.00  0.00     0.034 C 
ATOM     19 CL   UNK d   0      22.032 -18.688   0.229  0.00  0.00    -0.084 Cl
ATOM     20  C   UNK d   0      23.689 -17.139  -1.304  0.00  0.00     0.035 C 
ENDBRANCH  11  14
ENDBRANCH   6   7
ENDBRANCH   5   6
ENDBRANCH   2   5
BRANCH   3  21
ATOM     21  CA  TRP d   1      29.275 -14.247  -4.761  0.00  0.00     0.190 C 
BRANCH  21  22
ATOM     22  CB  TRP d   1      28.602 -15.265  -3.814  0.00  0.00     0.077 C 
BRANCH  22  23
ATOM     23  CG  TRP d   1      29.379 -16.498  -3.835  0.00  0.00    -0.028 C 
ATOM     24  CD1 TRP d   1      29.859 -17.068  -2.681  0.00  0.00     0.096 C 
ATOM     25  NE1 TRP d   1      30.934 -17.731  -3.167  0.00  0.00    -0.365 N 
ATOM     26  CE2 TRP d   1      30.989 -17.897  -4.587  0.00  0.00     0.042 A 
ATOM     27  HE1 TRP d   1      31.730 -17.843  -2.541  0.00  0.00     0.165 HD
ATOM     28  CZ2 TRP d   1      31.879 -18.552  -5.584  0.00  0.00     0.030 A 
ATOM     29  CD2 TRP d   1      30.028 -17.040  -5.021  0.00  0.00    -0.002 A 
ATOM     30  CH2 TRP d   1      31.943 -18.303  -6.910  0.00  0.00     0.002 A 
ATOM     31  CZ3 TRP d   1      31.076 -17.346  -7.305  0.00  0.00     0.001 A 
ATOM     32  CE3 TRP d   1      30.127 -16.756  -6.407  0.00  0.00     0.014 A 
ENDBRANCH  22  23
ENDBRANCH  21  22
BRANCH  21  33
ATOM     33  C   TRP d   1      28.118 -14.123  -5.799  0.00  0.00     0.197 C 
ATOM     34  O   TRP d   1      27.898 -12.942  -6.196  0.00  0.00    -0.646 OA
ATOM     35  OXT TRP d   1      27.547 -15.202  -6.134  0.00  0.00    -0.646 OA
ENDBRANCH  21  33
ENDBRANCH   3  21
TORSDOF 8
ENDMDL
MODEL 8
REMARK VINA RESULT:    -7.560      5.243      7.436
REMARK INTER + INTRA:         -13.918
REMARK INTER:                  -9.946
REMARK INTRA:                  -3.972
REMARK CONF_INDEPENDENT:        2.386
REMARK UNBOUND:                -3.972
REMARK  8 active torsions:
REMARK  status: ('A' for Active; 'I' for Inactive)
REMARK    1  A    between atoms: C_2  and  C_3 
REMARK       I    between atoms: C_2  and  N_17 
REMARK    2  A    between atoms: C_3  and  S_4 
REMARK    3  A    between atoms: C_5  and  S_4 
REMARK    4  A    between atoms: C_8  and  C_9 
REMARK    5  A    between atoms: N_17  and  CA_18 
REMARK    6  A    between atoms: CA_18  and  CB_19 
REMARK    7  A    between atoms: CA_18  and  C_29 
REMARK    8  A    between atoms: CB_19  and  CG_20 
ROOT
ATOM      1  O   UNK d   0      27.609 -15.185  -6.146  0.00  0.00    -0.273 OA
ATOM      2  C   UNK d   0      28.758 -15.184  -5.624  0.00  0.00     0.227 C 
ATOM      3  N   TRP d   1      29.404 -16.411  -5.452  0.00  0.00    -0.346 N 
ATOM      4  H   TRP d   1      28.938 -17.214  -5.872  0.00  0.00     0.163 HD
ENDROOT
BRANCH   2   5
ATOM      5  C   UNK d   0      29.363 -13.878  -5.080  0.00  0.00     0.180 C 
BRANCH   5   6
ATOM      6  S   UNK d   0      28.312 -12.629  -3.926  0.00  0.00    -0.112 SA
BRANCH   6   7
ATOM      7  C   UNK d   0      26.342 -13.162  -3.494  0.00  0.00     0.275 C 
ATOM      8  N   UNK d   0      25.650 -13.561  -4.707  0.00  0.00    -0.222 NA
ATOM      9  N   UNK d   0      25.155 -15.195  -4.446  0.00  0.00    -0.226 NA
ATOM     10  H   UNK d   0      26.362 -13.524  -5.432  0.00  0.00     0.144 HD
ATOM     11  C   UNK d   0      25.591 -15.468  -3.080  0.00  0.00     0.245 C 
ATOM     12  H   UNK d   0      25.819 -15.734  -5.015  0.00  0.00     0.143 HD
ATOM     13  O   UNK d   0      25.966 -14.210  -2.650  0.00  0.00    -0.336 OA
BRANCH  11  14
ATOM     14  C   UNK d   0      25.226 -16.553  -1.970  0.00  0.00    -0.013 C 
ATOM     15  C   UNK d   0      26.243 -16.872  -1.051  0.00  0.00     0.011 C 
ATOM     16  C   UNK d   0      26.075 -17.794  -0.006  0.00  0.00     0.002 C 
ATOM     17  C   UNK d   0      24.839 -18.384   0.227  0.00  0.00     0.024 C 
ATOM     18  C   UNK d   0      23.749 -17.930  -0.493  0.00  0.00     0.034 C 
ATOM     19 CL   UNK d   0      22.181 -18.575  -0.143  0.00  0.00    -0.084 Cl
ATOM     20  C   UNK d   0      23.931 -16.998  -1.539  0.00  0.00     0.035 C 
ENDBRANCH  11  14
ENDBRANCH   6   7
ENDBRANCH   5   6
ENDBRANCH   2   5
BRANCH   3  21
ATOM     21  CA  TRP d   1      30.722 -16.904  -4.824  0.00  0.00     0.190 C 
BRANCH  21  22
ATOM     22  CB  TRP d   1      30.652 -18.194  -3.977  0.00  0.00     0.077 C 
BRANCH  22  23
ATOM     23  CG  TRP d   1      30.788 -17.831  -2.572  0.00  0.00    -0.028 C 
ATOM     24  CD1 TRP d   1      31.248 -18.725  -1.636  0.00  0.00     0.096 C 
ATOM     25  NE1 TRP d   1      30.655 -18.236  -0.522  0.00  0.00    -0.365 N 
ATOM     26  CE2 TRP d   1      30.121 -16.913  -0.615  0.00  0.00     0.042 A 
ATOM     27  HE1 TRP d   1      30.412 -18.908   0.205  0.00  0.00     0.165 HD
ATOM     28  CZ2 TRP d   1      29.444 -15.934   0.280  0.00  0.00     0.030 A 
ATOM     29  CD2 TRP d   1      30.140 -16.681  -1.954  0.00  0.00    -0.002 A 
ATOM     30  CH2 TRP d   1      28.707 -14.864  -0.090  0.00  0.00     0.002 A 
ATOM     31  CZ3 TRP d   1      28.619 -14.726  -1.430  0.00  0.00     0.001 A 
ATOM     32  CE3 TRP d   1      29.334 -15.578  -2.335  0.00  0.00     0.014 A 
ENDBRANCH  22  23
ENDBRANCH  21  22
BRANCH  21  33
ATOM     33  C   TRP d   1      31.831 -17.360  -5.820  0.00  0.00     0.197 C 
ATOM     34  O   TRP d   1      31.425 -17.544  -7.003  0.00  0.00    -0.646 OA
ATOM     35  OXT TRP d   1      32.997 -17.483  -5.343  0.00  0.00    -0.646 OA
ENDBRANCH  21  33
ENDBRANCH   3  21
TORSDOF 8
ENDMDL
MODEL 9
REMARK VINA RESULT:    -6.991      6.082      7.309
REMARK INTER + INTRA:         -13.896
REMARK INTER:                  -9.378
REMARK INTRA:                  -4.518
REMARK CONF_INDEPENDENT:        2.386
REMARK UNBOUND:                -4.518
REMARK  8 active torsions:
REMARK  status: ('A' for Active; 'I' for Inactive)
REMARK    1  A    between atoms: C_2  and  C_3 
REMARK       I    between atoms: C_2  and  N_17 
REMARK    2  A    between atoms: C_3  and  S_4 
REMARK    3  A    between atoms: C_5  and  S_4 
REMARK    4  A    between atoms: C_8  and  C_9 
REMARK    5  A    between atoms: N_17  and  CA_18 
REMARK    6  A    between atoms: CA_18  and  CB_19 
REMARK    7  A    between atoms: CA_18  and  C_29 
REMARK    8  A    between atoms: CB_19  and  CG_20 
ROOT
ATOM      1  O   UNK d   0      31.591 -12.524  -3.829  0.00  0.00    -0.273 OA
ATOM      2  C   UNK d   0      30.602 -13.209  -4.211  0.00  0.00     0.227 C 
ATOM      3  N   TRP d   1      30.632 -13.748  -5.500  0.00  0.00    -0.346 N 
ATOM      4  H   TRP d   1      31.514 -13.641  -5.998  0.00  0.00     0.163 HD
ENDROOT
BRANCH   2   5
ATOM      5  C   UNK d   0      29.351 -13.329  -3.322  0.00  0.00     0.180 C 
BRANCH   5   6
ATOM      6  S   UNK d   0      27.786 -12.102  -3.531  0.00  0.00    -0.112 SA
BRANCH   6   7
ATOM      7  C   UNK d   0      25.885 -12.955  -3.412  0.00  0.00     0.275 C 
ATOM      8  N   UNK d   0      25.503 -13.515  -4.696  0.00  0.00    -0.222 NA
ATOM      9  N   UNK d   0      25.245 -15.200  -4.411  0.00  0.00    -0.226 NA
ATOM     10  H   UNK d   0      26.319 -13.382  -5.287  0.00  0.00     0.144 HD
ATOM     11  C   UNK d   0      25.463 -15.339  -2.975  0.00  0.00     0.245 C 
ATOM     12  H   UNK d   0      26.081 -15.636  -4.818  0.00  0.00     0.143 HD
ATOM     13  O   UNK d   0      25.540 -14.019  -2.575  0.00  0.00    -0.336 OA
BRANCH  11  14
ATOM     14  C   UNK d   0      25.085 -16.427  -1.872  0.00  0.00    -0.013 C 
ATOM     15  C   UNK d   0      26.009 -16.601  -0.825  0.00  0.00     0.011 C 
ATOM     16  C   UNK d   0      25.815 -17.506   0.230  0.00  0.00     0.002 C 
ATOM     17  C   UNK d   0      24.634 -18.228   0.336  0.00  0.00     0.024 C 
ATOM     18  C   UNK d   0      23.599 -17.924  -0.528  0.00  0.00     0.034 C 
ATOM     19 CL   UNK d   0      22.081 -18.735  -0.342  0.00  0.00    -0.084 Cl
ATOM     20  C   UNK d   0      23.804 -17.007  -1.583  0.00  0.00     0.035 C 
ENDBRANCH  11  14
ENDBRANCH   6   7
ENDBRANCH   5   6
ENDBRANCH   2   5
BRANCH   3  21
ATOM     21  CA  TRP d   1      29.674 -14.553  -6.398  0.00  0.00     0.190 C 
BRANCH  21  22
ATOM     22  CB  TRP d   1      29.606 -16.077  -6.158  0.00  0.00     0.077 C 
BRANCH  22  23
ATOM     23  CG  TRP d   1      30.565 -16.423  -5.116  0.00  0.00    -0.028 C 
ATOM     24  CD1 TRP d   1      31.798 -16.949  -5.415  0.00  0.00     0.096 C 
ATOM     25  NE1 TRP d   1      32.048 -17.641  -4.279  0.00  0.00    -0.365 N 
ATOM     26  CE2 TRP d   1      31.224 -17.331  -3.152  0.00  0.00     0.042 A 
ATOM     27  HE1 TRP d   1      32.615 -18.483  -4.366  0.00  0.00     0.165 HD
ATOM     28  CZ2 TRP d   1      31.112 -17.741  -1.725  0.00  0.00     0.030 A 
ATOM     29  CD2 TRP d   1      30.222 -16.602  -3.711  0.00  0.00    -0.002 A 
ATOM     30  CH2 TRP d   1      30.045 -17.585  -0.913  0.00  0.00     0.002 A 
ATOM     31  CZ3 TRP d   1      29.003 -16.982  -1.525  0.00  0.00     0.001 A 
ATOM     32  CE3 TRP d   1      29.093 -16.476  -2.863  0.00  0.00     0.014 A 
ENDBRANCH  22  23
ENDBRANCH  21  22
BRANCH  21  33
ATOM     33  C   TRP d   1      28.155 -14.242  -6.237  0.00  0.00     0.197 C 
ATOM     34  O   TRP d   1      27.474 -15.201  -5.770  0.00  0.00    -0.646 OA
ATOM     35  OXT TRP d   1      27.781 -13.081  -6.574  0.00  0.00    -0.646 OA
ENDBRANCH  21  33
ENDBRANCH   3  21
TORSDOF 8
ENDMDL
