MODEL 1
REMARK VINA RESULT:    -9.714      0.000      0.000
REMARK INTER + INTRA:         -14.239
REMARK INTER:                 -12.697
REMARK INTRA:                  -1.542
REMARK CONF_INDEPENDENT:        2.983
REMARK UNBOUND:                -1.542
REMARK  10 active torsions:
REMARK  status: ('A' for Active; 'I' for Inactive)
REMARK    1  A    between atoms: C_2  and  O_3 
REMARK    2  A    between atoms: C_2  and  C_4 
REMARK    3  A    between atoms: C_4  and  N_5 
REMARK    4  A    between atoms: N_5  and  C_6 
REMARK    5  A    between atoms: N_14  and  C_15 
REMARK    6  A    between atoms: C_15  and  C_16 
REMARK       I    between atoms: C_16  and  N_18 
REMARK    7  A    between atoms: N_18  and  C_19 
REMARK    8  A    between atoms: C_23  and  C_24 
REMARK       I    between atoms: C_24  and  N_26 
REMARK    9  A    between atoms: N_26  and  C_27 
REMARK   10  A    between atoms: C_31  and  C_32 
ROOT
ATOM      1  C   UNL d   1      25.316 -13.969  -3.113  0.00  0.00     0.241 C 
ATOM      2  O   UNL d   1      24.857 -15.041  -3.509  0.00  0.00    -0.271 OA
ATOM      3  N   UNL d   1      25.800 -14.009  -1.818  0.00  0.00    -0.326 N 
ATOM      4  H   UNL d   1      25.567 -13.221  -1.225  0.00  0.00     0.169 HD
ENDROOT
BRANCH   3   5
ATOM      5  C   UNL d   1      25.819 -15.331  -1.215  0.00  0.00     0.035 A 
ATOM      6  C   UNL d   1      27.049 -15.925  -0.855  0.00  0.00     0.029 A 
ATOM      7  C   UNL d   1      27.109 -17.222  -0.346  0.00  0.00     0.003 A 
ATOM      8  C   UNL d   1      25.956 -17.998  -0.333  0.00  0.00     0.017 A 
ATOM      9  C   UNL d   1      24.718 -17.451  -0.735  0.00  0.00     0.034 A 
ATOM     10  C   UNL d   1      24.649 -16.089  -1.101  0.00  0.00     0.046 A 
BRANCH   9  11
ATOM     11  C   UNL d   1      23.535 -18.378  -0.754  0.00  0.00     0.256 C 
ATOM     12  O   UNL d   1      23.645 -19.436  -1.375  0.00  0.00    -0.267 OA
ATOM     13  N   UNL d   1      22.357 -17.965  -0.125  0.00  0.00    -0.323 N 
ATOM     14  H   UNL d   1      22.237 -16.993   0.108  0.00  0.00     0.169 HD
BRANCH  13  15
ATOM     15  C   UNL d   1      21.196 -18.776  -0.110  0.00  0.00     0.035 C 
ATOM     16  C   UNL d   1      20.435 -18.933  -1.270  0.00  0.00     0.029 C 
ATOM     17  C   UNL d   1      19.273 -19.699  -1.267  0.00  0.00     0.003 C 
ATOM     18  C   UNL d   1      18.778 -20.186  -0.064  0.00  0.00     0.016 C 
ATOM     19  C   UNL d   1      19.522 -20.040   1.117  0.00  0.00     0.050 C 
ATOM     20  C   UNL d   1      20.791 -19.425   1.062  0.00  0.00     0.045 C 
BRANCH  19  21
ATOM     21  C   UNL d   1      18.900 -20.486   2.418  0.00  0.00     0.417 C 
ATOM     22  F   UNL d   1      17.848 -19.700   2.785  0.00  0.00    -0.166 F 
ATOM     23  F   UNL d   1      18.408 -21.755   2.354  0.00  0.00    -0.166 F 
ATOM     24  F   UNL d   1      19.762 -20.468   3.470  0.00  0.00    -0.166 F 
ENDBRANCH  19  21
ENDBRANCH  13  15
ENDBRANCH   9  11
ENDBRANCH   3   5
BRANCH   1  25
ATOM     25  C   UNL d   1      25.207 -12.715  -3.951  0.00  0.00     0.251 C 
BRANCH  25  26
ATOM     26  N   UNL d   1      26.252 -12.451  -4.981  0.00  0.00    -0.171 N 
ATOM     27  C   UNL d   1      27.229 -13.293  -5.515  0.00  0.00     0.081 A 
ATOM     28  C   UNL d   1      27.663 -14.620  -5.316  0.00  0.00     0.032 A 
ATOM     29  C   UNL d   1      27.880 -12.535  -6.489  0.00  0.00     0.103 A 
ATOM     30  C   UNL d   1      28.670 -15.217  -6.043  0.00  0.00     0.002 A 
ATOM     31  C   UNL d   1      29.333 -14.475  -6.979  0.00  0.00     0.002 A 
ATOM     32  C   UNL d   1      28.953 -13.137  -7.210  0.00  0.00     0.034 A 
ATOM     33  N   UNL d   1      27.320 -11.274  -6.566  0.00  0.00    -0.063 NA
ATOM     34  C   UNL d   1      26.355 -11.229  -5.668  0.00  0.00     0.704 A 
BRANCH  34  35
ATOM     35  N   UNL d   1      25.481 -10.186  -5.501  0.00  0.00    -0.222 N 
ATOM     36  H   UNL d   1      24.701 -10.197  -6.165  0.00  0.00     0.177 HD
BRANCH  35  37
ATOM     37  C   UNL d   1      25.978  -8.822  -5.300  0.00  0.00     0.169 C 
BRANCH  37  38
ATOM     38  C   UNL d   1      24.946  -7.903  -4.622  0.00  0.00     0.132 C 
ATOM     39  C   UNL d   1      25.260  -6.442  -4.944  0.00  0.00     0.041 C 
BRANCH  38  40
ATOM     40  O   UNL d   1      23.622  -8.202  -5.052  0.00  0.00    -0.394 OA
ATOM     41  H   UNL d   1      23.087  -8.421  -4.269  0.00  0.00     0.210 HD
ENDBRANCH  38  40
ENDBRANCH  37  38
ENDBRANCH  35  37
ENDBRANCH  34  35
ENDBRANCH  25  26
ENDBRANCH   1  25
TORSDOF 10
ENDMDL
MODEL 2
REMARK VINA RESULT:    -9.489      4.977      7.996
REMARK INTER + INTRA:         -14.333
REMARK INTER:                 -12.472
REMARK INTRA:                  -1.861
REMARK CONF_INDEPENDENT:        2.983
REMARK UNBOUND:                -1.861
REMARK  10 active torsions:
REMARK  status: ('A' for Active; 'I' for Inactive)
REMARK    1  A    between atoms: C_2  and  O_3 
REMARK    2  A    between atoms: C_2  and  C_4 
REMARK    3  A    between atoms: C_4  and  N_5 
REMARK    4  A    between atoms: N_5  and  C_6 
REMARK    5  A    between atoms: N_14  and  C_15 
REMARK    6  A    between atoms: C_15  and  C_16 
REMARK       I    between atoms: C_16  and  N_18 
REMARK    7  A    between atoms: N_18  and  C_19 
REMARK    8  A    between atoms: C_23  and  C_24 
REMARK       I    between atoms: C_24  and  N_26 
REMARK    9  A    between atoms: N_26  and  C_27 
REMARK   10  A    between atoms: C_31  and  C_32 
ROOT
ATOM      1  C   UNL d   1      29.272 -17.512  -1.014  0.00  0.00     0.241 C 
ATOM      2  O   UNL d   1      28.937 -16.837  -1.989  0.00  0.00    -0.271 OA
ATOM      3  N   UNL d   1      28.281 -17.654  -0.061  0.00  0.00    -0.326 N 
ATOM      4  H   UNL d   1      28.566 -17.557   0.906  0.00  0.00     0.169 HD
ENDROOT
BRANCH   3   5
ATOM      5  C   UNL d   1      26.985 -17.115  -0.444  0.00  0.00     0.035 A 
ATOM      6  C   UNL d   1      26.759 -15.722  -0.399  0.00  0.00     0.029 A 
ATOM      7  C   UNL d   1      25.506 -15.179  -0.684  0.00  0.00     0.003 A 
ATOM      8  C   UNL d   1      24.425 -16.033  -0.870  0.00  0.00     0.017 A 
ATOM      9  C   UNL d   1      24.608 -17.432  -0.869  0.00  0.00     0.034 A 
ATOM     10  C   UNL d   1      25.910 -17.961  -0.732  0.00  0.00     0.046 A 
BRANCH   9  11
ATOM     11  C   UNL d   1      23.375 -18.282  -1.009  0.00  0.00     0.256 C 
ATOM     12  O   UNL d   1      23.268 -18.976  -2.020  0.00  0.00    -0.267 OA
ATOM     13  N   UNL d   1      22.390 -18.192  -0.021  0.00  0.00    -0.323 N 
ATOM     14  H   UNL d   1      22.400 -17.412   0.615  0.00  0.00     0.169 HD
BRANCH  13  15
ATOM     15  C   UNL d   1      21.195 -18.950  -0.088  0.00  0.00     0.035 C 
ATOM     16  C   UNL d   1      20.454 -18.987  -1.270  0.00  0.00     0.029 C 
ATOM     17  C   UNL d   1      19.260 -19.700  -1.344  0.00  0.00     0.003 C 
ATOM     18  C   UNL d   1      18.719 -20.253  -0.190  0.00  0.00     0.016 C 
ATOM     19  C   UNL d   1      19.444 -20.227   1.011  0.00  0.00     0.050 C 
ATOM     20  C   UNL d   1      20.739 -19.666   1.025  0.00  0.00     0.045 C 
BRANCH  19  21
ATOM     21  C   UNL d   1      18.777 -20.741   2.264  0.00  0.00     0.417 C 
ATOM     22  F   UNL d   1      18.282 -22.002   2.105  0.00  0.00    -0.166 F 
ATOM     23  F   UNL d   1      19.633 -20.810   3.321  0.00  0.00    -0.166 F 
ATOM     24  F   UNL d   1      17.728 -19.979   2.676  0.00  0.00    -0.166 F 
ENDBRANCH  19  21
ENDBRANCH  13  15
ENDBRANCH   9  11
ENDBRANCH   3   5
BRANCH   1  25
ATOM     25  C   UNL d   1      30.695 -17.998  -0.852  0.00  0.00     0.251 C 
BRANCH  25  26
ATOM     26  N   UNL d   1      31.508 -17.466   0.279  0.00  0.00    -0.171 N 
ATOM     27  C   UNL d   1      31.615 -16.169   0.783  0.00  0.00     0.081 A 
ATOM     28  C   UNL d   1      31.100 -14.896   0.464  0.00  0.00     0.032 A 
ATOM     29  C   UNL d   1      32.465 -16.270   1.886  0.00  0.00     0.103 A 
ATOM     30  C   UNL d   1      31.363 -13.755   1.192  0.00  0.00     0.002 A 
ATOM     31  C   UNL d   1      32.216 -13.837   2.256  0.00  0.00     0.002 A 
ATOM     32  C   UNL d   1      32.775 -15.082   2.611  0.00  0.00     0.034 A 
ATOM     33  N   UNL d   1      32.859 -17.581   2.067  0.00  0.00    -0.063 NA
ATOM     34  C   UNL d   1      32.290 -18.287   1.109  0.00  0.00     0.704 A 
BRANCH  34  35
ATOM     35  N   UNL d   1      32.341 -19.652   0.999  0.00  0.00    -0.222 N 
ATOM     36  H   UNL d   1      31.419 -20.099   1.023  0.00  0.00     0.177 HD
BRANCH  35  37
ATOM     37  C   UNL d   1      33.318 -20.427   1.771  0.00  0.00     0.169 C 
BRANCH  37  38
ATOM     38  C   UNL d   1      32.693 -21.137   2.985  0.00  0.00     0.132 C 
ATOM     39  C   UNL d   1      32.212 -20.103   4.002  0.00  0.00     0.041 C 
BRANCH  38  40
ATOM     40  O   UNL d   1      31.594 -21.957   2.598  0.00  0.00    -0.394 OA
ATOM     41  H   UNL d   1      31.903 -22.879   2.546  0.00  0.00     0.210 HD
ENDBRANCH  38  40
ENDBRANCH  37  38
ENDBRANCH  35  37
ENDBRANCH  34  35
ENDBRANCH  25  26
ENDBRANCH   1  25
TORSDOF 10
ENDMDL
MODEL 3
REMARK VINA RESULT:    -8.717      7.593     10.615
REMARK INTER + INTRA:         -15.164
REMARK INTER:                 -11.700
REMARK INTRA:                  -3.463
REMARK CONF_INDEPENDENT:        2.983
REMARK UNBOUND:                -3.463
REMARK  10 active torsions:
REMARK  status: ('A' for Active; 'I' for Inactive)
REMARK    1  A    between atoms: C_2  and  O_3 
REMARK    2  A    between atoms: C_2  and  C_4 
REMARK    3  A    between atoms: C_4  and  N_5 
REMARK    4  A    between atoms: N_5  and  C_6 
REMARK    5  A    between atoms: N_14  and  C_15 
REMARK    6  A    between atoms: C_15  and  C_16 
REMARK       I    between atoms: C_16  and  N_18 
REMARK    7  A    between atoms: N_18  and  C_19 
REMARK    8  A    between atoms: C_23  and  C_24 
REMARK       I    between atoms: C_24  and  N_26 
REMARK    9  A    between atoms: N_26  and  C_27 
REMARK   10  A    between atoms: C_31  and  C_32 
ROOT
ATOM      1  C   UNL d   1      27.274 -14.244   0.774  0.00  0.00     0.241 C 
ATOM      2  O   UNL d   1      28.356 -14.607   1.237  0.00  0.00    -0.271 OA
ATOM      3  N   UNL d   1      26.658 -13.243   1.503  0.00  0.00    -0.326 N 
ATOM      4  H   UNL d   1      25.661 -13.343   1.654  0.00  0.00     0.169 HD
ENDROOT
BRANCH   3   5
ATOM      5  C   UNL d   1      27.457 -12.698   2.588  0.00  0.00     0.035 A 
ATOM      6  C   UNL d   1      28.398 -11.677   2.328  0.00  0.00     0.029 A 
ATOM      7  C   UNL d   1      29.235 -11.187   3.330  0.00  0.00     0.003 A 
ATOM      8  C   UNL d   1      29.249 -11.817   4.568  0.00  0.00     0.017 A 
ATOM      9  C   UNL d   1      28.357 -12.876   4.845  0.00  0.00     0.034 A 
ATOM     10  C   UNL d   1      27.410 -13.257   3.869  0.00  0.00     0.046 A 
BRANCH   9  11
ATOM     11  C   UNL d   1      28.485 -13.544   6.185  0.00  0.00     0.256 C 
ATOM     12  O   UNL d   1      28.356 -14.768   6.231  0.00  0.00    -0.267 OA
ATOM     13  N   UNL d   1      28.679 -12.741   7.313  0.00  0.00    -0.323 N 
ATOM     14  H   UNL d   1      28.489 -11.754   7.253  0.00  0.00     0.169 HD
BRANCH  13  15
ATOM     15  C   UNL d   1      28.795 -13.294   8.612  0.00  0.00     0.035 C 
ATOM     16  C   UNL d   1      28.155 -12.686   9.693  0.00  0.00     0.029 C 
ATOM     17  C   UNL d   1      28.284 -13.197  10.981  0.00  0.00     0.003 C 
ATOM     18  C   UNL d   1      29.183 -14.228  11.222  0.00  0.00     0.016 C 
ATOM     19  C   UNL d   1      29.841 -14.855  10.153  0.00  0.00     0.050 C 
ATOM     20  C   UNL d   1      29.554 -14.450   8.832  0.00  0.00     0.045 C 
BRANCH  19  21
ATOM     21  C   UNL d   1      30.888 -15.896  10.464  0.00  0.00     0.417 C 
ATOM     22  F   UNL d   1      30.405 -17.166  10.347  0.00  0.00    -0.166 F 
ATOM     23  F   UNL d   1      31.958 -15.830   9.625  0.00  0.00    -0.166 F 
ATOM     24  F   UNL d   1      31.392 -15.806  11.725  0.00  0.00    -0.166 F 
ENDBRANCH  19  21
ENDBRANCH  13  15
ENDBRANCH   9  11
ENDBRANCH   3   5
BRANCH   1  25
ATOM     25  C   UNL d   1      26.649 -14.957  -0.404  0.00  0.00     0.251 C 
BRANCH  25  26
ATOM     26  N   UNL d   1      26.121 -16.337  -0.206  0.00  0.00    -0.171 N 
ATOM     27  C   UNL d   1      24.827 -16.840  -0.358  0.00  0.00     0.081 A 
ATOM     28  C   UNL d   1      23.556 -16.325  -0.686  0.00  0.00     0.032 A 
ATOM     29  C   UNL d   1      24.930 -18.209  -0.108  0.00  0.00     0.103 A 
ATOM     30  C   UNL d   1      22.419 -17.097  -0.799  0.00  0.00     0.002 A 
ATOM     31  C   UNL d   1      22.504 -18.433  -0.528  0.00  0.00     0.002 A 
ATOM     32  C   UNL d   1      23.747 -19.000  -0.179  0.00  0.00     0.034 A 
ATOM     33  N   UNL d   1      26.240 -18.545   0.176  0.00  0.00    -0.063 NA
ATOM     34  C   UNL d   1      26.942 -17.430   0.118  0.00  0.00     0.704 A 
BRANCH  34  35
ATOM     35  N   UNL d   1      28.305 -17.350   0.230  0.00  0.00    -0.222 N 
ATOM     36  H   UNL d   1      28.618 -16.735   0.989  0.00  0.00     0.177 HD
BRANCH  35  37
ATOM     37  C   UNL d   1      29.142 -17.177  -0.961  0.00  0.00     0.169 C 
BRANCH  37  38
ATOM     38  C   UNL d   1      30.370 -16.284  -0.705  0.00  0.00     0.132 C 
ATOM     39  C   UNL d   1      30.100 -14.870  -1.219  0.00  0.00     0.041 C 
BRANCH  38  40
ATOM     40  O   UNL d   1      30.689 -16.224   0.682  0.00  0.00    -0.394 OA
ATOM     41  H   UNL d   1      29.859 -16.166   1.185  0.00  0.00     0.210 HD
ENDBRANCH  38  40
ENDBRANCH  37  38
ENDBRANCH  35  37
ENDBRANCH  34  35
ENDBRANCH  25  26
ENDBRANCH   1  25
TORSDOF 10
ENDMDL
MODEL 4
REMARK VINA RESULT:    -8.530      4.171      7.137
REMARK INTER + INTRA:         -15.771
REMARK INTER:                 -11.513
REMARK INTRA:                  -4.257
REMARK CONF_INDEPENDENT:        2.983
REMARK UNBOUND:                -4.257
REMARK  10 active torsions:
REMARK  status: ('A' for Active; 'I' for Inactive)
REMARK    1  A    between atoms: C_2  and  O_3 
REMARK    2  A    between atoms: C_2  and  C_4 
REMARK    3  A    between atoms: C_4  and  N_5 
REMARK    4  A    between atoms: N_5  and  C_6 
REMARK    5  A    between atoms: N_14  and  C_15 
REMARK    6  A    between atoms: C_15  and  C_16 
REMARK       I    between atoms: C_16  and  N_18 
REMARK    7  A    between atoms: N_18  and  C_19 
REMARK    8  A    between atoms: C_23  and  C_24 
REMARK       I    between atoms: C_24  and  N_26 
REMARK    9  A    between atoms: N_26  and  C_27 
REMARK   10  A    between atoms: C_31  and  C_32 
ROOT
ATOM      1  C   UNL d   1      29.963 -15.470  -6.269  0.00  0.00     0.241 C 
ATOM      2  O   UNL d   1      29.662 -15.544  -5.076  0.00  0.00    -0.271 OA
ATOM      3  N   UNL d   1      29.040 -14.789  -7.040  0.00  0.00    -0.326 N 
ATOM      4  H   UNL d   1      28.813 -15.198  -7.939  0.00  0.00     0.169 HD
ENDROOT
BRANCH   3   5
ATOM      5  C   UNL d   1      27.966 -14.158  -6.291  0.00  0.00     0.035 A 
ATOM      6  C   UNL d   1      27.787 -12.758  -6.357  0.00  0.00     0.029 A 
ATOM      7  C   UNL d   1      26.817 -12.112  -5.591  0.00  0.00     0.003 A 
ATOM      8  C   UNL d   1      26.115 -12.838  -4.635  0.00  0.00     0.017 A 
ATOM      9  C   UNL d   1      26.308 -14.230  -4.508  0.00  0.00     0.034 A 
ATOM     10  C   UNL d   1      27.181 -14.894  -5.397  0.00  0.00     0.046 A 
BRANCH   9  11
ATOM     11  C   UNL d   1      25.559 -14.925  -3.405  0.00  0.00     0.256 C 
ATOM     12  O   UNL d   1      24.428 -14.519  -3.135  0.00  0.00    -0.267 OA
ATOM     13  N   UNL d   1      26.206 -15.946  -2.703  0.00  0.00    -0.323 N 
ATOM     14  H   UNL d   1      27.206 -16.034  -2.772  0.00  0.00     0.169 HD
BRANCH  13  15
ATOM     15  C   UNL d   1      25.573 -16.640  -1.642  0.00  0.00     0.035 C 
ATOM     16  C   UNL d   1      26.329 -17.137  -0.580  0.00  0.00     0.029 C 
ATOM     17  C   UNL d   1      25.729 -17.849   0.455  0.00  0.00     0.003 C 
ATOM     18  C   UNL d   1      24.389 -18.203   0.356  0.00  0.00     0.016 C 
ATOM     19  C   UNL d   1      23.608 -17.718  -0.704  0.00  0.00     0.050 C 
ATOM     20  C   UNL d   1      24.187 -16.840  -1.645  0.00  0.00     0.045 C 
BRANCH  19  21
ATOM     21  C   UNL d   1      22.188 -18.213  -0.835  0.00  0.00     0.417 C 
ATOM     22  F   UNL d   1      21.691 -18.678   0.348  0.00  0.00    -0.166 F 
ATOM     23  F   UNL d   1      21.328 -17.237  -1.238  0.00  0.00    -0.166 F 
ATOM     24  F   UNL d   1      22.044 -19.233  -1.724  0.00  0.00    -0.166 F 
ENDBRANCH  19  21
ENDBRANCH  13  15
ENDBRANCH   9  11
ENDBRANCH   3   5
BRANCH   1  25
ATOM     25  C   UNL d   1      31.170 -16.198  -6.816  0.00  0.00     0.251 C 
BRANCH  25  26
ATOM     26  N   UNL d   1      31.093 -17.676  -6.997  0.00  0.00    -0.171 N 
ATOM     27  C   UNL d   1      31.591 -18.489  -8.016  0.00  0.00     0.081 A 
ATOM     28  C   UNL d   1      32.278 -18.307  -9.234  0.00  0.00     0.032 A 
ATOM     29  C   UNL d   1      31.285 -19.795  -7.631  0.00  0.00     0.103 A 
ATOM     30  C   UNL d   1      32.687 -19.341 -10.048  0.00  0.00     0.002 A 
ATOM     31  C   UNL d   1      32.367 -20.621  -9.695  0.00  0.00     0.002 A 
ATOM     32  C   UNL d   1      31.667 -20.862  -8.495  0.00  0.00     0.034 A 
ATOM     33  N   UNL d   1      30.634 -19.794  -6.412  0.00  0.00    -0.063 NA
ATOM     34  C   UNL d   1      30.520 -18.533  -6.041  0.00  0.00     0.704 A 
BRANCH  34  35
ATOM     35  N   UNL d   1      30.029 -18.107  -4.835  0.00  0.00    -0.222 N 
ATOM     36  H   UNL d   1      29.455 -17.260  -4.903  0.00  0.00     0.177 HD
BRANCH  35  37
ATOM     37  C   UNL d   1      30.896 -18.056  -3.653  0.00  0.00     0.169 C 
BRANCH  37  38
ATOM     38  C   UNL d   1      30.311 -17.197  -2.518  0.00  0.00     0.132 C 
ATOM     39  C   UNL d   1      31.244 -16.025  -2.218  0.00  0.00     0.041 C 
BRANCH  38  40
ATOM     40  O   UNL d   1      29.022 -16.694  -2.859  0.00  0.00    -0.394 OA
ATOM     41  H   UNL d   1      29.137 -15.960  -3.487  0.00  0.00     0.210 HD
ENDBRANCH  38  40
ENDBRANCH  37  38
ENDBRANCH  35  37
ENDBRANCH  34  35
ENDBRANCH  25  26
ENDBRANCH   1  25
TORSDOF 10
ENDMDL
MODEL 5
REMARK VINA RESULT:    -8.048      7.324     10.531
REMARK INTER + INTRA:         -14.657
REMARK INTER:                 -11.031
REMARK INTRA:                  -3.627
REMARK CONF_INDEPENDENT:        2.983
REMARK UNBOUND:                -3.627
REMARK  10 active torsions:
REMARK  status: ('A' for Active; 'I' for Inactive)
REMARK    1  A    between atoms: C_2  and  O_3 
REMARK    2  A    between atoms: C_2  and  C_4 
REMARK    3  A    between atoms: C_4  and  N_5 
REMARK    4  A    between atoms: N_5  and  C_6 
REMARK    5  A    between atoms: N_14  and  C_15 
REMARK    6  A    between atoms: C_15  and  C_16 
REMARK       I    between atoms: C_16  and  N_18 
REMARK    7  A    between atoms: N_18  and  C_19 
REMARK    8  A    between atoms: C_23  and  C_24 
REMARK       I    between atoms: C_24  and  N_26 
REMARK    9  A    between atoms: N_26  and  C_27 
REMARK   10  A    between atoms: C_31  and  C_32 
ROOT
ATOM      1  C   UNL d   1      27.431 -14.686   0.831  0.00  0.00     0.241 C 
ATOM      2  O   UNL d   1      27.952 -15.512   1.582  0.00  0.00    -0.271 OA
ATOM      3  N   UNL d   1      27.801 -13.379   1.090  0.00  0.00    -0.326 N 
ATOM      4  H   UNL d   1      27.061 -12.688   1.069  0.00  0.00     0.169 HD
ENDROOT
BRANCH   3   5
ATOM      5  C   UNL d   1      28.843 -13.228   2.092  0.00  0.00     0.035 A 
ATOM      6  C   UNL d   1      30.197 -13.151   1.697  0.00  0.00     0.029 A 
ATOM      7  C   UNL d   1      31.226 -13.084   2.636  0.00  0.00     0.003 A 
ATOM      8  C   UNL d   1      30.925 -13.246   3.983  0.00  0.00     0.017 A 
ATOM      9  C   UNL d   1      29.585 -13.377   4.408  0.00  0.00     0.034 A 
ATOM     10  C   UNL d   1      28.545 -13.287   3.458  0.00  0.00     0.046 A 
BRANCH   9  11
ATOM     11  C   UNL d   1      29.354 -13.615   5.874  0.00  0.00     0.256 C 
ATOM     12  O   UNL d   1      28.192 -13.615   6.279  0.00  0.00    -0.267 OA
ATOM     13  N   UNL d   1      30.467 -13.758   6.708  0.00  0.00    -0.323 N 
ATOM     14  H   UNL d   1      31.372 -13.465   6.377  0.00  0.00     0.169 HD
BRANCH  13  15
ATOM     15  C   UNL d   1      30.333 -13.972   8.101  0.00  0.00     0.035 C 
ATOM     16  C   UNL d   1      31.235 -14.797   8.775  0.00  0.00     0.029 C 
ATOM     17  C   UNL d   1      31.100 -15.044  10.138  0.00  0.00     0.003 C 
ATOM     18  C   UNL d   1      29.970 -14.593  10.807  0.00  0.00     0.016 C 
ATOM     19  C   UNL d   1      29.046 -13.763  10.153  0.00  0.00     0.050 C 
ATOM     20  C   UNL d   1      29.297 -13.365   8.822  0.00  0.00     0.045 C 
BRANCH  19  21
ATOM     21  C   UNL d   1      27.780 -13.384  10.880  0.00  0.00     0.417 C 
ATOM     22  F   UNL d   1      26.776 -14.284  10.673  0.00  0.00    -0.166 F 
ATOM     23  F   UNL d   1      27.949 -13.324  12.230  0.00  0.00    -0.166 F 
ATOM     24  F   UNL d   1      27.276 -12.175  10.508  0.00  0.00    -0.166 F 
ENDBRANCH  19  21
ENDBRANCH  13  15
ENDBRANCH   9  11
ENDBRANCH   3   5
BRANCH   1  25
ATOM     25  C   UNL d   1      26.379 -15.098  -0.173  0.00  0.00     0.251 C 
BRANCH  25  26
ATOM     26  N   UNL d   1      25.876 -16.502  -0.148  0.00  0.00    -0.171 N 
ATOM     27  C   UNL d   1      24.584 -17.003  -0.319  0.00  0.00     0.081 A 
ATOM     28  C   UNL d   1      23.294 -16.472  -0.525  0.00  0.00     0.032 A 
ATOM     29  C   UNL d   1      24.716 -18.391  -0.263  0.00  0.00     0.103 A 
ATOM     30  C   UNL d   1      22.165 -17.242  -0.701  0.00  0.00     0.002 A 
ATOM     31  C   UNL d   1      22.278 -18.601  -0.620  0.00  0.00     0.002 A 
ATOM     32  C   UNL d   1      23.541 -19.187  -0.399  0.00  0.00     0.034 A 
ATOM     33  N   UNL d   1      26.040 -18.739  -0.078  0.00  0.00    -0.063 NA
ATOM     34  C   UNL d   1      26.725 -17.614  -0.008  0.00  0.00     0.704 A 
BRANCH  34  35
ATOM     35  N   UNL d   1      28.090 -17.524   0.064  0.00  0.00    -0.222 N 
ATOM     36  H   UNL d   1      28.424 -17.016   0.889  0.00  0.00     0.177 HD
BRANCH  35  37
ATOM     37  C   UNL d   1      28.877 -17.170  -1.122  0.00  0.00     0.169 C 
BRANCH  37  38
ATOM     38  C   UNL d   1      30.134 -16.349  -0.782  0.00  0.00     0.132 C 
ATOM     39  C   UNL d   1      29.888 -14.872  -1.086  0.00  0.00     0.041 C 
BRANCH  38  40
ATOM     40  O   UNL d   1      30.492 -16.491   0.589  0.00  0.00    -0.394 OA
ATOM     41  H   UNL d   1      29.834 -16.020   1.128  0.00  0.00     0.210 HD
ENDBRANCH  38  40
ENDBRANCH  37  38
ENDBRANCH  35  37
ENDBRANCH  34  35
ENDBRANCH  25  26
ENDBRANCH   1  25
TORSDOF 10
ENDMDL
MODEL 6
REMARK VINA RESULT:    -7.208      6.414     10.107
REMARK INTER + INTRA:         -14.706
REMARK INTER:                 -10.191
REMARK INTRA:                  -4.514
REMARK CONF_INDEPENDENT:        2.983
REMARK UNBOUND:                -4.514
REMARK  10 active torsions:
REMARK  status: ('A' for Active; 'I' for Inactive)
REMARK    1  A    between atoms: C_2  and  O_3 
REMARK    2  A    between atoms: C_2  and  C_4 
REMARK    3  A    between atoms: C_4  and  N_5 
REMARK    4  A    between atoms: N_5  and  C_6 
REMARK    5  A    between atoms: N_14  and  C_15 
REMARK    6  A    between atoms: C_15  and  C_16 
REMARK       I    between atoms: C_16  and  N_18 
REMARK    7  A    between atoms: N_18  and  C_19 
REMARK    8  A    between atoms: C_23  and  C_24 
REMARK       I    between atoms: C_24  and  N_26 
REMARK    9  A    between atoms: N_26  and  C_27 
REMARK   10  A    between atoms: C_31  and  C_32 
ROOT
ATOM      1  C   UNL d   1      27.843 -14.758   1.823  0.00  0.00     0.241 C 
ATOM      2  O   UNL d   1      26.789 -14.127   1.727  0.00  0.00    -0.271 OA
ATOM      3  N   UNL d   1      27.934 -15.835   0.962  0.00  0.00    -0.326 N 
ATOM      4  H   UNL d   1      28.308 -16.693   1.349  0.00  0.00     0.169 HD
ENDROOT
BRANCH   3   5
ATOM      5  C   UNL d   1      26.847 -15.941   0.001  0.00  0.00     0.035 A 
ATOM      6  C   UNL d   1      26.150 -17.161  -0.145  0.00  0.00     0.029 A 
ATOM      7  C   UNL d   1      25.156 -17.320  -1.110  0.00  0.00     0.003 A 
ATOM      8  C   UNL d   1      24.952 -16.310  -2.044  0.00  0.00     0.017 A 
ATOM      9  C   UNL d   1      25.669 -15.098  -1.957  0.00  0.00     0.034 A 
ATOM     10  C   UNL d   1      26.561 -14.895  -0.881  0.00  0.00     0.046 A 
BRANCH   9  11
ATOM     11  C   UNL d   1      25.436 -14.087  -3.046  0.00  0.00     0.256 C 
ATOM     12  O   UNL d   1      24.791 -14.444  -4.032  0.00  0.00    -0.267 OA
ATOM     13  N   UNL d   1      26.015 -12.822  -2.913  0.00  0.00    -0.323 N 
ATOM     14  H   UNL d   1      26.754 -12.686  -2.243  0.00  0.00     0.169 HD
BRANCH  13  15
ATOM     15  C   UNL d   1      25.852 -11.820  -3.901  0.00  0.00     0.035 C 
ATOM     16  C   UNL d   1      26.006 -12.135  -5.252  0.00  0.00     0.029 C 
ATOM     17  C   UNL d   1      25.882 -11.157  -6.234  0.00  0.00     0.003 C 
ATOM     18  C   UNL d   1      25.758  -9.824  -5.862  0.00  0.00     0.016 C 
ATOM     19  C   UNL d   1      25.605  -9.480  -4.510  0.00  0.00     0.050 C 
ATOM     20  C   UNL d   1      25.542 -10.503  -3.540  0.00  0.00     0.045 C 
BRANCH  19  21
ATOM     21  C   UNL d   1      25.583  -8.018  -4.139  0.00  0.00     0.417 C 
ATOM     22  F   UNL d   1      24.487  -7.375  -4.636  0.00  0.00    -0.166 F 
ATOM     23  F   UNL d   1      25.547  -7.820  -2.792  0.00  0.00    -0.166 F 
ATOM     24  F   UNL d   1      26.660  -7.321  -4.594  0.00  0.00    -0.166 F 
ENDBRANCH  19  21
ENDBRANCH  13  15
ENDBRANCH   9  11
ENDBRANCH   3   5
BRANCH   1  25
ATOM     25  C   UNL d   1      28.853 -14.432   2.900  0.00  0.00     0.251 C 
BRANCH  25  26
ATOM     26  N   UNL d   1      28.492 -13.424   3.938  0.00  0.00    -0.171 N 
ATOM     27  C   UNL d   1      28.673 -13.447   5.322  0.00  0.00     0.081 A 
ATOM     28  C   UNL d   1      29.181 -14.351   6.277  0.00  0.00     0.032 A 
ATOM     29  C   UNL d   1      28.208 -12.212   5.777  0.00  0.00     0.103 A 
ATOM     30  C   UNL d   1      29.270 -14.076   7.625  0.00  0.00     0.002 A 
ATOM     31  C   UNL d   1      28.792 -12.882   8.084  0.00  0.00     0.002 A 
ATOM     32  C   UNL d   1      28.257 -11.945   7.176  0.00  0.00     0.034 A 
ATOM     33  N   UNL d   1      27.768 -11.447   4.715  0.00  0.00    -0.063 NA
ATOM     34  C   UNL d   1      27.936 -12.171   3.625  0.00  0.00     0.704 A 
BRANCH  34  35
ATOM     35  N   UNL d   1      27.723 -11.732   2.345  0.00  0.00    -0.222 N 
ATOM     36  H   UNL d   1      26.942 -12.202   1.876  0.00  0.00     0.177 HD
BRANCH  35  37
ATOM     37  C   UNL d   1      28.849 -11.545   1.424  0.00  0.00     0.169 C 
BRANCH  37  38
ATOM     38  C   UNL d   1      28.434 -11.639  -0.056  0.00  0.00     0.132 C 
ATOM     39  C   UNL d   1      29.333 -12.636  -0.785  0.00  0.00     0.041 C 
BRANCH  38  40
ATOM     40  O   UNL d   1      27.076 -12.050  -0.189  0.00  0.00    -0.394 OA
ATOM     41  H   UNL d   1      26.922 -12.798   0.414  0.00  0.00     0.210 HD
ENDBRANCH  38  40
ENDBRANCH  37  38
ENDBRANCH  35  37
ENDBRANCH  34  35
ENDBRANCH  25  26
ENDBRANCH   1  25
TORSDOF 10
ENDMDL
MODEL 7
REMARK VINA RESULT:    -7.190      5.316     10.417
REMARK INTER + INTRA:         -14.584
REMARK INTER:                 -10.173
REMARK INTRA:                  -4.411
REMARK CONF_INDEPENDENT:        2.983
REMARK UNBOUND:                -4.411
REMARK  10 active torsions:
REMARK  status: ('A' for Active; 'I' for Inactive)
REMARK    1  A    between atoms: C_2  and  O_3 
REMARK    2  A    between atoms: C_2  and  C_4 
REMARK    3  A    between atoms: C_4  and  N_5 
REMARK    4  A    between atoms: N_5  and  C_6 
REMARK    5  A    between atoms: N_14  and  C_15 
REMARK    6  A    between atoms: C_15  and  C_16 
REMARK       I    between atoms: C_16  and  N_18 
REMARK    7  A    between atoms: N_18  and  C_19 
REMARK    8  A    between atoms: C_23  and  C_24 
REMARK       I    between atoms: C_24  and  N_26 
REMARK    9  A    between atoms: N_26  and  C_27 
REMARK   10  A    between atoms: C_31  and  C_32 
ROOT
ATOM      1  C   UNL d   1      25.175 -13.811  -3.922  0.00  0.00     0.241 C 
ATOM      2  O   UNL d   1      25.446 -14.501  -4.905  0.00  0.00    -0.271 OA
ATOM      3  N   UNL d   1      25.772 -12.564  -3.928  0.00  0.00    -0.326 N 
ATOM      4  H   UNL d   1      26.168 -12.249  -3.051  0.00  0.00     0.169 HD
ENDROOT
BRANCH   3   5
ATOM      5  C   UNL d   1      26.484 -12.235  -5.152  0.00  0.00     0.035 A 
ATOM      6  C   UNL d   1      25.925 -11.319  -6.070  0.00  0.00     0.029 A 
ATOM      7  C   UNL d   1      26.544 -11.041  -7.288  0.00  0.00     0.003 A 
ATOM      8  C   UNL d   1      27.651 -11.789  -7.672  0.00  0.00     0.017 A 
ATOM      9  C   UNL d   1      28.205 -12.749  -6.798  0.00  0.00     0.034 A 
ATOM     10  C   UNL d   1      27.658 -12.909  -5.506  0.00  0.00     0.046 A 
BRANCH   9  11
ATOM     11  C   UNL d   1      29.359 -13.560  -7.318  0.00  0.00     0.256 C 
ATOM     12  O   UNL d   1      29.987 -13.114  -8.279  0.00  0.00    -0.267 OA
ATOM     13  N   UNL d   1      29.618 -14.801  -6.730  0.00  0.00    -0.323 N 
ATOM     14  H   UNL d   1      28.910 -15.233  -6.158  0.00  0.00     0.169 HD
BRANCH  13  15
ATOM     15  C   UNL d   1      30.679 -15.630  -7.172  0.00  0.00     0.035 C 
ATOM     16  C   UNL d   1      31.858 -15.061  -7.655  0.00  0.00     0.029 C 
ATOM     17  C   UNL d   1      32.899 -15.859  -8.123  0.00  0.00     0.003 C 
ATOM     18  C   UNL d   1      32.704 -17.228  -8.257  0.00  0.00     0.016 C 
ATOM     19  C   UNL d   1      31.527 -17.824  -7.781  0.00  0.00     0.050 C 
ATOM     20  C   UNL d   1      30.560 -17.024  -7.135  0.00  0.00     0.045 C 
BRANCH  19  21
ATOM     21  C   UNL d   1      31.308 -19.294  -8.043  0.00  0.00     0.417 C 
ATOM     22  F   UNL d   1      32.437 -20.030  -7.828  0.00  0.00    -0.166 F 
ATOM     23  F   UNL d   1      30.356 -19.834  -7.234  0.00  0.00    -0.166 F 
ATOM     24  F   UNL d   1      30.922 -19.571  -9.319  0.00  0.00    -0.166 F 
ENDBRANCH  19  21
ENDBRANCH  13  15
ENDBRANCH   9  11
ENDBRANCH   3   5
BRANCH   1  25
ATOM     25  C   UNL d   1      24.373 -14.373  -2.770  0.00  0.00     0.251 C 
BRANCH  25  26
ATOM     26  N   UNL d   1      24.923 -15.536  -2.016  0.00  0.00    -0.171 N 
ATOM     27  C   UNL d   1      24.268 -16.574  -1.351  0.00  0.00     0.081 A 
ATOM     28  C   UNL d   1      22.934 -16.937  -1.073  0.00  0.00     0.032 A 
ATOM     29  C   UNL d   1      25.281 -17.414  -0.886  0.00  0.00     0.103 A 
ATOM     30  C   UNL d   1      22.574 -18.083  -0.397  0.00  0.00     0.002 A 
ATOM     31  C   UNL d   1      23.558 -18.896   0.087  0.00  0.00     0.002 A 
ATOM     32  C   UNL d   1      24.912 -18.574  -0.146  0.00  0.00     0.034 A 
ATOM     33  N   UNL d   1      26.517 -16.923  -1.260  0.00  0.00    -0.063 NA
ATOM     34  C   UNL d   1      26.300 -15.807  -1.929  0.00  0.00     0.704 A 
BRANCH  34  35
ATOM     35  N   UNL d   1      27.262 -15.069  -2.567  0.00  0.00    -0.222 N 
ATOM     36  H   UNL d   1      26.979 -14.747  -3.498  0.00  0.00     0.177 HD
BRANCH  35  37
ATOM     37  C   UNL d   1      28.660 -15.509  -2.567  0.00  0.00     0.169 C 
BRANCH  37  38
ATOM     38  C   UNL d   1      29.172 -15.875  -3.972  0.00  0.00     0.132 C 
ATOM     39  C   UNL d   1      29.896 -17.220  -3.927  0.00  0.00     0.041 C 
BRANCH  38  40
ATOM     40  O   UNL d   1      28.103 -15.950  -4.910  0.00  0.00    -0.394 OA
ATOM     41  H   UNL d   1      27.508 -15.196  -4.758  0.00  0.00     0.210 HD
ENDBRANCH  38  40
ENDBRANCH  37  38
ENDBRANCH  35  37
ENDBRANCH  34  35
ENDBRANCH  25  26
ENDBRANCH   1  25
TORSDOF 10
ENDMDL
MODEL 8
REMARK VINA RESULT:    -6.840      6.541     10.252
REMARK INTER + INTRA:         -14.381
REMARK INTER:                  -9.823
REMARK INTRA:                  -4.558
REMARK CONF_INDEPENDENT:        2.983
REMARK UNBOUND:                -4.558
REMARK  10 active torsions:
REMARK  status: ('A' for Active; 'I' for Inactive)
REMARK    1  A    between atoms: C_2  and  O_3 
REMARK    2  A    between atoms: C_2  and  C_4 
REMARK    3  A    between atoms: C_4  and  N_5 
REMARK    4  A    between atoms: N_5  and  C_6 
REMARK    5  A    between atoms: N_14  and  C_15 
REMARK    6  A    between atoms: C_15  and  C_16 
REMARK       I    between atoms: C_16  and  N_18 
REMARK    7  A    between atoms: N_18  and  C_19 
REMARK    8  A    between atoms: C_23  and  C_24 
REMARK       I    between atoms: C_24  and  N_26 
REMARK    9  A    between atoms: N_26  and  C_27 
REMARK   10  A    between atoms: C_31  and  C_32 
ROOT
ATOM      1  C   UNL d   1      27.826 -14.740   1.755  0.00  0.00     0.241 C 
ATOM      2  O   UNL d   1      26.825 -14.042   1.586  0.00  0.00    -0.271 OA
ATOM      3  N   UNL d   1      27.885 -15.848   0.930  0.00  0.00    -0.326 N 
ATOM      4  H   UNL d   1      28.178 -16.717   1.360  0.00  0.00     0.169 HD
ENDROOT
BRANCH   3   5
ATOM      5  C   UNL d   1      26.844 -15.909  -0.083  0.00  0.00     0.035 A 
ATOM      6  C   UNL d   1      26.069 -17.082  -0.230  0.00  0.00     0.029 A 
ATOM      7  C   UNL d   1      25.117 -17.202  -1.241  0.00  0.00     0.003 A 
ATOM      8  C   UNL d   1      25.032 -16.213  -2.213  0.00  0.00     0.017 A 
ATOM      9  C   UNL d   1      25.829 -15.051  -2.126  0.00  0.00     0.034 A 
ATOM     10  C   UNL d   1      26.677 -14.875  -1.010  0.00  0.00     0.046 A 
BRANCH   9  11
ATOM     11  C   UNL d   1      25.724 -14.064  -3.254  0.00  0.00     0.256 C 
ATOM     12  O   UNL d   1      25.155 -14.427  -4.284  0.00  0.00    -0.267 OA
ATOM     13  N   UNL d   1      26.331 -12.814  -3.102  0.00  0.00    -0.323 N 
ATOM     14  H   UNL d   1      27.014 -12.683  -2.374  0.00  0.00     0.169 HD
BRANCH  13  15
ATOM     15  C   UNL d   1      26.288 -11.834  -4.124  0.00  0.00     0.035 C 
ATOM     16  C   UNL d   1      25.530 -10.674  -3.952  0.00  0.00     0.029 C 
ATOM     17  C   UNL d   1      25.450  -9.715  -4.958  0.00  0.00     0.003 C 
ATOM     18  C   UNL d   1      26.001  -9.983  -6.205  0.00  0.00     0.016 C 
ATOM     19  C   UNL d   1      26.765 -11.143  -6.404  0.00  0.00     0.050 C 
ATOM     20  C   UNL d   1      26.996 -12.014  -5.318  0.00  0.00     0.045 C 
BRANCH  19  21
ATOM     21  C   UNL d   1      27.255 -11.450  -7.798  0.00  0.00     0.417 C 
ATOM     22  F   UNL d   1      28.243 -10.599  -8.199  0.00  0.00    -0.166 F 
ATOM     23  F   UNL d   1      27.780 -12.702  -7.904  0.00  0.00    -0.166 F 
ATOM     24  F   UNL d   1      26.285 -11.366  -8.750  0.00  0.00    -0.166 F 
ENDBRANCH  19  21
ENDBRANCH  13  15
ENDBRANCH   9  11
ENDBRANCH   3   5
BRANCH   1  25
ATOM     25  C   UNL d   1      28.801 -14.450   2.874  0.00  0.00     0.251 C 
BRANCH  25  26
ATOM     26  N   UNL d   1      28.445 -13.408   3.879  0.00  0.00    -0.171 N 
ATOM     27  C   UNL d   1      28.574 -13.412   5.270  0.00  0.00     0.081 A 
ATOM     28  C   UNL d   1      29.005 -14.319   6.260  0.00  0.00     0.032 A 
ATOM     29  C   UNL d   1      28.147 -12.150   5.685  0.00  0.00     0.103 A 
ATOM     30  C   UNL d   1      29.055 -14.023   7.605  0.00  0.00     0.002 A 
ATOM     31  C   UNL d   1      28.613 -12.800   8.024  0.00  0.00     0.002 A 
ATOM     32  C   UNL d   1      28.155 -11.859   7.080  0.00  0.00     0.034 A 
ATOM     33  N   UNL d   1      27.781 -11.387   4.593  0.00  0.00    -0.063 NA
ATOM     34  C   UNL d   1      27.957 -12.139   3.524  0.00  0.00     0.704 A 
BRANCH  34  35
ATOM     35  N   UNL d   1      27.812 -11.715   2.229  0.00  0.00    -0.222 N 
ATOM     36  H   UNL d   1      27.068 -12.204   1.720  0.00  0.00     0.177 HD
BRANCH  35  37
ATOM     37  C   UNL d   1      28.987 -11.516   1.374  0.00  0.00     0.169 C 
BRANCH  37  38
ATOM     38  C   UNL d   1      28.667 -11.659  -0.125  0.00  0.00     0.132 C 
ATOM     39  C   UNL d   1      29.507 -12.784  -0.730  0.00  0.00     0.041 C 
BRANCH  38  40
ATOM     40  O   UNL d   1      27.287 -11.941  -0.337  0.00  0.00    -0.394 OA
ATOM     41  H   UNL d   1      27.135 -12.885  -0.156  0.00  0.00     0.210 HD
ENDBRANCH  38  40
ENDBRANCH  37  38
ENDBRANCH  35  37
ENDBRANCH  34  35
ENDBRANCH  25  26
ENDBRANCH   1  25
TORSDOF 10
ENDMDL
