MODEL 1
REMARK VINA RESULT:    -7.978      0.000      0.000
REMARK INTER + INTRA:         -10.444
REMARK INTER:                  -9.470
REMARK INTRA:                  -0.974
REMARK CONF_INDEPENDENT:        1.492
REMARK UNBOUND:                -0.974
REMARK  5 active torsions:
REMARK  status: ('A' for Active; 'I' for Inactive)
REMARK    1  A    between atoms: C_2  and  N_5 
REMARK       I    between atoms: N_5  and  C_6 
REMARK    2  A    between atoms: C_6  and  C_8 
REMARK    3  A    between atoms: C_12  and  N_13 
REMARK    4  A    between atoms: N_13  and  C_14 
REMARK    5  A    between atoms: C_14  and  C_15 
REMARK       I    between atoms: C_15  and  N_17 
REMARK       I    between atoms: N_17  and  C_18 
REMARK       I    between atoms: C_18  and  N_19 
ROOT
ATOM      1  C   UNL d   1      23.323 -17.975  -0.676  0.00  0.00     0.034 A 
ATOM      2  C   UNL d   1      24.200 -18.508   0.271  0.00  0.00     0.017 A 
ATOM      3  C   UNL d   1      25.540 -18.138   0.253  0.00  0.00     0.003 A 
ATOM      4  C   UNL d   1      26.007 -17.278  -0.746  0.00  0.00     0.029 A 
ATOM      5  C   UNL d   1      25.135 -16.718  -1.696  0.00  0.00     0.029 A 
ATOM      6  C   UNL d   1      23.784 -17.083  -1.645  0.00  0.00     0.046 A 
ENDROOT
BRANCH   5   7
ATOM      7  N   UNL d   1      25.627 -15.858  -2.655  0.00  0.00    -0.381 N 
ATOM      8  H   UNL d   1      26.584 -15.979  -2.991  0.00  0.00     0.160 HD
BRANCH   7   9
ATOM      9  C   UNL d   1      24.977 -14.605  -3.043  0.00  0.00     0.223 C 
BRANCH   9  10
ATOM     10  C   UNL d   1      25.847 -13.878  -4.076  0.00  0.00     0.243 C 
ATOM     11  O   UNL d   1      26.874 -14.396  -4.520  0.00  0.00    -0.271 OA
ATOM     12  N   UNL d   1      25.403 -12.620  -4.458  0.00  0.00    -0.278 N 
ATOM     13  C   UNL d   1      26.002 -11.790  -5.368  0.00  0.00     0.320 C 
ATOM     14  H   UNL d   1      24.560 -12.227  -4.064  0.00  0.00     0.173 HD
ATOM     15  N   UNL d   1      27.136 -12.241  -5.945  0.00  0.00    -0.352 N 
ATOM     16  O   UNL d   1      25.529 -10.691  -5.645  0.00  0.00    -0.247 OA
ATOM     17  H   UNL d   1      27.506 -13.154  -5.692  0.00  0.00     0.160 HD
ATOM     18  H   UNL d   1      27.631 -11.680  -6.621  0.00  0.00     0.160 HD
ENDBRANCH   9  10
ENDBRANCH   7   9
ENDBRANCH   5   7
BRANCH   1  19
ATOM     19  C   UNL d   1      21.887 -18.266  -0.523  0.00  0.00     0.252 C 
ATOM     20  N   UNL d   1      21.522 -19.474   0.045  0.00  0.00    -0.349 N 
ATOM     21  H   UNL d   1      22.246 -20.092   0.392  0.00  0.00     0.163 HD
ATOM     22  O   UNL d   1      21.094 -17.402  -0.895  0.00  0.00    -0.268 OA
BRANCH  20  23
ATOM     23  C   UNL d   1      20.111 -19.810   0.314  0.00  0.00     0.022 C 
ATOM     24  C   UNL d   1      19.905 -21.336   0.268  0.00  0.00     0.037 C 
ATOM     25  C   UNL d   1      19.206 -19.176  -0.755  0.00  0.00     0.037 C 
ATOM     26  C   UNL d   1      19.693 -19.326   1.716  0.00  0.00     0.037 C 
ENDBRANCH  20  23
ENDBRANCH   1  19
TORSDOF 5
ENDMDL
MODEL 2
REMARK VINA RESULT:    -7.973      1.910      2.358
REMARK INTER + INTRA:         -10.472
REMARK INTER:                  -9.464
REMARK INTRA:                  -1.008
REMARK CONF_INDEPENDENT:        1.492
REMARK UNBOUND:                -1.008
REMARK  5 active torsions:
REMARK  status: ('A' for Active; 'I' for Inactive)
REMARK    1  A    between atoms: C_2  and  N_5 
REMARK       I    between atoms: N_5  and  C_6 
REMARK    2  A    between atoms: C_6  and  C_8 
REMARK    3  A    between atoms: C_12  and  N_13 
REMARK    4  A    between atoms: N_13  and  C_14 
REMARK    5  A    between atoms: C_14  and  C_15 
REMARK       I    between atoms: C_15  and  N_17 
REMARK       I    between atoms: N_17  and  C_18 
REMARK       I    between atoms: C_18  and  N_19 
ROOT
ATOM      1  C   UNL d   1      23.278 -18.034  -0.704  0.00  0.00     0.034 A 
ATOM      2  C   UNL d   1      24.148 -18.530   0.268  0.00  0.00     0.017 A 
ATOM      3  C   UNL d   1      25.485 -18.151   0.254  0.00  0.00     0.003 A 
ATOM      4  C   UNL d   1      25.957 -17.318  -0.766  0.00  0.00     0.029 A 
ATOM      5  C   UNL d   1      25.092 -16.794  -1.742  0.00  0.00     0.029 A 
ATOM      6  C   UNL d   1      23.743 -17.167  -1.695  0.00  0.00     0.046 A 
ENDROOT
BRANCH   5   7
ATOM      7  N   UNL d   1      25.588 -15.959  -2.721  0.00  0.00    -0.381 N 
ATOM      8  H   UNL d   1      25.004 -15.732  -3.528  0.00  0.00     0.160 HD
BRANCH   7   9
ATOM      9  C   UNL d   1      26.997 -15.579  -2.837  0.00  0.00     0.223 C 
BRANCH   9  10
ATOM     10  C   UNL d   1      27.357 -15.399  -4.317  0.00  0.00     0.243 C 
ATOM     11  O   UNL d   1      26.508 -15.543  -5.200  0.00  0.00    -0.271 OA
ATOM     12  N   UNL d   1      28.679 -15.073  -4.580  0.00  0.00    -0.278 N 
ATOM     13  C   UNL d   1      29.231 -14.852  -5.814  0.00  0.00     0.320 C 
ATOM     14  H   UNL d   1      29.346 -14.971  -3.828  0.00  0.00     0.173 HD
ATOM     15  N   UNL d   1      28.405 -14.966  -6.876  0.00  0.00    -0.352 N 
ATOM     16  O   UNL d   1      30.417 -14.563  -5.946  0.00  0.00    -0.247 OA
ATOM     17  H   UNL d   1      27.428 -15.210  -6.735  0.00  0.00     0.160 HD
ATOM     18  H   UNL d   1      28.746 -14.820  -7.814  0.00  0.00     0.160 HD
ENDBRANCH   9  10
ENDBRANCH   7   9
ENDBRANCH   5   7
BRANCH   1  19
ATOM     19  C   UNL d   1      21.842 -18.330  -0.558  0.00  0.00     0.252 C 
ATOM     20  N   UNL d   1      21.480 -19.559  -0.035  0.00  0.00    -0.349 N 
ATOM     21  H   UNL d   1      22.205 -20.189   0.286  0.00  0.00     0.163 HD
ATOM     22  O   UNL d   1      21.048 -17.454  -0.895  0.00  0.00    -0.268 OA
BRANCH  20  23
ATOM     23  C   UNL d   1      20.069 -19.905   0.226  0.00  0.00     0.022 C 
ATOM     24  C   UNL d   1      19.618 -19.328   1.582  0.00  0.00     0.037 C 
ATOM     25  C   UNL d   1      19.905 -21.432   0.283  0.00  0.00     0.037 C 
ATOM     26  C   UNL d   1      19.152 -19.314  -0.860  0.00  0.00     0.037 C 
ENDBRANCH  20  23
ENDBRANCH   1  19
TORSDOF 5
ENDMDL
MODEL 3
REMARK VINA RESULT:    -7.965      2.123      8.613
REMARK INTER + INTRA:         -10.452
REMARK INTER:                  -9.457
REMARK INTRA:                  -0.995
REMARK CONF_INDEPENDENT:        1.492
REMARK UNBOUND:                -0.995
REMARK  5 active torsions:
REMARK  status: ('A' for Active; 'I' for Inactive)
REMARK    1  A    between atoms: C_2  and  N_5 
REMARK       I    between atoms: N_5  and  C_6 
REMARK    2  A    between atoms: C_6  and  C_8 
REMARK    3  A    between atoms: C_12  and  N_13 
REMARK    4  A    between atoms: N_13  and  C_14 
REMARK    5  A    between atoms: C_14  and  C_15 
REMARK       I    between atoms: C_15  and  N_17 
REMARK       I    between atoms: N_17  and  C_18 
REMARK       I    between atoms: C_18  and  N_19 
ROOT
ATOM      1  C   UNL d   1      25.754 -15.916  -2.261  0.00  0.00     0.034 A 
ATOM      2  C   UNL d   1      26.769 -16.443  -1.460  0.00  0.00     0.017 A 
ATOM      3  C   UNL d   1      26.447 -17.309  -0.422  0.00  0.00     0.003 A 
ATOM      4  C   UNL d   1      25.106 -17.602  -0.156  0.00  0.00     0.029 A 
ATOM      5  C   UNL d   1      24.072 -17.096  -0.964  0.00  0.00     0.029 A 
ATOM      6  C   UNL d   1      24.420 -16.246  -2.021  0.00  0.00     0.046 A 
ENDROOT
BRANCH   5   7
ATOM      7  N   UNL d   1      22.762 -17.422  -0.684  0.00  0.00    -0.381 N 
ATOM      8  H   UNL d   1      22.021 -16.761  -0.923  0.00  0.00     0.160 HD
BRANCH   7   9
ATOM      9  C   UNL d   1      22.361 -18.535   0.178  0.00  0.00     0.223 C 
BRANCH   9  10
ATOM     10  C   UNL d   1      20.931 -18.964  -0.175  0.00  0.00     0.243 C 
ATOM     11  O   UNL d   1      20.264 -18.336  -1.002  0.00  0.00    -0.271 OA
ATOM     12  N   UNL d   1      20.456 -20.083   0.493  0.00  0.00    -0.278 N 
ATOM     13  C   UNL d   1      19.223 -20.658   0.338  0.00  0.00     0.320 C 
ATOM     14  H   UNL d   1      21.031 -20.565   1.169  0.00  0.00     0.173 HD
ATOM     15  N   UNL d   1      18.391 -20.076  -0.551  0.00  0.00    -0.352 N 
ATOM     16  O   UNL d   1      18.893 -21.655   0.975  0.00  0.00    -0.247 OA
ATOM     17  H   UNL d   1      18.691 -19.249  -1.061  0.00  0.00     0.160 HD
ATOM     18  H   UNL d   1      17.466 -20.445  -0.713  0.00  0.00     0.160 HD
ENDBRANCH   9  10
ENDBRANCH   7   9
ENDBRANCH   5   7
BRANCH   1  19
ATOM     19  C   UNL d   1      26.149 -15.134  -3.446  0.00  0.00     0.252 C 
ATOM     20  N   UNL d   1      27.465 -14.720  -3.546  0.00  0.00    -0.349 N 
ATOM     21  H   UNL d   1      28.128 -15.016  -2.839  0.00  0.00     0.163 HD
ATOM     22  O   UNL d   1      25.282 -14.912  -4.290  0.00  0.00    -0.268 OA
BRANCH  20  23
ATOM     23  C   UNL d   1      27.967 -14.009  -4.737  0.00  0.00     0.022 C 
ATOM     24  C   UNL d   1      27.032 -12.837  -5.095  0.00  0.00     0.037 C 
ATOM     25  C   UNL d   1      28.011 -14.964  -5.941  0.00  0.00     0.037 C 
ATOM     26  C   UNL d   1      29.367 -13.424  -4.475  0.00  0.00     0.037 C 
ENDBRANCH  20  23
ENDBRANCH   1  19
TORSDOF 5
ENDMDL
MODEL 4
REMARK VINA RESULT:    -7.462      3.562      4.608
REMARK INTER + INTRA:          -9.539
REMARK INTER:                  -8.954
REMARK INTRA:                  -0.586
REMARK CONF_INDEPENDENT:        1.492
REMARK UNBOUND:                -0.586
REMARK  5 active torsions:
REMARK  status: ('A' for Active; 'I' for Inactive)
REMARK    1  A    between atoms: C_2  and  N_5 
REMARK       I    between atoms: N_5  and  C_6 
REMARK    2  A    between atoms: C_6  and  C_8 
REMARK    3  A    between atoms: C_12  and  N_13 
REMARK    4  A    between atoms: N_13  and  C_14 
REMARK    5  A    between atoms: C_14  and  C_15 
REMARK       I    between atoms: C_15  and  N_17 
REMARK       I    between atoms: N_17  and  C_18 
REMARK       I    between atoms: C_18  and  N_19 
ROOT
ATOM      1  C   UNL d   1      22.959 -18.001  -0.634  0.00  0.00     0.034 A 
ATOM      2  C   UNL d   1      22.902 -16.708  -1.158  0.00  0.00     0.017 A 
ATOM      3  C   UNL d   1      24.066 -15.956  -1.263  0.00  0.00     0.003 A 
ATOM      4  C   UNL d   1      25.275 -16.482  -0.794  0.00  0.00     0.029 A 
ATOM      5  C   UNL d   1      25.353 -17.789  -0.281  0.00  0.00     0.029 A 
ATOM      6  C   UNL d   1      24.173 -18.539  -0.207  0.00  0.00     0.046 A 
ENDROOT
BRANCH   5   7
ATOM      7  N   UNL d   1      26.565 -18.282   0.155  0.00  0.00    -0.381 N 
ATOM      8  H   UNL d   1      26.653 -19.278   0.364  0.00  0.00     0.160 HD
BRANCH   7   9
ATOM      9  C   UNL d   1      27.677 -17.443   0.604  0.00  0.00     0.223 C 
BRANCH   9  10
ATOM     10  C   UNL d   1      28.689 -17.282  -0.538  0.00  0.00     0.243 C 
ATOM     11  O   UNL d   1      28.545 -16.408  -1.396  0.00  0.00    -0.271 OA
ATOM     12  N   UNL d   1      29.748 -18.178  -0.535  0.00  0.00    -0.278 N 
ATOM     13  C   UNL d   1      30.775 -18.223  -1.440  0.00  0.00     0.320 C 
ATOM     14  H   UNL d   1      29.825 -18.886   0.181  0.00  0.00     0.173 HD
ATOM     15  N   UNL d   1      30.750 -17.307  -2.431  0.00  0.00    -0.352 N 
ATOM     16  O   UNL d   1      31.675 -19.054  -1.351  0.00  0.00    -0.247 OA
ATOM     17  H   UNL d   1      29.989 -16.634  -2.481  0.00  0.00     0.160 HD
ATOM     18  H   UNL d   1      31.473 -17.285  -3.134  0.00  0.00     0.160 HD
ENDBRANCH   9  10
ENDBRANCH   7   9
ENDBRANCH   5   7
BRANCH   1  19
ATOM     19  C   UNL d   1      21.735 -18.819  -0.690  0.00  0.00     0.252 C 
ATOM     20  N   UNL d   1      20.984 -18.950   0.465  0.00  0.00    -0.349 N 
ATOM     21  H   UNL d   1      21.261 -18.434   1.292  0.00  0.00     0.163 HD
ATOM     22  O   UNL d   1      21.444 -19.325  -1.772  0.00  0.00    -0.268 OA
BRANCH  20  23
ATOM     23  C   UNL d   1      19.701 -19.679   0.478  0.00  0.00     0.022 C 
ATOM     24  C   UNL d   1      19.949 -21.200   0.505  0.00  0.00     0.037 C 
ATOM     25  C   UNL d   1      18.898 -19.352  -0.791  0.00  0.00     0.037 C 
ATOM     26  C   UNL d   1      18.881 -19.318   1.731  0.00  0.00     0.037 C 
ENDBRANCH  20  23
ENDBRANCH   1  19
TORSDOF 5
ENDMDL
MODEL 5
REMARK VINA RESULT:    -7.406      2.480      8.660
REMARK INTER + INTRA:         -10.011
REMARK INTER:                  -8.898
REMARK INTRA:                  -1.113
REMARK CONF_INDEPENDENT:        1.492
REMARK UNBOUND:                -1.113
REMARK  5 active torsions:
REMARK  status: ('A' for Active; 'I' for Inactive)
REMARK    1  A    between atoms: C_2  and  N_5 
REMARK       I    between atoms: N_5  and  C_6 
REMARK    2  A    between atoms: C_6  and  C_8 
REMARK    3  A    between atoms: C_12  and  N_13 
REMARK    4  A    between atoms: N_13  and  C_14 
REMARK    5  A    between atoms: C_14  and  C_15 
REMARK       I    between atoms: C_15  and  N_17 
REMARK       I    between atoms: N_17  and  C_18 
REMARK       I    between atoms: C_18  and  N_19 
ROOT
ATOM      1  C   UNL d   1      26.839 -15.897  -2.772  0.00  0.00     0.034 A 
ATOM      2  C   UNL d   1      27.750 -16.256  -1.776  0.00  0.00     0.017 A 
ATOM      3  C   UNL d   1      27.295 -16.874  -0.617  0.00  0.00     0.003 A 
ATOM      4  C   UNL d   1      25.924 -17.082  -0.436  0.00  0.00     0.029 A 
ATOM      5  C   UNL d   1      24.995 -16.745  -1.435  0.00  0.00     0.029 A 
ATOM      6  C   UNL d   1      25.476 -16.147  -2.607  0.00  0.00     0.046 A 
ENDROOT
BRANCH   5   7
ATOM      7  N   UNL d   1      23.652 -16.983  -1.231  0.00  0.00    -0.381 N 
ATOM      8  H   UNL d   1      22.964 -16.342  -1.630  0.00  0.00     0.160 HD
BRANCH   7   9
ATOM      9  C   UNL d   1      23.129 -17.940  -0.255  0.00  0.00     0.223 C 
BRANCH   9  10
ATOM     10  C   UNL d   1      21.653 -18.224  -0.559  0.00  0.00     0.243 C 
ATOM     11  O   UNL d   1      20.989 -17.458  -1.263  0.00  0.00    -0.271 OA
ATOM     12  N   UNL d   1      21.132 -19.378   0.008  0.00  0.00    -0.278 N 
ATOM     13  C   UNL d   1      19.851 -19.843  -0.129  0.00  0.00     0.320 C 
ATOM     14  H   UNL d   1      21.706 -19.975   0.586  0.00  0.00     0.173 HD
ATOM     15  N   UNL d   1      19.016 -19.104  -0.889  0.00  0.00    -0.352 N 
ATOM     16  O   UNL d   1      19.482 -20.882   0.412  0.00  0.00    -0.247 OA
ATOM     17  H   UNL d   1      19.349 -18.245  -1.321  0.00  0.00     0.160 HD
ATOM     18  H   UNL d   1      18.058 -19.386  -1.030  0.00  0.00     0.160 HD
ENDBRANCH   9  10
ENDBRANCH   7   9
ENDBRANCH   5   7
BRANCH   1  19
ATOM     19  C   UNL d   1      27.377 -15.394  -4.048  0.00  0.00     0.252 C 
ATOM     20  N   UNL d   1      28.615 -14.776  -4.035  0.00  0.00    -0.349 N 
ATOM     21  H   UNL d   1      29.138 -14.741  -3.168  0.00  0.00     0.163 HD
ATOM     22  O   UNL d   1      26.697 -15.573  -5.056  0.00  0.00    -0.268 OA
BRANCH  20  23
ATOM     23  C   UNL d   1      29.267 -14.321  -5.278  0.00  0.00     0.022 C 
ATOM     24  C   UNL d   1      30.690 -13.808  -4.980  0.00  0.00     0.037 C 
ATOM     25  C   UNL d   1      28.467 -13.164  -5.898  0.00  0.00     0.037 C 
ATOM     26  C   UNL d   1      29.391 -15.479  -6.285  0.00  0.00     0.037 C 
ENDBRANCH  20  23
ENDBRANCH   1  19
TORSDOF 5
ENDMDL
MODEL 6
REMARK VINA RESULT:    -6.816      3.723      8.262
REMARK INTER + INTRA:          -9.514
REMARK INTER:                  -8.308
REMARK INTRA:                  -1.206
REMARK CONF_INDEPENDENT:        1.492
REMARK UNBOUND:                -1.206
REMARK  5 active torsions:
REMARK  status: ('A' for Active; 'I' for Inactive)
REMARK    1  A    between atoms: C_2  and  N_5 
REMARK       I    between atoms: N_5  and  C_6 
REMARK    2  A    between atoms: C_6  and  C_8 
REMARK    3  A    between atoms: C_12  and  N_13 
REMARK    4  A    between atoms: N_13  and  C_14 
REMARK    5  A    between atoms: C_14  and  C_15 
REMARK       I    between atoms: C_15  and  N_17 
REMARK       I    between atoms: N_17  and  C_18 
REMARK       I    between atoms: C_18  and  N_19 
ROOT
ATOM      1  C   UNL d   1      26.792 -15.133   0.034  0.00  0.00     0.034 A 
ATOM      2  C   UNL d   1      27.690 -15.430  -0.994  0.00  0.00     0.017 A 
ATOM      3  C   UNL d   1      27.270 -16.193  -2.076  0.00  0.00     0.003 A 
ATOM      4  C   UNL d   1      25.967 -16.701  -2.101  0.00  0.00     0.029 A 
ATOM      5  C   UNL d   1      25.044 -16.396  -1.085  0.00  0.00     0.029 A 
ATOM      6  C   UNL d   1      25.480 -15.604  -0.016  0.00  0.00     0.046 A 
ENDROOT
BRANCH   5   7
ATOM      7  N   UNL d   1      23.761 -16.898  -1.152  0.00  0.00    -0.381 N 
ATOM      8  H   UNL d   1      23.039 -16.360  -1.634  0.00  0.00     0.160 HD
BRANCH   7   9
ATOM      9  C   UNL d   1      23.279 -18.023  -0.351  0.00  0.00     0.223 C 
BRANCH   9  10
ATOM     10  C   UNL d   1      21.783 -18.236  -0.618  0.00  0.00     0.243 C 
ATOM     11  O   UNL d   1      21.131 -17.417  -1.270  0.00  0.00    -0.271 OA
ATOM     12  N   UNL d   1      21.233 -19.389  -0.078  0.00  0.00    -0.278 N 
ATOM     13  C   UNL d   1      19.930 -19.797  -0.191  0.00  0.00     0.320 C 
ATOM     14  H   UNL d   1      21.800 -20.031   0.458  0.00  0.00     0.173 HD
ATOM     15  N   UNL d   1      19.104 -18.996  -0.895  0.00  0.00    -0.352 N 
ATOM     16  O   UNL d   1      19.536 -20.842   0.321  0.00  0.00    -0.247 OA
ATOM     17  H   UNL d   1      19.459 -18.135  -1.305  0.00  0.00     0.160 HD
ATOM     18  H   UNL d   1      18.131 -19.233  -1.015  0.00  0.00     0.160 HD
ENDBRANCH   9  10
ENDBRANCH   7   9
ENDBRANCH   5   7
BRANCH   1  19
ATOM     19  C   UNL d   1      27.229 -14.190   1.078  0.00  0.00     0.252 C 
ATOM     20  N   UNL d   1      28.145 -14.634   2.016  0.00  0.00    -0.349 N 
ATOM     21  H   UNL d   1      28.531 -15.566   1.922  0.00  0.00     0.163 HD
ATOM     22  O   UNL d   1      26.764 -13.052   1.041  0.00  0.00    -0.268 OA
BRANCH  20  23
ATOM     23  C   UNL d   1      28.702 -13.733   3.043  0.00  0.00     0.022 C 
ATOM     24  C   UNL d   1      29.808 -14.449   3.842  0.00  0.00     0.037 C 
ATOM     25  C   UNL d   1      27.599 -13.316   4.030  0.00  0.00     0.037 C 
ATOM     26  C   UNL d   1      29.330 -12.486   2.393  0.00  0.00     0.037 C 
ENDBRANCH  20  23
ENDBRANCH   1  19
TORSDOF 5
ENDMDL
MODEL 7
REMARK VINA RESULT:    -6.551      2.895      8.623
REMARK INTER + INTRA:          -8.834
REMARK INTER:                  -8.042
REMARK INTRA:                  -0.792
REMARK CONF_INDEPENDENT:        1.492
REMARK UNBOUND:                -0.792
REMARK  5 active torsions:
REMARK  status: ('A' for Active; 'I' for Inactive)
REMARK    1  A    between atoms: C_2  and  N_5 
REMARK       I    between atoms: N_5  and  C_6 
REMARK    2  A    between atoms: C_6  and  C_8 
REMARK    3  A    between atoms: C_12  and  N_13 
REMARK    4  A    between atoms: N_13  and  C_14 
REMARK    5  A    between atoms: C_14  and  C_15 
REMARK       I    between atoms: C_15  and  N_17 
REMARK       I    between atoms: N_17  and  C_18 
REMARK       I    between atoms: C_18  and  N_19 
ROOT
ATOM      1  C   UNL d   1      26.556 -15.071  -4.233  0.00  0.00     0.034 A 
ATOM      2  C   UNL d   1      25.906 -13.858  -4.467  0.00  0.00     0.017 A 
ATOM      3  C   UNL d   1      24.787 -13.520  -3.717  0.00  0.00     0.003 A 
ATOM      4  C   UNL d   1      24.290 -14.421  -2.770  0.00  0.00     0.029 A 
ATOM      5  C   UNL d   1      24.941 -15.639  -2.507  0.00  0.00     0.029 A 
ATOM      6  C   UNL d   1      26.083 -15.950  -3.256  0.00  0.00     0.046 A 
ENDROOT
BRANCH   5   7
ATOM      7  N   UNL d   1      24.435 -16.495  -1.553  0.00  0.00    -0.381 N 
ATOM      8  H   UNL d   1      24.881 -17.402  -1.407  0.00  0.00     0.160 HD
BRANCH   7   9
ATOM      9  C   UNL d   1      23.133 -16.323  -0.906  0.00  0.00     0.223 C 
BRANCH   9  10
ATOM     10  C   UNL d   1      22.616 -17.686  -0.429  0.00  0.00     0.243 C 
ATOM     11  O   UNL d   1      23.271 -18.375   0.358  0.00  0.00    -0.271 OA
ATOM     12  N   UNL d   1      21.388 -18.078  -0.942  0.00  0.00    -0.278 N 
ATOM     13  C   UNL d   1      20.723 -19.241  -0.656  0.00  0.00     0.320 C 
ATOM     14  H   UNL d   1      20.887 -17.489  -1.591  0.00  0.00     0.173 HD
ATOM     15  N   UNL d   1      21.324 -20.086   0.207  0.00  0.00    -0.352 N 
ATOM     16  O   UNL d   1      19.633 -19.499  -1.159  0.00  0.00    -0.247 OA
ATOM     17  H   UNL d   1      22.230 -19.847   0.605  0.00  0.00     0.160 HD
ATOM     18  H   UNL d   1      20.892 -20.962   0.460  0.00  0.00     0.160 HD
ENDBRANCH   9  10
ENDBRANCH   7   9
ENDBRANCH   5   7
BRANCH   1  19
ATOM     19  C   UNL d   1      27.828 -15.318  -4.934  0.00  0.00     0.252 C 
ATOM     20  N   UNL d   1      28.930 -15.679  -4.179  0.00  0.00    -0.349 N 
ATOM     21  H   UNL d   1      28.817 -15.821  -3.182  0.00  0.00     0.163 HD
ATOM     22  O   UNL d   1      27.828 -15.205  -6.158  0.00  0.00    -0.268 OA
BRANCH  20  23
ATOM     23  C   UNL d   1      30.219 -16.028  -4.806  0.00  0.00     0.022 C 
ATOM     24  C   UNL d   1      30.113 -17.383  -5.533  0.00  0.00     0.037 C 
ATOM     25  C   UNL d   1      31.311 -16.151  -3.731  0.00  0.00     0.037 C 
ATOM     26  C   UNL d   1      30.622 -14.970  -5.850  0.00  0.00     0.037 C 
ENDBRANCH  20  23
ENDBRANCH   1  19
TORSDOF 5
ENDMDL
MODEL 8
REMARK VINA RESULT:    -6.304      4.164      8.132
REMARK INTER + INTRA:          -8.791
REMARK INTER:                  -7.796
REMARK INTRA:                  -0.995
REMARK CONF_INDEPENDENT:        1.492
REMARK UNBOUND:                -0.995
REMARK  5 active torsions:
REMARK  status: ('A' for Active; 'I' for Inactive)
REMARK    1  A    between atoms: C_2  and  N_5 
REMARK       I    between atoms: N_5  and  C_6 
REMARK    2  A    between atoms: C_6  and  C_8 
REMARK    3  A    between atoms: C_12  and  N_13 
REMARK    4  A    between atoms: N_13  and  C_14 
REMARK    5  A    between atoms: C_14  and  C_15 
REMARK       I    between atoms: C_15  and  N_17 
REMARK       I    between atoms: N_17  and  C_18 
REMARK       I    between atoms: C_18  and  N_19 
ROOT
ATOM      1  C   UNL d   1      27.661 -15.207   0.738  0.00  0.00     0.034 A 
ATOM      2  C   UNL d   1      28.591 -15.005  -0.284  0.00  0.00     0.017 A 
ATOM      3  C   UNL d   1      28.460 -15.697  -1.481  0.00  0.00     0.003 A 
ATOM      4  C   UNL d   1      27.429 -16.629  -1.633  0.00  0.00     0.029 A 
ATOM      5  C   UNL d   1      26.472 -16.832  -0.623  0.00  0.00     0.029 A 
ATOM      6  C   UNL d   1      26.607 -16.106   0.567  0.00  0.00     0.046 A 
ENDROOT
BRANCH   5   7
ATOM      7  N   UNL d   1      25.457 -17.745  -0.814  0.00  0.00    -0.381 N 
ATOM      8  H   UNL d   1      25.679 -18.742  -0.844  0.00  0.00     0.160 HD
BRANCH   7   9
ATOM      9  C   UNL d   1      24.105 -17.389  -1.249  0.00  0.00     0.223 C 
BRANCH   9  10
ATOM     10  C   UNL d   1      23.109 -18.432  -0.727  0.00  0.00     0.243 C 
ATOM     11  O   UNL d   1      23.497 -19.433  -0.119  0.00  0.00    -0.271 OA
ATOM     12  N   UNL d   1      21.772 -18.173  -0.990  0.00  0.00    -0.278 N 
ATOM     13  C   UNL d   1      20.707 -18.948  -0.618  0.00  0.00     0.320 C 
ATOM     14  H   UNL d   1      21.496 -17.345  -1.500  0.00  0.00     0.173 HD
ATOM     15  N   UNL d   1      20.988 -20.074   0.071  0.00  0.00    -0.352 N 
ATOM     16  O   UNL d   1      19.553 -18.632  -0.895  0.00  0.00    -0.247 OA
ATOM     17  H   UNL d   1      21.955 -20.312   0.282  0.00  0.00     0.160 HD
ATOM     18  H   UNL d   1      20.251 -20.694   0.374  0.00  0.00     0.160 HD
ENDBRANCH   9  10
ENDBRANCH   7   9
ENDBRANCH   5   7
BRANCH   1  19
ATOM     19  C   UNL d   1      27.742 -14.338   1.924  0.00  0.00     0.252 C 
ATOM     20  N   UNL d   1      28.555 -14.736   2.971  0.00  0.00    -0.349 N 
ATOM     21  H   UNL d   1      29.113 -15.575   2.867  0.00  0.00     0.163 HD
ATOM     22  O   UNL d   1      27.092 -13.294   1.904  0.00  0.00    -0.268 OA
BRANCH  20  23
ATOM     23  C   UNL d   1      28.762 -13.886   4.159  0.00  0.00     0.022 C 
ATOM     24  C   UNL d   1      29.771 -14.544   5.120  0.00  0.00     0.037 C 
ATOM     25  C   UNL d   1      27.436 -13.706   4.915  0.00  0.00     0.037 C 
ATOM     26  C   UNL d   1      29.332 -12.513   3.755  0.00  0.00     0.037 C 
ENDBRANCH  20  23
ENDBRANCH   1  19
TORSDOF 5
ENDMDL
MODEL 9
REMARK VINA RESULT:    -6.217      3.322      8.523
REMARK INTER + INTRA:          -8.908
REMARK INTER:                  -7.709
REMARK INTRA:                  -1.200
REMARK CONF_INDEPENDENT:        1.492
REMARK UNBOUND:                -1.200
REMARK  5 active torsions:
REMARK  status: ('A' for Active; 'I' for Inactive)
REMARK    1  A    between atoms: C_2  and  N_5 
REMARK       I    between atoms: N_5  and  C_6 
REMARK    2  A    between atoms: C_6  and  C_8 
REMARK    3  A    between atoms: C_12  and  N_13 
REMARK    4  A    between atoms: N_13  and  C_14 
REMARK    5  A    between atoms: C_14  and  C_15 
REMARK       I    between atoms: C_15  and  N_17 
REMARK       I    between atoms: N_17  and  C_18 
REMARK       I    between atoms: C_18  and  N_19 
ROOT
ATOM      1  C   UNL d   1      26.719 -15.354   0.135  0.00  0.00     0.034 A 
ATOM      2  C   UNL d   1      27.774 -16.269   0.162  0.00  0.00     0.017 A 
ATOM      3  C   UNL d   1      27.534 -17.605  -0.133  0.00  0.00     0.003 A 
ATOM      4  C   UNL d   1      26.229 -18.031  -0.401  0.00  0.00     0.029 A 
ATOM      5  C   UNL d   1      25.158 -17.122  -0.451  0.00  0.00     0.029 A 
ATOM      6  C   UNL d   1      25.426 -15.775  -0.177  0.00  0.00     0.046 A 
ENDROOT
BRANCH   5   7
ATOM      7  N   UNL d   1      23.888 -17.574  -0.738  0.00  0.00    -0.381 N 
ATOM      8  H   UNL d   1      23.319 -17.067  -1.419  0.00  0.00     0.160 HD
BRANCH   7   9
ATOM      9  C   UNL d   1      23.175 -18.575   0.056  0.00  0.00     0.223 C 
BRANCH   9  10
ATOM     10  C   UNL d   1      21.704 -18.618  -0.376  0.00  0.00     0.243 C 
ATOM     11  O   UNL d   1      21.221 -17.725  -1.078  0.00  0.00    -0.271 OA
ATOM     12  N   UNL d   1      20.975 -19.707   0.077  0.00  0.00    -0.278 N 
ATOM     13  C   UNL d   1      19.656 -19.966  -0.186  0.00  0.00     0.320 C 
ATOM     14  H   UNL d   1      21.405 -20.413   0.657  0.00  0.00     0.173 HD
ATOM     15  N   UNL d   1      19.005 -19.072  -0.959  0.00  0.00    -0.352 N 
ATOM     16  O   UNL d   1      19.095 -20.965   0.258  0.00  0.00    -0.247 OA
ATOM     17  H   UNL d   1      19.495 -18.252  -1.309  0.00  0.00     0.160 HD
ATOM     18  H   UNL d   1      18.031 -19.198  -1.189  0.00  0.00     0.160 HD
ENDBRANCH   9  10
ENDBRANCH   7   9
ENDBRANCH   5   7
BRANCH   1  19
ATOM     19  C   UNL d   1      27.043 -13.926   0.293  0.00  0.00     0.252 C 
ATOM     20  N   UNL d   1      28.166 -13.435  -0.351  0.00  0.00    -0.349 N 
ATOM     21  H   UNL d   1      28.693 -14.053  -0.958  0.00  0.00     0.163 HD
ATOM     22  O   UNL d   1      26.281 -13.247   0.979  0.00  0.00    -0.268 OA
BRANCH  20  23
ATOM     23  C   UNL d   1      28.516 -12.003  -0.318  0.00  0.00     0.022 C 
ATOM     24  C   UNL d   1      29.853 -11.761  -1.046  0.00  0.00     0.037 C 
ATOM     25  C   UNL d   1      28.677 -11.534   1.137  0.00  0.00     0.037 C 
ATOM     26  C   UNL d   1      27.440 -11.161  -1.029  0.00  0.00     0.037 C 
ENDBRANCH  20  23
ENDBRANCH   1  19
TORSDOF 5
ENDMDL
