MODEL 1
REMARK VINA RESULT:   -11.101      0.000      0.000
REMARK INTER + INTRA:         -14.636
REMARK INTER:                 -12.891
REMARK INTRA:                  -1.745
REMARK CONF_INDEPENDENT:        1.790
REMARK UNBOUND:                -1.745
REMARK  6 active torsions:
REMARK  status: ('A' for Active; 'I' for Inactive)
REMARK    1  A    between atoms: C_2  and  C_3 
REMARK    2  A    between atoms: C_6  and  N_7 
REMARK       I    between atoms: N_7  and  C_8 
REMARK       I    between atoms: C_8  and  N_10 
REMARK    3  A    between atoms: N_10  and  C_11 
REMARK    4  A    between atoms: C_13  and  N_14 
REMARK       I    between atoms: N_14  and  C_15 
REMARK    5  A    between atoms: C_15  and  C_17 
REMARK    6  A    between atoms: C_26  and  N_27 
ROOT
ATOM      1  C   UNL d   1      24.733 -15.919  -1.627  0.00  0.00     0.065 A 
ATOM      2  C   UNL d   1      23.636 -16.756  -1.232  0.00  0.00     0.061 A 
ATOM      3  C   UNL d   1      23.836 -17.895  -0.411  0.00  0.00     0.037 A 
ATOM      4  C   UNL d   1      25.149 -18.239  -0.111  0.00  0.00     0.032 A 
ATOM      5  C   UNL d   1      26.219 -17.440  -0.492  0.00  0.00     0.034 A 
ATOM      6  C   UNL d   1      26.057 -16.264  -1.232  0.00  0.00     0.057 A 
ENDROOT
BRANCH   1   7
ATOM      7  N   UNL d   1      24.483 -14.716  -2.395  0.00  0.00    -0.306 N 
ATOM      8  C   UNL d   1      25.186 -14.504  -3.574  0.00  0.00     0.325 C 
ATOM      9  N   UNL d   1      25.125 -13.206  -4.105  0.00  0.00    -0.309 N 
ATOM     10  O   UNL d   1      25.844 -15.415  -4.083  0.00  0.00    -0.247 OA
ATOM     11  H   UNL d   1      24.406 -12.573  -3.789  0.00  0.00     0.170 HD
ATOM     12  H   UNL d   1      23.572 -14.293  -2.315  0.00  0.00     0.170 HD
BRANCH   9  13
ATOM     13  C   UNL d   1      26.010 -12.740  -5.149  0.00  0.00     0.036 C 
ATOM     14  C   UNL d   1      25.869 -11.495  -5.770  0.00  0.00     0.030 C 
ATOM     15  C   UNL d   1      26.704 -11.143  -6.868  0.00  0.00     0.009 C 
ATOM     16  C   UNL d   1      27.780 -11.957  -7.256  0.00  0.00    -0.058 C 
ATOM     17  C   UNL d   1      28.005 -13.108  -6.523  0.00  0.00     0.009 C 
ATOM     18  C   UNL d   1      27.101 -13.508  -5.558  0.00  0.00     0.030 C 
BRANCH  16  19
ATOM     19  C   UNL d   1      28.719 -11.671  -8.401  0.00  0.00     0.034 C 
ATOM     20  C   UNL d   1      28.142 -12.162  -9.736  0.00  0.00     0.010 C 
ENDBRANCH  16  19
ENDBRANCH   9  13
ENDBRANCH   1   7
BRANCH   6  21
ATOM     21  N   UNL d   1      27.222 -15.548  -1.443  0.00  0.00    -0.379 N 
ATOM     22  C   UNL d   1      27.398 -14.137  -1.159  0.00  0.00     0.123 C 
ATOM     23  C   UNL d   1      28.041 -13.581  -2.412  0.00  0.00     0.021 C 
ATOM     24  C   UNL d   1      28.844 -14.741  -2.983  0.00  0.00     0.021 C 
ATOM     25  C   UNL d   1      28.135 -16.008  -2.495  0.00  0.00     0.123 C 
ENDBRANCH   6  21
BRANCH   3  26
ATOM     26  N   UNL d   1      22.746 -18.641   0.157  0.00  0.00    -0.323 N 
ATOM     27  C   UNL d   1      21.426 -18.575  -0.304  0.00  0.00     0.256 C 
ATOM     28  O   UNL d   1      20.980 -17.822  -1.178  0.00  0.00    -0.267 OA
ATOM     29  H   UNL d   1      22.983 -19.379   0.809  0.00  0.00     0.169 HD
BRANCH  27  30
ATOM     30  C   UNL d   1      20.410 -19.496   0.252  0.00  0.00     0.032 A 
ATOM     31  C   UNL d   1      19.434 -20.006  -0.631  0.00  0.00     0.020 A 
ATOM     32  C   UNL d   1      18.332 -20.708  -0.144  0.00  0.00     0.043 A 
ATOM     33  C   UNL d   1      18.240 -20.950   1.220  0.00  0.00     0.116 A 
ATOM     34  F   UNL d   1      17.220 -21.680   1.689  0.00  0.00    -0.206 F 
ATOM     35  C   UNL d   1      19.195 -20.449   2.104  0.00  0.00     0.043 A 
ATOM     36  C   UNL d   1      20.279 -19.707   1.626  0.00  0.00     0.020 A 
ENDBRANCH  27  30
ENDBRANCH   3  26
TORSDOF 6
ENDMDL
MODEL 2
REMARK VINA RESULT:   -10.436      4.474      9.359
REMARK INTER + INTRA:         -13.666
REMARK INTER:                 -12.226
REMARK INTRA:                  -1.441
REMARK CONF_INDEPENDENT:        1.790
REMARK UNBOUND:                -1.441
REMARK  6 active torsions:
REMARK  status: ('A' for Active; 'I' for Inactive)
REMARK    1  A    between atoms: C_2  and  C_3 
REMARK    2  A    between atoms: C_6  and  N_7 
REMARK       I    between atoms: N_7  and  C_8 
REMARK       I    between atoms: C_8  and  N_10 
REMARK    3  A    between atoms: N_10  and  C_11 
REMARK    4  A    between atoms: C_13  and  N_14 
REMARK       I    between atoms: N_14  and  C_15 
REMARK    5  A    between atoms: C_15  and  C_17 
REMARK    6  A    between atoms: C_26  and  N_27 
ROOT
ATOM      1  C   UNL d   1      26.174 -15.929  -1.288  0.00  0.00     0.065 A 
ATOM      2  C   UNL d   1      26.642 -15.992   0.067  0.00  0.00     0.061 A 
ATOM      3  C   UNL d   1      27.458 -14.969   0.613  0.00  0.00     0.037 A 
ATOM      4  C   UNL d   1      27.891 -13.972  -0.253  0.00  0.00     0.032 A 
ATOM      5  C   UNL d   1      27.450 -13.904  -1.568  0.00  0.00     0.034 A 
ATOM      6  C   UNL d   1      26.578 -14.847  -2.121  0.00  0.00     0.057 A 
ENDROOT
BRANCH   1   7
ATOM      7  N   UNL d   1      25.271 -16.946  -1.789  0.00  0.00    -0.306 N 
ATOM      8  C   UNL d   1      24.019 -17.090  -1.206  0.00  0.00     0.325 C 
ATOM      9  N   UNL d   1      23.322 -18.268  -1.523  0.00  0.00    -0.309 N 
ATOM     10  O   UNL d   1      23.586 -16.233  -0.432  0.00  0.00    -0.247 OA
ATOM     11  H   UNL d   1      23.608 -18.815  -2.320  0.00  0.00     0.170 HD
ATOM     12  H   UNL d   1      25.370 -17.223  -2.753  0.00  0.00     0.170 HD
BRANCH   9  13
ATOM     13  C   UNL d   1      22.152 -18.709  -0.796  0.00  0.00     0.036 C 
ATOM     14  C   UNL d   1      21.056 -19.318  -1.414  0.00  0.00     0.030 C 
ATOM     15  C   UNL d   1      19.889 -19.628  -0.660  0.00  0.00     0.009 C 
ATOM     16  C   UNL d   1      19.862 -19.475   0.736  0.00  0.00    -0.058 C 
ATOM     17  C   UNL d   1      21.015 -19.024   1.351  0.00  0.00     0.009 C 
ATOM     18  C   UNL d   1      22.085 -18.590   0.593  0.00  0.00     0.030 C 
BRANCH  16  19
ATOM     19  C   UNL d   1      18.678 -19.775   1.621  0.00  0.00     0.034 C 
ATOM     20  C   UNL d   1      18.123 -21.182   1.357  0.00  0.00     0.010 C 
ENDBRANCH  16  19
ENDBRANCH   9  13
ENDBRANCH   1   7
BRANCH   6  21
ATOM     21  N   UNL d   1      26.173 -14.570  -3.415  0.00  0.00    -0.379 N 
ATOM     22  C   UNL d   1      26.956 -14.825  -4.608  0.00  0.00     0.123 C 
ATOM     23  C   UNL d   1      26.870 -13.535  -5.395  0.00  0.00     0.021 C 
ATOM     24  C   UNL d   1      25.519 -12.943  -5.020  0.00  0.00     0.021 C 
ATOM     25  C   UNL d   1      25.211 -13.482  -3.621  0.00  0.00     0.123 C 
ENDBRANCH   6  21
BRANCH   3  26
ATOM     26  N   UNL d   1      27.784 -14.903   2.012  0.00  0.00    -0.323 N 
ATOM     27  C   UNL d   1      27.801 -13.720   2.759  0.00  0.00     0.256 C 
ATOM     28  O   UNL d   1      27.639 -12.569   2.334  0.00  0.00    -0.267 OA
ATOM     29  H   UNL d   1      27.833 -15.782   2.516  0.00  0.00     0.169 HD
BRANCH  27  30
ATOM     30  C   UNL d   1      28.003 -13.782   4.224  0.00  0.00     0.032 A 
ATOM     31  C   UNL d   1      27.779 -12.602   4.966  0.00  0.00     0.020 A 
ATOM     32  C   UNL d   1      28.146 -12.528   6.310  0.00  0.00     0.043 A 
ATOM     33  C   UNL d   1      28.678 -13.654   6.923  0.00  0.00     0.116 A 
ATOM     34  F   UNL d   1      28.971 -13.614   8.229  0.00  0.00    -0.206 F 
ATOM     35  C   UNL d   1      28.907 -14.825   6.201  0.00  0.00     0.043 A 
ATOM     36  C   UNL d   1      28.582 -14.891   4.842  0.00  0.00     0.020 A 
ENDBRANCH  27  30
ENDBRANCH   3  26
TORSDOF 6
ENDMDL
MODEL 3
REMARK VINA RESULT:   -10.242      1.742      2.677
REMARK INTER + INTRA:         -13.459
REMARK INTER:                 -12.031
REMARK INTRA:                  -1.428
REMARK CONF_INDEPENDENT:        1.790
REMARK UNBOUND:                -1.428
REMARK  6 active torsions:
REMARK  status: ('A' for Active; 'I' for Inactive)
REMARK    1  A    between atoms: C_2  and  C_3 
REMARK    2  A    between atoms: C_6  and  N_7 
REMARK       I    between atoms: N_7  and  C_8 
REMARK       I    between atoms: C_8  and  N_10 
REMARK    3  A    between atoms: N_10  and  C_11 
REMARK    4  A    between atoms: C_13  and  N_14 
REMARK       I    between atoms: N_14  and  C_15 
REMARK    5  A    between atoms: C_15  and  C_17 
REMARK    6  A    between atoms: C_26  and  N_27 
ROOT
ATOM      1  C   UNL d   1      25.558 -16.443  -2.105  0.00  0.00     0.065 A 
ATOM      2  C   UNL d   1      24.276 -16.987  -1.757  0.00  0.00     0.061 A 
ATOM      3  C   UNL d   1      24.068 -17.651  -0.522  0.00  0.00     0.037 A 
ATOM      4  C   UNL d   1      25.183 -17.867   0.279  0.00  0.00     0.032 A 
ATOM      5  C   UNL d   1      26.430 -17.351  -0.050  0.00  0.00     0.034 A 
ATOM      6  C   UNL d   1      26.659 -16.618  -1.219  0.00  0.00     0.057 A 
ENDROOT
BRANCH   1   7
ATOM      7  N   UNL d   1      25.716 -15.696  -3.337  0.00  0.00    -0.306 N 
ATOM      8  C   UNL d   1      25.937 -14.326  -3.276  0.00  0.00     0.325 C 
ATOM      9  N   UNL d   1      25.781 -13.621  -4.481  0.00  0.00    -0.309 N 
ATOM     10  O   UNL d   1      26.220 -13.784  -2.206  0.00  0.00    -0.247 OA
ATOM     11  H   UNL d   1      25.776 -14.126  -5.354  0.00  0.00     0.170 HD
ATOM     12  H   UNL d   1      26.074 -16.190  -4.139  0.00  0.00     0.170 HD
BRANCH   9  13
ATOM     13  C   UNL d   1      25.693 -12.180  -4.544  0.00  0.00     0.036 C 
ATOM     14  C   UNL d   1      25.756 -11.361  -3.413  0.00  0.00     0.030 C 
ATOM     15  C   UNL d   1      25.550  -9.958  -3.530  0.00  0.00     0.009 C 
ATOM     16  C   UNL d   1      25.433  -9.342  -4.786  0.00  0.00    -0.058 C 
ATOM     17  C   UNL d   1      25.537 -10.148  -5.905  0.00  0.00     0.009 C 
ATOM     18  C   UNL d   1      25.589 -11.522  -5.771  0.00  0.00     0.030 C 
BRANCH  16  19
ATOM     19  C   UNL d   1      25.215  -7.867  -5.015  0.00  0.00     0.034 C 
ATOM     20  C   UNL d   1      23.918  -7.606  -5.794  0.00  0.00     0.010 C 
ENDBRANCH  16  19
ENDBRANCH   9  13
ENDBRANCH   1   7
BRANCH   6  21
ATOM     21  N   UNL d   1      27.939 -16.104  -1.338  0.00  0.00    -0.379 N 
ATOM     22  C   UNL d   1      28.836 -16.349  -2.450  0.00  0.00     0.123 C 
ATOM     23  C   UNL d   1      30.149 -16.722  -1.795  0.00  0.00     0.021 C 
ATOM     24  C   UNL d   1      30.149 -15.973  -0.471  0.00  0.00     0.021 C 
ATOM     25  C   UNL d   1      28.672 -15.785  -0.109  0.00  0.00     0.123 C 
ENDBRANCH   6  21
BRANCH   3  26
ATOM     26  N   UNL d   1      22.761 -18.036  -0.060  0.00  0.00    -0.323 N 
ATOM     27  C   UNL d   1      21.894 -18.873  -0.771  0.00  0.00     0.256 C 
ATOM     28  O   UNL d   1      22.063 -19.325  -1.910  0.00  0.00    -0.267 OA
ATOM     29  H   UNL d   1      22.534 -17.828   0.905  0.00  0.00     0.169 HD
BRANCH  27  30
ATOM     30  C   UNL d   1      20.636 -19.329  -0.139  0.00  0.00     0.032 A 
ATOM     31  C   UNL d   1      20.648 -19.561   1.254  0.00  0.00     0.020 A 
ATOM     32  C   UNL d   1      19.569 -20.184   1.879  0.00  0.00     0.043 A 
ATOM     33  C   UNL d   1      18.455 -20.518   1.122  0.00  0.00     0.116 A 
ATOM     34  F   UNL d   1      17.388 -21.057   1.725  0.00  0.00    -0.206 F 
ATOM     35  C   UNL d   1      18.430 -20.297  -0.255  0.00  0.00     0.043 A 
ATOM     36  C   UNL d   1      19.528 -19.713  -0.896  0.00  0.00     0.020 A 
ENDBRANCH  27  30
ENDBRANCH   3  26
TORSDOF 6
ENDMDL
MODEL 4
REMARK VINA RESULT:   -10.044      5.170      9.506
REMARK INTER + INTRA:         -13.492
REMARK INTER:                 -11.834
REMARK INTRA:                  -1.658
REMARK CONF_INDEPENDENT:        1.790
REMARK UNBOUND:                -1.658
REMARK  6 active torsions:
REMARK  status: ('A' for Active; 'I' for Inactive)
REMARK    1  A    between atoms: C_2  and  C_3 
REMARK    2  A    between atoms: C_6  and  N_7 
REMARK       I    between atoms: N_7  and  C_8 
REMARK       I    between atoms: C_8  and  N_10 
REMARK    3  A    between atoms: N_10  and  C_11 
REMARK    4  A    between atoms: C_13  and  N_14 
REMARK       I    between atoms: N_14  and  C_15 
REMARK    5  A    between atoms: C_15  and  C_17 
REMARK    6  A    between atoms: C_26  and  N_27 
ROOT
ATOM      1  C   UNL d   1      27.152 -15.662  -0.159  0.00  0.00     0.065 A 
ATOM      2  C   UNL d   1      27.637 -15.645   1.192  0.00  0.00     0.061 A 
ATOM      3  C   UNL d   1      28.185 -14.469   1.763  0.00  0.00     0.037 A 
ATOM      4  C   UNL d   1      28.351 -13.373   0.924  0.00  0.00     0.032 A 
ATOM      5  C   UNL d   1      27.891 -13.380  -0.386  0.00  0.00     0.034 A 
ATOM      6  C   UNL d   1      27.269 -14.492  -0.962  0.00  0.00     0.057 A 
ENDROOT
BRANCH   1   7
ATOM      7  N   UNL d   1      26.519 -16.856  -0.684  0.00  0.00    -0.306 N 
ATOM      8  C   UNL d   1      25.134 -16.954  -0.667  0.00  0.00     0.325 C 
ATOM      9  N   UNL d   1      24.603 -18.233  -0.903  0.00  0.00    -0.309 N 
ATOM     10  O   UNL d   1      24.439 -15.966  -0.423  0.00  0.00    -0.247 OA
ATOM     11  H   UNL d   1      25.186 -18.944  -1.316  0.00  0.00     0.170 HD
ATOM     12  H   UNL d   1      27.014 -17.369  -1.396  0.00  0.00     0.170 HD
BRANCH   9  13
ATOM     13  C   UNL d   1      23.221 -18.571  -0.644  0.00  0.00     0.036 C 
ATOM     14  C   UNL d   1      22.643 -18.495   0.626  0.00  0.00     0.030 C 
ATOM     15  C   UNL d   1      21.310 -18.949   0.835  0.00  0.00     0.009 C 
ATOM     16  C   UNL d   1      20.496 -19.338  -0.240  0.00  0.00    -0.058 C 
ATOM     17  C   UNL d   1      21.033 -19.251  -1.511  0.00  0.00     0.009 C 
ATOM     18  C   UNL d   1      22.370 -18.950  -1.683  0.00  0.00     0.030 C 
BRANCH  16  19
ATOM     19  C   UNL d   1      19.075 -19.831  -0.122  0.00  0.00     0.034 C 
ATOM     20  C   UNL d   1      18.862 -20.620   1.177  0.00  0.00     0.010 C 
ENDBRANCH  16  19
ENDBRANCH   9  13
ENDBRANCH   1   7
BRANCH   6  21
ATOM     21  N   UNL d   1      26.793 -14.289  -2.245  0.00  0.00    -0.379 N 
ATOM     22  C   UNL d   1      25.778 -13.323  -2.616  0.00  0.00     0.123 C 
ATOM     23  C   UNL d   1      24.815 -14.106  -3.482  0.00  0.00     0.021 C 
ATOM     24  C   UNL d   1      25.671 -15.175  -4.145  0.00  0.00     0.021 C 
ATOM     25  C   UNL d   1      26.841 -15.413  -3.187  0.00  0.00     0.123 C 
ENDBRANCH   6  21
BRANCH   3  26
ATOM     26  N   UNL d   1      28.502 -14.363   3.162  0.00  0.00    -0.323 N 
ATOM     27  C   UNL d   1      28.125 -13.286   3.972  0.00  0.00     0.256 C 
ATOM     28  O   UNL d   1      27.563 -12.245   3.612  0.00  0.00    -0.267 OA
ATOM     29  H   UNL d   1      28.866 -15.193   3.616  0.00  0.00     0.169 HD
BRANCH  27  30
ATOM     30  C   UNL d   1      28.371 -13.347   5.430  0.00  0.00     0.032 A 
ATOM     31  C   UNL d   1      27.799 -12.336   6.234  0.00  0.00     0.020 A 
ATOM     32  C   UNL d   1      28.155 -12.210   7.576  0.00  0.00     0.043 A 
ATOM     33  C   UNL d   1      29.035 -13.131   8.127  0.00  0.00     0.116 A 
ATOM     34  F   UNL d   1      29.331 -13.058   9.431  0.00  0.00    -0.206 F 
ATOM     35  C   UNL d   1      29.610 -14.132   7.344  0.00  0.00     0.043 A 
ATOM     36  C   UNL d   1      29.291 -14.237   5.986  0.00  0.00     0.020 A 
ENDBRANCH  27  30
ENDBRANCH   3  26
TORSDOF 6
ENDMDL
MODEL 5
REMARK VINA RESULT:    -9.676      4.456     10.058
REMARK INTER + INTRA:         -12.911
REMARK INTER:                 -11.465
REMARK INTRA:                  -1.445
REMARK CONF_INDEPENDENT:        1.790
REMARK UNBOUND:                -1.445
REMARK  6 active torsions:
REMARK  status: ('A' for Active; 'I' for Inactive)
REMARK    1  A    between atoms: C_2  and  C_3 
REMARK    2  A    between atoms: C_6  and  N_7 
REMARK       I    between atoms: N_7  and  C_8 
REMARK       I    between atoms: C_8  and  N_10 
REMARK    3  A    between atoms: N_10  and  C_11 
REMARK    4  A    between atoms: C_13  and  N_14 
REMARK       I    between atoms: N_14  and  C_15 
REMARK    5  A    between atoms: C_15  and  C_17 
REMARK    6  A    between atoms: C_26  and  N_27 
ROOT
ATOM      1  C   UNL d   1      26.946 -13.424  -3.676  0.00  0.00     0.065 A 
ATOM      2  C   UNL d   1      26.269 -12.172  -3.493  0.00  0.00     0.061 A 
ATOM      3  C   UNL d   1      26.144 -11.240  -4.553  0.00  0.00     0.037 A 
ATOM      4  C   UNL d   1      26.815 -11.529  -5.736  0.00  0.00     0.032 A 
ATOM      5  C   UNL d   1      27.479 -12.735  -5.923  0.00  0.00     0.034 A 
ATOM      6  C   UNL d   1      27.553 -13.717  -4.930  0.00  0.00     0.057 A 
ENDROOT
BRANCH   1   7
ATOM      7  N   UNL d   1      26.981 -14.391  -2.597  0.00  0.00    -0.306 N 
ATOM      8  C   UNL d   1      25.971 -15.339  -2.501  0.00  0.00     0.325 C 
ATOM      9  N   UNL d   1      25.895 -16.040  -1.286  0.00  0.00    -0.309 N 
ATOM     10  O   UNL d   1      25.181 -15.508  -3.432  0.00  0.00    -0.247 OA
ATOM     11  H   UNL d   1      26.684 -16.032  -0.659  0.00  0.00     0.170 HD
ATOM     12  H   UNL d   1      27.883 -14.632  -2.217  0.00  0.00     0.170 HD
BRANCH   9  13
ATOM     13  C   UNL d   1      24.753 -16.843  -0.912  0.00  0.00     0.036 C 
ATOM     14  C   UNL d   1      24.857 -18.181  -0.518  0.00  0.00     0.030 C 
ATOM     15  C   UNL d   1      23.685 -18.948  -0.270  0.00  0.00     0.009 C 
ATOM     16  C   UNL d   1      22.412 -18.354  -0.263  0.00  0.00    -0.058 C 
ATOM     17  C   UNL d   1      22.343 -16.993  -0.495  0.00  0.00     0.009 C 
ATOM     18  C   UNL d   1      23.470 -16.293  -0.877  0.00  0.00     0.030 C 
BRANCH  16  19
ATOM     19  C   UNL d   1      21.114 -19.080  -0.011  0.00  0.00     0.034 C 
ATOM     20  C   UNL d   1      20.346 -19.325  -1.318  0.00  0.00     0.010 C 
ENDBRANCH  16  19
ENDBRANCH   9  13
ENDBRANCH   1   7
BRANCH   6  21
ATOM     21  N   UNL d   1      28.176 -14.889  -5.322  0.00  0.00    -0.379 N 
ATOM     22  C   UNL d   1      28.776 -15.856  -4.425  0.00  0.00     0.123 C 
ATOM     23  C   UNL d   1      30.135 -16.136  -5.031  0.00  0.00     0.021 C 
ATOM     24  C   UNL d   1      29.942 -15.931  -6.526  0.00  0.00     0.021 C 
ATOM     25  C   UNL d   1      28.785 -14.936  -6.656  0.00  0.00     0.123 C 
ENDBRANCH   6  21
BRANCH   3  26
ATOM     26  N   UNL d   1      25.313 -10.070  -4.462  0.00  0.00    -0.323 N 
ATOM     27  C   UNL d   1      25.572  -8.869  -5.133  0.00  0.00     0.256 C 
ATOM     28  O   UNL d   1      26.570  -8.596  -5.811  0.00  0.00    -0.267 OA
ATOM     29  H   UNL d   1      24.404 -10.183  -4.028  0.00  0.00     0.169 HD
BRANCH  27  30
ATOM     30  C   UNL d   1      24.574  -7.777  -5.090  0.00  0.00     0.032 A 
ATOM     31  C   UNL d   1      24.858  -6.661  -4.273  0.00  0.00     0.020 A 
ATOM     32  C   UNL d   1      23.881  -5.698  -4.022  0.00  0.00     0.043 A 
ATOM     33  C   UNL d   1      22.643  -5.821  -4.639  0.00  0.00     0.116 A 
ATOM     34  F   UNL d   1      21.722  -4.866  -4.457  0.00  0.00    -0.206 F 
ATOM     35  C   UNL d   1      22.349  -6.919  -5.446  0.00  0.00     0.043 A 
ATOM     36  C   UNL d   1      23.310  -7.912  -5.665  0.00  0.00     0.020 A 
ENDBRANCH  27  30
ENDBRANCH   3  26
TORSDOF 6
ENDMDL
MODEL 6
REMARK VINA RESULT:    -9.317      2.793      5.116
REMARK INTER + INTRA:         -12.720
REMARK INTER:                 -11.107
REMARK INTRA:                  -1.614
REMARK CONF_INDEPENDENT:        1.790
REMARK UNBOUND:                -1.614
REMARK  6 active torsions:
REMARK  status: ('A' for Active; 'I' for Inactive)
REMARK    1  A    between atoms: C_2  and  C_3 
REMARK    2  A    between atoms: C_6  and  N_7 
REMARK       I    between atoms: N_7  and  C_8 
REMARK       I    between atoms: C_8  and  N_10 
REMARK    3  A    between atoms: N_10  and  C_11 
REMARK    4  A    between atoms: C_13  and  N_14 
REMARK       I    between atoms: N_14  and  C_15 
REMARK    5  A    between atoms: C_15  and  C_17 
REMARK    6  A    between atoms: C_26  and  N_27 
ROOT
ATOM      1  C   UNL d   1      25.898 -17.380  -0.626  0.00  0.00     0.065 A 
ATOM      2  C   UNL d   1      24.859 -18.095   0.058  0.00  0.00     0.061 A 
ATOM      3  C   UNL d   1      23.491 -17.776  -0.138  0.00  0.00     0.037 A 
ATOM      4  C   UNL d   1      23.205 -16.660  -0.917  0.00  0.00     0.032 A 
ATOM      5  C   UNL d   1      24.203 -15.956  -1.579  0.00  0.00     0.034 A 
ATOM      6  C   UNL d   1      25.557 -16.292  -1.478  0.00  0.00     0.057 A 
ENDROOT
BRANCH   1   7
ATOM      7  N   UNL d   1      27.280 -17.788  -0.469  0.00  0.00    -0.306 N 
ATOM      8  C   UNL d   1      28.208 -16.874   0.013  0.00  0.00     0.325 C 
ATOM      9  N   UNL d   1      29.559 -17.225  -0.142  0.00  0.00    -0.309 N 
ATOM     10  O   UNL d   1      27.837 -15.809   0.511  0.00  0.00    -0.247 OA
ATOM     11  H   UNL d   1      29.803 -18.184  -0.340  0.00  0.00     0.170 HD
ATOM     12  H   UNL d   1      27.460 -18.766  -0.303  0.00  0.00     0.170 HD
BRANCH   9  13
ATOM     13  C   UNL d   1      30.642 -16.285   0.037  0.00  0.00     0.036 C 
ATOM     14  C   UNL d   1      31.671 -16.475   0.964  0.00  0.00     0.030 C 
ATOM     15  C   UNL d   1      32.646 -15.459   1.170  0.00  0.00     0.009 C 
ATOM     16  C   UNL d   1      32.694 -14.318   0.353  0.00  0.00    -0.058 C 
ATOM     17  C   UNL d   1      31.765 -14.225  -0.667  0.00  0.00     0.009 C 
ATOM     18  C   UNL d   1      30.739 -15.144  -0.761  0.00  0.00     0.030 C 
BRANCH  16  19
ATOM     19  C   UNL d   1      33.685 -13.189   0.491  0.00  0.00     0.034 C 
ATOM     20  C   UNL d   1      34.846 -13.338  -0.502  0.00  0.00     0.010 C 
ENDBRANCH  16  19
ENDBRANCH   9  13
ENDBRANCH   1   7
BRANCH   6  21
ATOM     21  N   UNL d   1      26.400 -15.539  -2.278  0.00  0.00    -0.379 N 
ATOM     22  C   UNL d   1      27.081 -14.328  -1.864  0.00  0.00     0.123 C 
ATOM     23  C   UNL d   1      26.815 -13.348  -2.987  0.00  0.00     0.021 C 
ATOM     24  C   UNL d   1      26.675 -14.212  -4.231  0.00  0.00     0.021 C 
ATOM     25  C   UNL d   1      26.191 -15.575  -3.729  0.00  0.00     0.123 C 
ENDBRANCH   6  21
BRANCH   3  26
ATOM     26  N   UNL d   1      22.424 -18.589   0.379  0.00  0.00    -0.323 N 
ATOM     27  C   UNL d   1      21.127 -18.607  -0.146  0.00  0.00     0.256 C 
ATOM     28  O   UNL d   1      20.677 -17.884  -1.044  0.00  0.00    -0.267 OA
ATOM     29  H   UNL d   1      22.676 -19.312   1.044  0.00  0.00     0.169 HD
BRANCH  27  30
ATOM     30  C   UNL d   1      20.145 -19.591   0.362  0.00  0.00     0.032 A 
ATOM     31  C   UNL d   1      19.164 -20.062  -0.537  0.00  0.00     0.020 A 
ATOM     32  C   UNL d   1      18.089 -20.824  -0.080  0.00  0.00     0.043 A 
ATOM     33  C   UNL d   1      18.032 -21.165   1.265  0.00  0.00     0.116 A 
ATOM     34  F   UNL d   1      17.040 -21.952   1.701  0.00  0.00    -0.206 F 
ATOM     35  C   UNL d   1      18.992 -20.704   2.164  0.00  0.00     0.043 A 
ATOM     36  C   UNL d   1      20.048 -19.901   1.719  0.00  0.00     0.020 A 
ENDBRANCH  27  30
ENDBRANCH   3  26
TORSDOF 6
ENDMDL
MODEL 7
REMARK VINA RESULT:    -9.286      3.285      5.854
REMARK INTER + INTRA:         -12.564
REMARK INTER:                 -11.076
REMARK INTRA:                  -1.488
REMARK CONF_INDEPENDENT:        1.790
REMARK UNBOUND:                -1.488
REMARK  6 active torsions:
REMARK  status: ('A' for Active; 'I' for Inactive)
REMARK    1  A    between atoms: C_2  and  C_3 
REMARK    2  A    between atoms: C_6  and  N_7 
REMARK       I    between atoms: N_7  and  C_8 
REMARK       I    between atoms: C_8  and  N_10 
REMARK    3  A    between atoms: N_10  and  C_11 
REMARK    4  A    between atoms: C_13  and  N_14 
REMARK       I    between atoms: N_14  and  C_15 
REMARK    5  A    between atoms: C_15  and  C_17 
REMARK    6  A    between atoms: C_26  and  N_27 
ROOT
ATOM      1  C   UNL d   1      26.512 -16.675  -0.266  0.00  0.00     0.065 A 
ATOM      2  C   UNL d   1      25.349 -17.319   0.275  0.00  0.00     0.061 A 
ATOM      3  C   UNL d   1      24.263 -17.697  -0.555  0.00  0.00     0.037 A 
ATOM      4  C   UNL d   1      24.315 -17.305  -1.887  0.00  0.00     0.032 A 
ATOM      5  C   UNL d   1      25.433 -16.676  -2.421  0.00  0.00     0.034 A 
ATOM      6  C   UNL d   1      26.559 -16.361  -1.653  0.00  0.00     0.057 A 
ENDROOT
BRANCH   1   7
ATOM      7  N   UNL d   1      27.640 -16.380   0.595  0.00  0.00    -0.306 N 
ATOM      8  C   UNL d   1      27.662 -15.181   1.298  0.00  0.00     0.325 C 
ATOM      9  N   UNL d   1      28.896 -14.821   1.866  0.00  0.00    -0.309 N 
ATOM     10  O   UNL d   1      26.651 -14.480   1.372  0.00  0.00    -0.247 OA
ATOM     11  H   UNL d   1      29.615 -15.520   1.973  0.00  0.00     0.170 HD
ATOM     12  H   UNL d   1      28.142 -17.159   0.990  0.00  0.00     0.170 HD
BRANCH   9  13
ATOM     13  C   UNL d   1      29.170 -13.497   2.376  0.00  0.00     0.036 C 
ATOM     14  C   UNL d   1      30.046 -12.605   1.751  0.00  0.00     0.030 C 
ATOM     15  C   UNL d   1      30.359 -11.360   2.364  0.00  0.00     0.009 C 
ATOM     16  C   UNL d   1      29.692 -10.929   3.522  0.00  0.00    -0.058 C 
ATOM     17  C   UNL d   1      28.709 -11.755   4.036  0.00  0.00     0.009 C 
ATOM     18  C   UNL d   1      28.520 -13.021   3.516  0.00  0.00     0.030 C 
BRANCH  16  19
ATOM     19  C   UNL d   1      29.951  -9.630   4.244  0.00  0.00     0.034 C 
ATOM     20  C   UNL d   1      28.681  -9.108   4.931  0.00  0.00     0.010 C 
ENDBRANCH  16  19
ENDBRANCH   9  13
ENDBRANCH   1   7
BRANCH   6  21
ATOM     21  N   UNL d   1      27.613 -15.820  -2.369  0.00  0.00    -0.379 N 
ATOM     22  C   UNL d   1      27.481 -14.914  -3.493  0.00  0.00     0.123 C 
ATOM     23  C   UNL d   1      28.399 -15.492  -4.549  0.00  0.00     0.021 C 
ATOM     24  C   UNL d   1      29.502 -16.187  -3.766  0.00  0.00     0.021 C 
ATOM     25  C   UNL d   1      28.869 -16.575  -2.426  0.00  0.00     0.123 C 
ENDBRANCH   6  21
BRANCH   3  26
ATOM     26  N   UNL d   1      23.174 -18.509  -0.083  0.00  0.00    -0.323 N 
ATOM     27  C   UNL d   1      21.826 -18.239  -0.340  0.00  0.00     0.256 C 
ATOM     28  O   UNL d   1      21.362 -17.245  -0.912  0.00  0.00    -0.267 OA
ATOM     29  H   UNL d   1      23.410 -19.415   0.307  0.00  0.00     0.169 HD
BRANCH  27  30
ATOM     30  C   UNL d   1      20.793 -19.220   0.063  0.00  0.00     0.032 A 
ATOM     31  C   UNL d   1      19.811 -19.567  -0.890  0.00  0.00     0.020 A 
ATOM     32  C   UNL d   1      18.697 -20.319  -0.520  0.00  0.00     0.043 A 
ATOM     33  C   UNL d   1      18.597 -20.772   0.789  0.00  0.00     0.116 A 
ATOM     34  F   UNL d   1      17.564 -21.550   1.137  0.00  0.00    -0.206 F 
ATOM     35  C   UNL d   1      19.558 -20.434   1.741  0.00  0.00     0.043 A 
ATOM     36  C   UNL d   1      20.656 -19.643   1.386  0.00  0.00     0.020 A 
ENDBRANCH  27  30
ENDBRANCH   3  26
TORSDOF 6
ENDMDL
MODEL 8
REMARK VINA RESULT:    -9.239      5.107     10.589
REMARK INTER + INTRA:         -12.544
REMARK INTER:                 -11.029
REMARK INTRA:                  -1.515
REMARK CONF_INDEPENDENT:        1.790
REMARK UNBOUND:                -1.515
REMARK  6 active torsions:
REMARK  status: ('A' for Active; 'I' for Inactive)
REMARK    1  A    between atoms: C_2  and  C_3 
REMARK    2  A    between atoms: C_6  and  N_7 
REMARK       I    between atoms: N_7  and  C_8 
REMARK       I    between atoms: C_8  and  N_10 
REMARK    3  A    between atoms: N_10  and  C_11 
REMARK    4  A    between atoms: C_13  and  N_14 
REMARK       I    between atoms: N_14  and  C_15 
REMARK    5  A    between atoms: C_15  and  C_17 
REMARK    6  A    between atoms: C_26  and  N_27 
ROOT
ATOM      1  C   UNL d   1      27.074 -15.580  -1.429  0.00  0.00     0.065 A 
ATOM      2  C   UNL d   1      27.777 -14.886  -2.470  0.00  0.00     0.061 A 
ATOM      3  C   UNL d   1      27.137 -14.539  -3.687  0.00  0.00     0.037 A 
ATOM      4  C   UNL d   1      25.844 -15.011  -3.882  0.00  0.00     0.032 A 
ATOM      5  C   UNL d   1      25.156 -15.689  -2.885  0.00  0.00     0.034 A 
ATOM      6  C   UNL d   1      25.723 -15.977  -1.639  0.00  0.00     0.057 A 
ENDROOT
BRANCH   1   7
ATOM      7  N   UNL d   1      27.731 -15.843  -0.165  0.00  0.00    -0.306 N 
ATOM      8  C   UNL d   1      27.359 -15.116   0.959  0.00  0.00     0.325 C 
ATOM      9  N   UNL d   1      28.223 -15.200   2.063  0.00  0.00    -0.309 N 
ATOM     10  O   UNL d   1      26.341 -14.421   0.946  0.00  0.00    -0.247 OA
ATOM     11  H   UNL d   1      28.903 -15.944   2.106  0.00  0.00     0.170 HD
ATOM     12  H   UNL d   1      28.105 -16.768  -0.018  0.00  0.00     0.170 HD
BRANCH   9  13
ATOM     13  C   UNL d   1      28.146 -14.301   3.193  0.00  0.00     0.036 C 
ATOM     14  C   UNL d   1      27.896 -12.932   3.063  0.00  0.00     0.030 C 
ATOM     15  C   UNL d   1      27.944 -12.083   4.204  0.00  0.00     0.009 C 
ATOM     16  C   UNL d   1      28.088 -12.609   5.498  0.00  0.00    -0.058 C 
ATOM     17  C   UNL d   1      28.170 -13.984   5.622  0.00  0.00     0.009 C 
ATOM     18  C   UNL d   1      28.270 -14.780   4.498  0.00  0.00     0.030 C 
BRANCH  16  19
ATOM     19  C   UNL d   1      28.149 -11.796   6.767  0.00  0.00     0.034 C 
ATOM     20  C   UNL d   1      28.404 -12.685   7.991  0.00  0.00     0.010 C 
ENDBRANCH  16  19
ENDBRANCH   9  13
ENDBRANCH   1   7
BRANCH   6  21
ATOM     21  N   UNL d   1      24.861 -16.577  -0.737  0.00  0.00    -0.379 N 
ATOM     22  C   UNL d   1      25.131 -17.805  -0.015  0.00  0.00     0.123 C 
ATOM     23  C   UNL d   1      23.876 -18.631  -0.199  0.00  0.00     0.021 C 
ATOM     24  C   UNL d   1      22.757 -17.610  -0.338  0.00  0.00     0.021 C 
ATOM     25  C   UNL d   1      23.421 -16.350  -0.900  0.00  0.00     0.123 C 
ENDBRANCH   6  21
BRANCH   3  26
ATOM     26  N   UNL d   1      27.749 -13.682  -4.666  0.00  0.00    -0.323 N 
ATOM     27  C   UNL d   1      28.034 -14.071  -5.980  0.00  0.00     0.256 C 
ATOM     28  O   UNL d   1      27.900 -15.200  -6.468  0.00  0.00    -0.267 OA
ATOM     29  H   UNL d   1      27.815 -12.696  -4.439  0.00  0.00     0.169 HD
BRANCH  27  30
ATOM     30  C   UNL d   1      28.525 -13.067  -6.950  0.00  0.00     0.032 A 
ATOM     31  C   UNL d   1      27.657 -12.006  -7.292  0.00  0.00     0.020 A 
ATOM     32  C   UNL d   1      27.968 -11.147  -8.345  0.00  0.00     0.043 A 
ATOM     33  C   UNL d   1      29.173 -11.311  -9.014  0.00  0.00     0.116 A 
ATOM     34  F   UNL d   1      29.510 -10.450  -9.982  0.00  0.00    -0.206 F 
ATOM     35  C   UNL d   1      30.038 -12.355  -8.688  0.00  0.00     0.043 A 
ATOM     36  C   UNL d   1      29.712 -13.249  -7.662  0.00  0.00     0.020 A 
ENDBRANCH  27  30
ENDBRANCH   3  26
TORSDOF 6
ENDMDL
