MODEL 1
REMARK VINA RESULT:    -9.561      0.000      0.000
REMARK INTER + INTRA:         -13.166
REMARK INTER:                 -11.649
REMARK INTRA:                  -1.517
REMARK CONF_INDEPENDENT:        2.088
REMARK UNBOUND:                -1.517
REMARK  7 active torsions:
REMARK  status: ('A' for Active; 'I' for Inactive)
REMARK    1  A    between atoms: C_6  and  N_7 
REMARK       I    between atoms: N_7  and  C_8 
REMARK    2  A    between atoms: C_8  and  C_10 
REMARK    3  A    between atoms: C_10  and  N_11 
REMARK    4  A    between atoms: N_11  and  C_12 
REMARK    5  A    between atoms: C_15  and  C_16 
REMARK       I    between atoms: C_16  and  N_18 
REMARK    6  A    between atoms: N_18  and  C_19 
REMARK    7  A    between atoms: C_19  and  C_20 
ROOT
ATOM      1  C   UNL d   1      26.594 -16.669   0.364  0.00  0.00     0.028 A 
ATOM      2  C   UNL d   1      25.671 -15.926  -0.380  0.00  0.00     0.030 A 
ATOM      3  C   UNL d   1      24.460 -16.491  -0.812  0.00  0.00     0.019 A 
ATOM      4  C   UNL d   1      24.167 -17.837  -0.560  0.00  0.00     0.032 A 
ATOM      5  C   UNL d   1      25.083 -18.575   0.201  0.00  0.00     0.019 A 
ATOM      6  C   UNL d   1      26.283 -17.997   0.643  0.00  0.00     0.030 A 
ENDROOT
BRANCH   1   7
ATOM      7  N   UNL d   1      27.771 -16.082   0.752  0.00  0.00    -0.381 N 
ATOM      8  H   UNL d   1      28.572 -16.690   0.946  0.00  0.00     0.160 HD
BRANCH   7   9
ATOM      9  C   UNL d   1      28.102 -14.661   0.636  0.00  0.00     0.223 C 
BRANCH   9  10
ATOM     10  C   UNL d   1      27.919 -14.019   2.019  0.00  0.00     0.239 C 
ATOM     11  N   UNL d   1      28.845 -14.391   2.993  0.00  0.00    -0.325 N 
ATOM     12  H   UNL d   1      29.561 -15.049   2.721  0.00  0.00     0.169 HD
ATOM     13  O   UNL d   1      26.979 -13.236   2.173  0.00  0.00    -0.271 OA
BRANCH  11  14
ATOM     14  C   UNL d   1      28.861 -13.919   4.344  0.00  0.00     0.041 A 
ATOM     15  C   UNL d   1      28.859 -14.836   5.405  0.00  0.00     0.030 A 
ATOM     16  C   UNL d   1      28.894 -14.450   6.737  0.00  0.00     0.003 A 
ATOM     17  C   UNL d   1      28.906 -13.109   7.056  0.00  0.00     0.007 A 
ATOM     18  C   UNL d   1      28.889 -12.142   6.040  0.00  0.00    -0.054 A 
ATOM     19  C   UNL d   1      28.876 -10.696   6.470  0.00  0.00     0.049 C 
ATOM     20  C   UNL d   1      28.881 -12.536   4.664  0.00  0.00    -0.029 A 
ATOM     21  C   UNL d   1      28.905 -11.444   3.622  0.00  0.00     0.051 C 
ENDBRANCH  11  14
ENDBRANCH   9  10
ENDBRANCH   7   9
ENDBRANCH   1   7
BRANCH   4  22
ATOM     22  C   UNL d   1      22.920 -18.427  -1.166  0.00  0.00     0.251 C 
ATOM     23  O   UNL d   1      22.967 -18.998  -2.257  0.00  0.00    -0.268 OA
ATOM     24  N   UNL d   1      21.753 -18.333  -0.444  0.00  0.00    -0.351 N 
ATOM     25  H   UNL d   1      21.767 -17.893   0.456  0.00  0.00     0.163 HD
BRANCH  24  26
ATOM     26  C   UNL d   1      20.487 -18.901  -0.893  0.00  0.00     0.187 C 
BRANCH  26  27
ATOM     27  C   UNL d   1      19.814 -19.598   0.249  0.00  0.00     0.070 A 
ATOM     28  C   UNL d   1      18.763 -20.492   0.331  0.00  0.00     0.036 A 
ATOM     29  C   UNL d   1      18.609 -20.834   1.691  0.00  0.00     0.027 A 
ATOM     30  C   UNL d   1      19.561 -20.115   2.372  0.00  0.00     0.142 A 
ATOM     31  O   UNL d   1      20.297 -19.360   1.510  0.00  0.00    -0.325 OA
ENDBRANCH  26  27
ENDBRANCH  24  26
ENDBRANCH   4  22
TORSDOF 7
ENDMDL
MODEL 2
REMARK VINA RESULT:    -9.537      0.716      1.561
REMARK INTER + INTRA:         -13.071
REMARK INTER:                 -11.625
REMARK INTRA:                  -1.446
REMARK CONF_INDEPENDENT:        2.088
REMARK UNBOUND:                -1.446
REMARK  7 active torsions:
REMARK  status: ('A' for Active; 'I' for Inactive)
REMARK    1  A    between atoms: C_6  and  N_7 
REMARK       I    between atoms: N_7  and  C_8 
REMARK    2  A    between atoms: C_8  and  C_10 
REMARK    3  A    between atoms: C_10  and  N_11 
REMARK    4  A    between atoms: N_11  and  C_12 
REMARK    5  A    between atoms: C_15  and  C_16 
REMARK       I    between atoms: C_16  and  N_18 
REMARK    6  A    between atoms: N_18  and  C_19 
REMARK    7  A    between atoms: C_19  and  C_20 
ROOT
ATOM      1  C   UNL d   1      26.777 -16.715   0.338  0.00  0.00     0.028 A 
ATOM      2  C   UNL d   1      25.883 -15.949  -0.416  0.00  0.00     0.030 A 
ATOM      3  C   UNL d   1      24.650 -16.472  -0.839  0.00  0.00     0.019 A 
ATOM      4  C   UNL d   1      24.305 -17.802  -0.565  0.00  0.00     0.032 A 
ATOM      5  C   UNL d   1      25.194 -18.563   0.206  0.00  0.00     0.019 A 
ATOM      6  C   UNL d   1      26.416 -18.025   0.637  0.00  0.00     0.030 A 
ENDROOT
BRANCH   1   7
ATOM      7  N   UNL d   1      27.977 -16.168   0.715  0.00  0.00    -0.381 N 
ATOM      8  H   UNL d   1      28.633 -16.757   1.237  0.00  0.00     0.160 HD
BRANCH   7   9
ATOM      9  C   UNL d   1      28.555 -14.926   0.201  0.00  0.00     0.223 C 
BRANCH   9  10
ATOM     10  C   UNL d   1      28.322 -13.826   1.248  0.00  0.00     0.239 C 
ATOM     11  N   UNL d   1      28.503 -14.202   2.578  0.00  0.00    -0.325 N 
ATOM     12  H   UNL d   1      28.772 -15.159   2.756  0.00  0.00     0.169 HD
ATOM     13  O   UNL d   1      27.989 -12.709   0.848  0.00  0.00    -0.271 OA
BRANCH  11  14
ATOM     14  C   UNL d   1      28.336 -13.343   3.711  0.00  0.00     0.041 A 
ATOM     15  C   UNL d   1      27.971 -12.001   3.522  0.00  0.00     0.030 A 
ATOM     16  C   UNL d   1      27.772 -11.118   4.573  0.00  0.00     0.003 A 
ATOM     17  C   UNL d   1      27.963 -11.549   5.869  0.00  0.00     0.007 A 
ATOM     18  C   UNL d   1      28.349 -12.874   6.122  0.00  0.00    -0.054 A 
ATOM     19  C   UNL d   1      28.563 -13.261   7.564  0.00  0.00     0.049 C 
ATOM     20  C   UNL d   1      28.527 -13.796   5.043  0.00  0.00    -0.029 A 
ATOM     21  C   UNL d   1      28.902 -15.217   5.389  0.00  0.00     0.051 C 
ENDBRANCH  11  14
ENDBRANCH   9  10
ENDBRANCH   7   9
ENDBRANCH   1   7
BRANCH   4  22
ATOM     22  C   UNL d   1      23.035 -18.352  -1.161  0.00  0.00     0.251 C 
ATOM     23  O   UNL d   1      23.063 -18.969  -2.227  0.00  0.00    -0.268 OA
ATOM     24  N   UNL d   1      21.869 -18.171  -0.455  0.00  0.00    -0.351 N 
ATOM     25  H   UNL d   1      21.897 -17.696   0.427  0.00  0.00     0.163 HD
BRANCH  24  26
ATOM     26  C   UNL d   1      20.580 -18.692  -0.894  0.00  0.00     0.187 C 
BRANCH  26  27
ATOM     27  C   UNL d   1      19.946 -19.472   0.216  0.00  0.00     0.070 A 
ATOM     28  C   UNL d   1      18.927 -20.405   0.262  0.00  0.00     0.036 A 
ATOM     29  C   UNL d   1      18.803 -20.824   1.603  0.00  0.00     0.027 A 
ATOM     30  C   UNL d   1      19.739 -20.110   2.311  0.00  0.00     0.142 A 
ATOM     31  O   UNL d   1      20.437 -19.285   1.482  0.00  0.00    -0.325 OA
ENDBRANCH  26  27
ENDBRANCH  24  26
ENDBRANCH   4  22
TORSDOF 7
ENDMDL
MODEL 3
REMARK VINA RESULT:    -8.667      1.559      2.275
REMARK INTER + INTRA:         -12.154
REMARK INTER:                 -10.755
REMARK INTRA:                  -1.399
REMARK CONF_INDEPENDENT:        2.088
REMARK UNBOUND:                -1.399
REMARK  7 active torsions:
REMARK  status: ('A' for Active; 'I' for Inactive)
REMARK    1  A    between atoms: C_6  and  N_7 
REMARK       I    between atoms: N_7  and  C_8 
REMARK    2  A    between atoms: C_8  and  C_10 
REMARK    3  A    between atoms: C_10  and  N_11 
REMARK    4  A    between atoms: N_11  and  C_12 
REMARK    5  A    between atoms: C_15  and  C_16 
REMARK       I    between atoms: C_16  and  N_18 
REMARK    6  A    between atoms: N_18  and  C_19 
REMARK    7  A    between atoms: C_19  and  C_20 
ROOT
ATOM      1  C   UNL d   1      26.711 -17.321  -0.267  0.00  0.00     0.028 A 
ATOM      2  C   UNL d   1      25.995 -18.420   0.221  0.00  0.00     0.030 A 
ATOM      3  C   UNL d   1      24.625 -18.575  -0.046  0.00  0.00     0.019 A 
ATOM      4  C   UNL d   1      23.920 -17.599  -0.762  0.00  0.00     0.032 A 
ATOM      5  C   UNL d   1      24.641 -16.508  -1.266  0.00  0.00     0.019 A 
ATOM      6  C   UNL d   1      26.014 -16.371  -1.008  0.00  0.00     0.030 A 
ENDROOT
BRANCH   1   7
ATOM      7  N   UNL d   1      28.044 -17.202   0.031  0.00  0.00    -0.381 N 
ATOM      8  H   UNL d   1      28.478 -17.932   0.605  0.00  0.00     0.160 HD
BRANCH   7   9
ATOM      9  C   UNL d   1      28.994 -16.302  -0.624  0.00  0.00     0.223 C 
BRANCH   9  10
ATOM     10  C   UNL d   1      28.926 -14.942   0.087  0.00  0.00     0.239 C 
ATOM     11  N   UNL d   1      28.716 -14.984   1.464  0.00  0.00    -0.325 N 
ATOM     12  H   UNL d   1      28.625 -15.895   1.890  0.00  0.00     0.169 HD
ATOM     13  O   UNL d   1      29.052 -13.925  -0.599  0.00  0.00    -0.271 OA
BRANCH  11  14
ATOM     14  C   UNL d   1      28.616 -13.841   2.321  0.00  0.00     0.041 A 
ATOM     15  C   UNL d   1      29.468 -13.723   3.429  0.00  0.00     0.030 A 
ATOM     16  C   UNL d   1      29.442 -12.635   4.289  0.00  0.00     0.003 A 
ATOM     17  C   UNL d   1      28.527 -11.624   4.079  0.00  0.00     0.007 A 
ATOM     18  C   UNL d   1      27.635 -11.694   2.999  0.00  0.00    -0.054 A 
ATOM     19  C   UNL d   1      26.648 -10.563   2.853  0.00  0.00     0.049 C 
ATOM     20  C   UNL d   1      27.677 -12.801   2.093  0.00  0.00    -0.029 A 
ATOM     21  C   UNL d   1      26.716 -12.792   0.929  0.00  0.00     0.051 C 
ENDBRANCH  11  14
ENDBRANCH   9  10
ENDBRANCH   7   9
ENDBRANCH   1   7
BRANCH   4  22
ATOM     22  C   UNL d   1      22.427 -17.746  -0.898  0.00  0.00     0.251 C 
ATOM     23  O   UNL d   1      21.699 -16.753  -0.886  0.00  0.00    -0.268 OA
ATOM     24  N   UNL d   1      21.924 -19.015  -1.072  0.00  0.00    -0.351 N 
ATOM     25  H   UNL d   1      22.556 -19.792  -1.115  0.00  0.00     0.163 HD
BRANCH  24  26
ATOM     26  C   UNL d   1      20.506 -19.293  -1.263  0.00  0.00     0.187 C 
BRANCH  26  27
ATOM     27  C   UNL d   1      19.911 -19.782   0.021  0.00  0.00     0.070 A 
ATOM     28  C   UNL d   1      18.752 -20.470   0.331  0.00  0.00     0.036 A 
ATOM     29  C   UNL d   1      18.755 -20.686   1.726  0.00  0.00     0.027 A 
ATOM     30  C   UNL d   1      19.904 -20.101   2.197  0.00  0.00     0.142 A 
ATOM     31  O   UNL d   1      20.613 -19.548   1.175  0.00  0.00    -0.325 OA
ENDBRANCH  26  27
ENDBRANCH  24  26
ENDBRANCH   4  22
TORSDOF 7
ENDMDL
MODEL 4
REMARK VINA RESULT:    -8.234      4.270      5.442
REMARK INTER + INTRA:         -11.663
REMARK INTER:                 -10.322
REMARK INTRA:                  -1.341
REMARK CONF_INDEPENDENT:        2.088
REMARK UNBOUND:                -1.341
REMARK  7 active torsions:
REMARK  status: ('A' for Active; 'I' for Inactive)
REMARK    1  A    between atoms: C_6  and  N_7 
REMARK       I    between atoms: N_7  and  C_8 
REMARK    2  A    between atoms: C_8  and  C_10 
REMARK    3  A    between atoms: C_10  and  N_11 
REMARK    4  A    between atoms: N_11  and  C_12 
REMARK    5  A    between atoms: C_15  and  C_16 
REMARK       I    between atoms: C_16  and  N_18 
REMARK    6  A    between atoms: N_18  and  C_19 
REMARK    7  A    between atoms: C_19  and  C_20 
ROOT
ATOM      1  C   UNL d   1      26.778 -17.152  -0.018  0.00  0.00     0.028 A 
ATOM      2  C   UNL d   1      25.960 -16.092  -0.421  0.00  0.00     0.030 A 
ATOM      3  C   UNL d   1      24.576 -16.262  -0.589  0.00  0.00     0.019 A 
ATOM      4  C   UNL d   1      23.982 -17.518  -0.414  0.00  0.00     0.032 A 
ATOM      5  C   UNL d   1      24.800 -18.575   0.007  0.00  0.00     0.019 A 
ATOM      6  C   UNL d   1      26.179 -18.391   0.189  0.00  0.00     0.030 A 
ENDROOT
BRANCH   1   7
ATOM      7  N   UNL d   1      28.127 -16.944   0.119  0.00  0.00    -0.381 N 
ATOM      8  H   UNL d   1      28.527 -16.971   1.062  0.00  0.00     0.160 HD
BRANCH   7   9
ATOM      9  C   UNL d   1      29.116 -16.983  -0.960  0.00  0.00     0.223 C 
BRANCH   9  10
ATOM     10  C   UNL d   1      28.763 -15.877  -1.965  0.00  0.00     0.239 C 
ATOM     11  N   UNL d   1      28.258 -14.697  -1.422  0.00  0.00    -0.325 N 
ATOM     12  H   UNL d   1      28.162 -14.655  -0.417  0.00  0.00     0.169 HD
ATOM     13  O   UNL d   1      28.941 -16.107  -3.163  0.00  0.00    -0.271 OA
BRANCH  11  14
ATOM     14  C   UNL d   1      27.863 -13.543  -2.172  0.00  0.00     0.041 A 
ATOM     15  C   UNL d   1      28.429 -12.293  -1.880  0.00  0.00     0.030 A 
ATOM     16  C   UNL d   1      28.109 -11.138  -2.579  0.00  0.00     0.003 A 
ATOM     17  C   UNL d   1      27.176 -11.193  -3.592  0.00  0.00     0.007 A 
ATOM     18  C   UNL d   1      26.559 -12.410  -3.918  0.00  0.00    -0.054 A 
ATOM     19  C   UNL d   1      25.530 -12.382  -5.020  0.00  0.00     0.049 C 
ATOM     20  C   UNL d   1      26.907 -13.609  -3.219  0.00  0.00    -0.029 A 
ATOM     21  C   UNL d   1      26.235 -14.892  -3.649  0.00  0.00     0.051 C 
ENDBRANCH  11  14
ENDBRANCH   9  10
ENDBRANCH   7   9
ENDBRANCH   1   7
BRANCH   4  22
ATOM     22  C   UNL d   1      22.520 -17.674  -0.743  0.00  0.00     0.251 C 
ATOM     23  O   UNL d   1      21.806 -16.682  -0.889  0.00  0.00    -0.268 OA
ATOM     24  N   UNL d   1      22.036 -18.951  -0.906  0.00  0.00    -0.351 N 
ATOM     25  H   UNL d   1      22.660 -19.729  -0.815  0.00  0.00     0.163 HD
BRANCH  24  26
ATOM     26  C   UNL d   1      20.654 -19.241  -1.270  0.00  0.00     0.187 C 
BRANCH  26  27
ATOM     27  C   UNL d   1      19.926 -19.796  -0.086  0.00  0.00     0.070 A 
ATOM     28  C   UNL d   1      20.171 -19.779   1.275  0.00  0.00     0.036 A 
ATOM     29  C   UNL d   1      19.094 -20.440   1.903  0.00  0.00     0.027 A 
ATOM     30  C   UNL d   1      18.258 -20.846   0.892  0.00  0.00     0.142 A 
ATOM     31  O   UNL d   1      18.751 -20.464  -0.319  0.00  0.00    -0.325 OA
ENDBRANCH  26  27
ENDBRANCH  24  26
ENDBRANCH   4  22
TORSDOF 7
ENDMDL
MODEL 5
REMARK VINA RESULT:    -8.076      3.766      5.873
REMARK INTER + INTRA:         -12.004
REMARK INTER:                 -10.164
REMARK INTRA:                  -1.840
REMARK CONF_INDEPENDENT:        2.088
REMARK UNBOUND:                -1.840
REMARK  7 active torsions:
REMARK  status: ('A' for Active; 'I' for Inactive)
REMARK    1  A    between atoms: C_6  and  N_7 
REMARK       I    between atoms: N_7  and  C_8 
REMARK    2  A    between atoms: C_8  and  C_10 
REMARK    3  A    between atoms: C_10  and  N_11 
REMARK    4  A    between atoms: N_11  and  C_12 
REMARK    5  A    between atoms: C_15  and  C_16 
REMARK       I    between atoms: C_16  and  N_18 
REMARK    6  A    between atoms: N_18  and  C_19 
REMARK    7  A    between atoms: C_19  and  C_20 
ROOT
ATOM      1  C   UNL d   1      26.555 -16.861   0.257  0.00  0.00     0.028 A 
ATOM      2  C   UNL d   1      26.249 -18.216   0.423  0.00  0.00     0.030 A 
ATOM      3  C   UNL d   1      25.093 -18.778  -0.143  0.00  0.00     0.019 A 
ATOM      4  C   UNL d   1      24.179 -17.981  -0.844  0.00  0.00     0.032 A 
ATOM      5  C   UNL d   1      24.495 -16.628  -1.026  0.00  0.00     0.019 A 
ATOM      6  C   UNL d   1      25.661 -16.080  -0.470  0.00  0.00     0.030 A 
ENDROOT
BRANCH   1   7
ATOM      7  N   UNL d   1      27.686 -16.351   0.841  0.00  0.00    -0.381 N 
ATOM      8  H   UNL d   1      27.736 -16.334   1.864  0.00  0.00     0.160 HD
BRANCH   7   9
ATOM      9  C   UNL d   1      28.961 -16.099   0.168  0.00  0.00     0.223 C 
BRANCH   9  10
ATOM     10  C   UNL d   1      28.688 -15.993  -1.340  0.00  0.00     0.239 C 
ATOM     11  N   UNL d   1      28.341 -14.727  -1.809  0.00  0.00    -0.325 N 
ATOM     12  H   UNL d   1      28.297 -13.979  -1.132  0.00  0.00     0.169 HD
ATOM     13  O   UNL d   1      28.784 -17.018  -2.018  0.00  0.00    -0.271 OA
BRANCH  11  14
ATOM     14  C   UNL d   1      28.043 -14.402  -3.171  0.00  0.00     0.041 A 
ATOM     15  C   UNL d   1      28.692 -15.087  -4.210  0.00  0.00     0.030 A 
ATOM     16  C   UNL d   1      28.438 -14.839  -5.551  0.00  0.00     0.003 A 
ATOM     17  C   UNL d   1      27.529 -13.863  -5.902  0.00  0.00     0.007 A 
ATOM     18  C   UNL d   1      26.863 -13.130  -4.909  0.00  0.00    -0.054 A 
ATOM     19  C   UNL d   1      25.905 -12.061  -5.374  0.00  0.00     0.049 C 
ATOM     20  C   UNL d   1      27.101 -13.401  -3.525  0.00  0.00    -0.029 A 
ATOM     21  C   UNL d   1      26.319 -12.603  -2.509  0.00  0.00     0.051 C 
ENDBRANCH  11  14
ENDBRANCH   9  10
ENDBRANCH   7   9
ENDBRANCH   1   7
BRANCH   4  22
ATOM     22  C   UNL d   1      22.889 -18.606  -1.309  0.00  0.00     0.251 C 
ATOM     23  O   UNL d   1      22.861 -19.280  -2.339  0.00  0.00    -0.268 OA
ATOM     24  N   UNL d   1      21.773 -18.424  -0.526  0.00  0.00    -0.351 N 
ATOM     25  H   UNL d   1      21.850 -17.900   0.324  0.00  0.00     0.163 HD
BRANCH  24  26
ATOM     26  C   UNL d   1      20.476 -19.012  -0.836  0.00  0.00     0.187 C 
BRANCH  26  27
ATOM     27  C   UNL d   1      19.896 -19.632   0.397  0.00  0.00     0.070 A 
ATOM     28  C   UNL d   1      18.806 -20.451   0.628  0.00  0.00     0.036 A 
ATOM     29  C   UNL d   1      18.788 -20.747   2.007  0.00  0.00     0.027 A 
ATOM     30  C   UNL d   1      19.856 -20.076   2.551  0.00  0.00     0.142 A 
ATOM     31  O   UNL d   1      20.535 -19.395   1.587  0.00  0.00    -0.325 OA
ENDBRANCH  26  27
ENDBRANCH  24  26
ENDBRANCH   4  22
TORSDOF 7
ENDMDL
MODEL 6
REMARK VINA RESULT:    -8.061      1.467      2.452
REMARK INTER + INTRA:         -11.610
REMARK INTER:                 -10.149
REMARK INTRA:                  -1.461
REMARK CONF_INDEPENDENT:        2.088
REMARK UNBOUND:                -1.461
REMARK  7 active torsions:
REMARK  status: ('A' for Active; 'I' for Inactive)
REMARK    1  A    between atoms: C_6  and  N_7 
REMARK       I    between atoms: N_7  and  C_8 
REMARK    2  A    between atoms: C_8  and  C_10 
REMARK    3  A    between atoms: C_10  and  N_11 
REMARK    4  A    between atoms: N_11  and  C_12 
REMARK    5  A    between atoms: C_15  and  C_16 
REMARK       I    between atoms: C_16  and  N_18 
REMARK    6  A    between atoms: N_18  and  C_19 
REMARK    7  A    between atoms: C_19  and  C_20 
ROOT
ATOM      1  C   UNL d   1      26.363 -16.505   0.042  0.00  0.00     0.028 A 
ATOM      2  C   UNL d   1      25.293 -15.853  -0.579  0.00  0.00     0.030 A 
ATOM      3  C   UNL d   1      24.123 -16.545  -0.930  0.00  0.00     0.019 A 
ATOM      4  C   UNL d   1      24.017 -17.926  -0.721  0.00  0.00     0.032 A 
ATOM      5  C   UNL d   1      25.081 -18.575  -0.082  0.00  0.00     0.019 A 
ATOM      6  C   UNL d   1      26.240 -17.871   0.281  0.00  0.00     0.030 A 
ENDROOT
BRANCH   1   7
ATOM      7  N   UNL d   1      27.494 -15.793   0.353  0.00  0.00    -0.381 N 
ATOM      8  H   UNL d   1      28.067 -15.437  -0.417  0.00  0.00     0.160 HD
BRANCH   7   9
ATOM      9  C   UNL d   1      27.820 -15.228   1.664  0.00  0.00     0.223 C 
BRANCH   9  10
ATOM     10  C   UNL d   1      27.246 -13.805   1.721  0.00  0.00     0.239 C 
ATOM     11  N   UNL d   1      27.897 -12.918   2.578  0.00  0.00    -0.325 N 
ATOM     12  H   UNL d   1      28.690 -13.273   3.093  0.00  0.00     0.169 HD
ATOM     13  O   UNL d   1      26.263 -13.549   1.023  0.00  0.00    -0.271 OA
BRANCH  11  14
ATOM     14  C   UNL d   1      27.531 -11.551   2.788  0.00  0.00     0.041 A 
ATOM     15  C   UNL d   1      26.638 -10.924   1.906  0.00  0.00     0.030 A 
ATOM     16  C   UNL d   1      26.224  -9.609   2.060  0.00  0.00     0.003 A 
ATOM     17  C   UNL d   1      26.720  -8.857   3.104  0.00  0.00     0.007 A 
ATOM     18  C   UNL d   1      27.633  -9.421   4.007  0.00  0.00    -0.054 A 
ATOM     19  C   UNL d   1      28.151  -8.526   5.105  0.00  0.00     0.049 C 
ATOM     20  C   UNL d   1      28.041 -10.785   3.869  0.00  0.00    -0.029 A 
ATOM     21  C   UNL d   1      28.994 -11.341   4.901  0.00  0.00     0.051 C 
ENDBRANCH  11  14
ENDBRANCH   9  10
ENDBRANCH   7   9
ENDBRANCH   1   7
BRANCH   4  22
ATOM     22  C   UNL d   1      22.797 -18.641  -1.243  0.00  0.00     0.251 C 
ATOM     23  O   UNL d   1      22.869 -19.333  -2.259  0.00  0.00    -0.268 OA
ATOM     24  N   UNL d   1      21.629 -18.517  -0.527  0.00  0.00    -0.351 N 
ATOM     25  H   UNL d   1      21.625 -17.975   0.316  0.00  0.00     0.163 HD
BRANCH  24  26
ATOM     26  C   UNL d   1      20.391 -19.193  -0.895  0.00  0.00     0.187 C 
BRANCH  26  27
ATOM     27  C   UNL d   1      19.744 -19.762   0.329  0.00  0.00     0.070 A 
ATOM     28  C   UNL d   1      18.671 -20.611   0.531  0.00  0.00     0.036 A 
ATOM     29  C   UNL d   1      18.562 -20.824   1.922  0.00  0.00     0.027 A 
ATOM     30  C   UNL d   1      19.560 -20.079   2.498  0.00  0.00     0.142 A 
ATOM     31  O   UNL d   1      20.283 -19.428   1.545  0.00  0.00    -0.325 OA
ENDBRANCH  26  27
ENDBRANCH  24  26
ENDBRANCH   4  22
TORSDOF 7
ENDMDL
MODEL 7
REMARK VINA RESULT:    -8.002      3.780      6.124
REMARK INTER + INTRA:         -12.158
REMARK INTER:                 -10.090
REMARK INTRA:                  -2.069
REMARK CONF_INDEPENDENT:        2.088
REMARK UNBOUND:                -2.069
REMARK  7 active torsions:
REMARK  status: ('A' for Active; 'I' for Inactive)
REMARK    1  A    between atoms: C_6  and  N_7 
REMARK       I    between atoms: N_7  and  C_8 
REMARK    2  A    between atoms: C_8  and  C_10 
REMARK    3  A    between atoms: C_10  and  N_11 
REMARK    4  A    between atoms: N_11  and  C_12 
REMARK    5  A    between atoms: C_15  and  C_16 
REMARK       I    between atoms: C_16  and  N_18 
REMARK    6  A    between atoms: N_18  and  C_19 
REMARK    7  A    between atoms: C_19  and  C_20 
ROOT
ATOM      1  C   UNL d   1      26.804 -16.609   0.429  0.00  0.00     0.028 A 
ATOM      2  C   UNL d   1      25.863 -15.861  -0.285  0.00  0.00     0.030 A 
ATOM      3  C   UNL d   1      24.667 -16.439  -0.743  0.00  0.00     0.019 A 
ATOM      4  C   UNL d   1      24.410 -17.802  -0.548  0.00  0.00     0.032 A 
ATOM      5  C   UNL d   1      25.345 -18.546   0.183  0.00  0.00     0.019 A 
ATOM      6  C   UNL d   1      26.529 -17.956   0.651  0.00  0.00     0.030 A 
ENDROOT
BRANCH   1   7
ATOM      7  N   UNL d   1      27.965 -16.008   0.844  0.00  0.00    -0.381 N 
ATOM      8  H   UNL d   1      27.990 -15.604   1.785  0.00  0.00     0.160 HD
BRANCH   7   9
ATOM      9  C   UNL d   1      29.276 -16.137   0.204  0.00  0.00     0.223 C 
BRANCH   9  10
ATOM     10  C   UNL d   1      29.055 -16.235  -1.312  0.00  0.00     0.239 C 
ATOM     11  N   UNL d   1      28.438 -15.138  -1.912  0.00  0.00    -0.325 N 
ATOM     12  H   UNL d   1      28.185 -14.366  -1.312  0.00  0.00     0.169 HD
ATOM     13  O   UNL d   1      29.425 -17.263  -1.885  0.00  0.00    -0.271 OA
BRANCH  11  14
ATOM     14  C   UNL d   1      28.135 -15.018  -3.305  0.00  0.00     0.041 A 
ATOM     15  C   UNL d   1      26.798 -15.014  -3.731  0.00  0.00     0.030 A 
ATOM     16  C   UNL d   1      26.431 -14.881  -5.063  0.00  0.00     0.003 A 
ATOM     17  C   UNL d   1      27.407 -14.773  -6.030  0.00  0.00     0.007 A 
ATOM     18  C   UNL d   1      28.762 -14.792  -5.669  0.00  0.00    -0.054 A 
ATOM     19  C   UNL d   1      29.770 -14.696  -6.788  0.00  0.00     0.049 C 
ATOM     20  C   UNL d   1      29.146 -14.900  -4.295  0.00  0.00    -0.029 A 
ATOM     21  C   UNL d   1      30.621 -14.872  -3.974  0.00  0.00     0.051 C 
ENDBRANCH  11  14
ENDBRANCH   9  10
ENDBRANCH   7   9
ENDBRANCH   1   7
BRANCH   4  22
ATOM     22  C   UNL d   1      23.180 -18.399  -1.181  0.00  0.00     0.251 C 
ATOM     23  O   UNL d   1      23.231 -18.870  -2.317  0.00  0.00    -0.268 OA
ATOM     24  N   UNL d   1      22.026 -18.426  -0.432  0.00  0.00    -0.351 N 
ATOM     25  H   UNL d   1      22.039 -18.065   0.502  0.00  0.00     0.163 HD
BRANCH  24  26
ATOM     26  C   UNL d   1      20.780 -19.015  -0.906  0.00  0.00     0.187 C 
BRANCH  26  27
ATOM     27  C   UNL d   1      20.040 -19.623   0.245  0.00  0.00     0.070 A 
ATOM     28  C   UNL d   1      18.900 -20.401   0.340  0.00  0.00     0.036 A 
ATOM     29  C   UNL d   1      18.715 -20.707   1.704  0.00  0.00     0.027 A 
ATOM     30  C   UNL d   1      19.738 -20.084   2.375  0.00  0.00     0.142 A 
ATOM     31  O   UNL d   1      20.547 -19.421   1.503  0.00  0.00    -0.325 OA
ENDBRANCH  26  27
ENDBRANCH  24  26
ENDBRANCH   4  22
TORSDOF 7
ENDMDL
MODEL 8
REMARK VINA RESULT:    -7.934      4.899      7.156
REMARK INTER + INTRA:         -12.066
REMARK INTER:                 -10.022
REMARK INTRA:                  -2.044
REMARK CONF_INDEPENDENT:        2.088
REMARK UNBOUND:                -2.044
REMARK  7 active torsions:
REMARK  status: ('A' for Active; 'I' for Inactive)
REMARK    1  A    between atoms: C_6  and  N_7 
REMARK       I    between atoms: N_7  and  C_8 
REMARK    2  A    between atoms: C_8  and  C_10 
REMARK    3  A    between atoms: C_10  and  N_11 
REMARK    4  A    between atoms: N_11  and  C_12 
REMARK    5  A    between atoms: C_15  and  C_16 
REMARK       I    between atoms: C_16  and  N_18 
REMARK    6  A    between atoms: N_18  and  C_19 
REMARK    7  A    between atoms: C_19  and  C_20 
ROOT
ATOM      1  C   UNL d   1      25.891 -14.033  -2.803  0.00  0.00     0.028 A 
ATOM      2  C   UNL d   1      24.600 -14.571  -2.825  0.00  0.00     0.030 A 
ATOM      3  C   UNL d   1      24.261 -15.685  -2.040  0.00  0.00     0.019 A 
ATOM      4  C   UNL d   1      25.225 -16.327  -1.254  0.00  0.00     0.032 A 
ATOM      5  C   UNL d   1      26.513 -15.776  -1.218  0.00  0.00     0.019 A 
ATOM      6  C   UNL d   1      26.838 -14.653  -1.993  0.00  0.00     0.030 A 
ENDROOT
BRANCH   1   7
ATOM      7  N   UNL d   1      26.182 -12.954  -3.598  0.00  0.00    -0.381 N 
ATOM      8  H   UNL d   1      26.148 -12.021  -3.177  0.00  0.00     0.160 HD
BRANCH   7   9
ATOM      9  C   UNL d   1      26.827 -13.003  -4.911  0.00  0.00     0.223 C 
BRANCH   9  10
ATOM     10  C   UNL d   1      27.478 -14.386  -5.067  0.00  0.00     0.239 C 
ATOM     11  N   UNL d   1      28.648 -14.595  -4.339  0.00  0.00    -0.325 N 
ATOM     12  H   UNL d   1      28.979 -13.832  -3.767  0.00  0.00     0.169 HD
ATOM     13  O   UNL d   1      26.934 -15.198  -5.818  0.00  0.00    -0.271 OA
BRANCH  11  14
ATOM     14  C   UNL d   1      29.417 -15.803  -4.338  0.00  0.00     0.041 A 
ATOM     15  C   UNL d   1      29.661 -16.474  -3.130  0.00  0.00     0.030 A 
ATOM     16  C   UNL d   1      30.380 -17.658  -3.058  0.00  0.00     0.003 A 
ATOM     17  C   UNL d   1      30.909 -18.205  -4.208  0.00  0.00     0.007 A 
ATOM     18  C   UNL d   1      30.716 -17.570  -5.443  0.00  0.00    -0.054 A 
ATOM     19  C   UNL d   1      31.349 -18.215  -6.651  0.00  0.00     0.049 C 
ATOM     20  C   UNL d   1      29.951 -16.363  -5.528  0.00  0.00    -0.029 A 
ATOM     21  C   UNL d   1      29.748 -15.755  -6.895  0.00  0.00     0.051 C 
ENDBRANCH  11  14
ENDBRANCH   9  10
ENDBRANCH   7   9
ENDBRANCH   1   7
BRANCH   4  22
ATOM     22  C   UNL d   1      24.842 -17.599  -0.542  0.00  0.00     0.251 C 
ATOM     23  O   UNL d   1      25.615 -18.119   0.264  0.00  0.00    -0.268 OA
ATOM     24  N   UNL d   1      23.597 -18.124  -0.800  0.00  0.00    -0.351 N 
ATOM     25  H   UNL d   1      22.985 -17.648  -1.434  0.00  0.00     0.163 HD
BRANCH  24  26
ATOM     26  C   UNL d   1      23.084 -19.321  -0.145  0.00  0.00     0.187 C 
BRANCH  26  27
ATOM     27  C   UNL d   1      21.588 -19.330  -0.211  0.00  0.00     0.070 A 
ATOM     28  C   UNL d   1      20.613 -20.097   0.400  0.00  0.00     0.036 A 
ATOM     29  C   UNL d   1      19.363 -19.603  -0.028  0.00  0.00     0.027 A 
ATOM     30  C   UNL d   1      19.638 -18.575  -0.894  0.00  0.00     0.142 A 
ATOM     31  O   UNL d   1      20.983 -18.400  -1.016  0.00  0.00    -0.325 OA
ENDBRANCH  26  27
ENDBRANCH  24  26
ENDBRANCH   4  22
TORSDOF 7
ENDMDL
MODEL 9
REMARK VINA RESULT:    -7.812      2.719      5.145
REMARK INTER + INTRA:         -11.727
REMARK INTER:                  -9.900
REMARK INTRA:                  -1.826
REMARK CONF_INDEPENDENT:        2.088
REMARK UNBOUND:                -1.826
REMARK  7 active torsions:
REMARK  status: ('A' for Active; 'I' for Inactive)
REMARK    1  A    between atoms: C_6  and  N_7 
REMARK       I    between atoms: N_7  and  C_8 
REMARK    2  A    between atoms: C_8  and  C_10 
REMARK    3  A    between atoms: C_10  and  N_11 
REMARK    4  A    between atoms: N_11  and  C_12 
REMARK    5  A    between atoms: C_15  and  C_16 
REMARK       I    between atoms: C_16  and  N_18 
REMARK    6  A    between atoms: N_18  and  C_19 
REMARK    7  A    between atoms: C_19  and  C_20 
ROOT
ATOM      1  C   UNL d   1      26.411 -16.513   0.183  0.00  0.00     0.028 A 
ATOM      2  C   UNL d   1      26.165 -17.854   0.492  0.00  0.00     0.030 A 
ATOM      3  C   UNL d   1      25.069 -18.540  -0.057  0.00  0.00     0.019 A 
ATOM      4  C   UNL d   1      24.154 -17.881  -0.887  0.00  0.00     0.032 A 
ATOM      5  C   UNL d   1      24.412 -16.542  -1.212  0.00  0.00     0.019 A 
ATOM      6  C   UNL d   1      25.519 -15.871  -0.672  0.00  0.00     0.030 A 
ENDROOT
BRANCH   1   7
ATOM      7  N   UNL d   1      27.484 -15.878   0.754  0.00  0.00    -0.381 N 
ATOM      8  H   UNL d   1      28.421 -16.103   0.404  0.00  0.00     0.160 HD
BRANCH   7   9
ATOM      9  C   UNL d   1      27.425 -14.691   1.608  0.00  0.00     0.223 C 
BRANCH   9  10
ATOM     10  C   UNL d   1      26.977 -13.505   0.741  0.00  0.00     0.239 C 
ATOM     11  N   UNL d   1      27.431 -13.507  -0.577  0.00  0.00    -0.325 N 
ATOM     12  H   UNL d   1      28.015 -14.279  -0.863  0.00  0.00     0.169 HD
ATOM     13  O   UNL d   1      26.265 -12.645   1.263  0.00  0.00    -0.271 OA
BRANCH  11  14
ATOM     14  C   UNL d   1      27.138 -12.503  -1.554  0.00  0.00     0.041 A 
ATOM     15  C   UNL d   1      27.397 -11.154  -1.269  0.00  0.00     0.030 A 
ATOM     16  C   UNL d   1      27.157 -10.131  -2.175  0.00  0.00     0.003 A 
ATOM     17  C   UNL d   1      26.616 -10.428  -3.408  0.00  0.00     0.007 A 
ATOM     18  C   UNL d   1      26.317 -11.756  -3.745  0.00  0.00    -0.054 A 
ATOM     19  C   UNL d   1      25.703 -11.996  -5.102  0.00  0.00     0.049 C 
ATOM     20  C   UNL d   1      26.589 -12.818  -2.825  0.00  0.00    -0.029 A 
ATOM     21  C   UNL d   1      26.280 -14.228  -3.268  0.00  0.00     0.051 C 
ENDBRANCH  11  14
ENDBRANCH   9  10
ENDBRANCH   7   9
ENDBRANCH   1   7
BRANCH   4  22
ATOM     22  C   UNL d   1      22.923 -18.625  -1.334  0.00  0.00     0.251 C 
ATOM     23  O   UNL d   1      22.935 -19.276  -2.380  0.00  0.00    -0.268 OA
ATOM     24  N   UNL d   1      21.817 -18.577  -0.519  0.00  0.00    -0.351 N 
ATOM     25  H   UNL d   1      21.863 -18.067   0.342  0.00  0.00     0.163 HD
BRANCH  24  26
ATOM     26  C   UNL d   1      20.578 -19.289  -0.810  0.00  0.00     0.187 C 
BRANCH  26  27
ATOM     27  C   UNL d   1      19.954 -19.758   0.468  0.00  0.00     0.070 A 
ATOM     28  C   UNL d   1      18.769 -20.404   0.767  0.00  0.00     0.036 A 
ATOM     29  C   UNL d   1      18.751 -20.622   2.161  0.00  0.00     0.027 A 
ATOM     30  C   UNL d   1      19.915 -20.079   2.644  0.00  0.00     0.142 A 
ATOM     31  O   UNL d   1      20.653 -19.550   1.629  0.00  0.00    -0.325 OA
ENDBRANCH  26  27
ENDBRANCH  24  26
ENDBRANCH   4  22
TORSDOF 7
ENDMDL
