MODEL 1
REMARK VINA RESULT:   -10.299      0.000      0.000
REMARK INTER + INTRA:         -12.388
REMARK INTER:                 -11.493
REMARK INTRA:                  -0.895
REMARK CONF_INDEPENDENT:        1.193
REMARK UNBOUND:                -0.895
REMARK  4 active torsions:
REMARK  status: ('A' for Active; 'I' for Inactive)
REMARK    1  A    between atoms: C_2  and  C_3 
REMARK       I    between atoms: C_3  and  N_5 
REMARK    2  A    between atoms: N_5  and  C_6 
REMARK    3  A    between atoms: N_24  and  C_25 
REMARK    4  A    between atoms: C_25  and  C_26 
ROOT
ATOM      1  C   UNL d   1      23.451 -17.491  -0.243  0.00  0.00     0.035 C 
ATOM      2  C   UNL d   1      24.493 -17.825   0.605  0.00  0.00     0.032 C 
ATOM      3  C   UNL d   1      25.793 -17.479   0.242  0.00  0.00     0.032 C 
ATOM      4  C   UNL d   1      26.079 -16.796  -0.956  0.00  0.00     0.037 C 
ATOM      5  C   UNL d   1      24.993 -16.342  -1.726  0.00  0.00    -0.028 C 
ATOM      6  C   UNL d   1      23.698 -16.714  -1.372  0.00  0.00     0.039 C 
ATOM      7  C   UNL d   1      25.155 -15.500  -2.966  0.00  0.00     0.072 C 
ATOM      8  C   UNL d   1      26.536 -14.862  -3.036  0.00  0.00     0.148 A 
ATOM      9  C   UNL d   1      26.784 -14.401  -4.463  0.00  0.00     0.246 A 
ATOM     10  O   UNL d   1      26.864 -15.203  -5.395  0.00  0.00    -0.272 OA
ATOM     11  N   UNL d   1      27.066 -13.088  -4.681  0.00  0.00    -0.278 N 
ATOM     12  C   UNL d   1      27.186 -12.099  -3.744  0.00  0.00     0.329 A 
ATOM     13  O   UNL d   1      27.493 -10.976  -4.029  0.00  0.00    -0.247 OA
ATOM     14  N   UNL d   1      26.967 -12.488  -2.457  0.00  0.00    -0.278 N 
ATOM     15  C   UNL d   1      26.647 -13.728  -2.008  0.00  0.00     0.246 A 
ATOM     16  O   UNL d   1      26.512 -13.857  -0.793  0.00  0.00    -0.272 OA
ATOM     17  C   UNL d   1      27.527 -16.018  -2.747  0.00  0.00     0.138 C 
ATOM     18  C   UNL d   1      28.949 -15.549  -3.044  0.00  0.00     0.262 C 
ATOM     19  N   UNL d   1      29.981 -16.506  -2.505  0.00  0.00    -0.064 N 
ATOM     20  C   UNL d   1      29.791 -17.007  -1.100  0.00  0.00     0.255 C 
ATOM     21  C   UNL d   1      28.388 -17.519  -0.909  0.00  0.00     0.151 C 
ATOM     22  N   UNL d   1      27.405 -16.520  -1.350  0.00  0.00    -0.371 N 
ATOM     23  H   UNL d   1      27.260 -12.796  -5.632  0.00  0.00     0.173 HD
ATOM     24  H   UNL d   1      27.029 -11.762  -1.754  0.00  0.00     0.173 HD
ATOM     25  H   UNL d   1      29.948 -17.328  -3.118  0.00  0.00     0.280 HD
ENDROOT
BRANCH  19  26
ATOM     26  C   UNL d   1      31.309 -15.924  -2.609  0.00  0.00     0.273 C 
BRANCH  26  27
ATOM     27  C   UNL d   1      31.755 -15.570  -3.991  0.00  0.00    -0.030 C 
ATOM     28  C   UNL d   1      32.226 -14.363  -4.584  0.00  0.00     0.012 C 
ATOM     29  C   UNL d   1      32.458 -14.320  -5.969  0.00  0.00     0.040 C 
ATOM     30  C   UNL d   1      31.970 -15.402  -6.666  0.00  0.00     0.105 C 
ATOM     31  C   UNL d   1      31.082 -16.213  -6.041  0.00  0.00     0.105 C 
ATOM     32  O   UNL d   1      32.287 -16.027  -7.846  0.00  0.00    -0.323 OA
ATOM     33  C   UNL d   1      31.430 -16.599  -4.813  0.00  0.00     0.048 C 
ATOM     34  O   UNL d   1      30.406 -17.046  -6.858  0.00  0.00    -0.323 OA
ATOM     35  C   UNL d   1      31.543 -17.292  -7.664  0.00  0.00     0.352 C 
ENDBRANCH  26  27
ENDBRANCH  19  26
BRANCH   1  36
ATOM     36  N   UNL d   1      22.152 -17.979  -0.013  0.00  0.00    -0.327 N 
ATOM     37  C   UNL d   1      21.623 -18.911  -0.900  0.00  0.00     0.221 C 
ATOM     38  O   UNL d   1      22.220 -19.325  -1.894  0.00  0.00    -0.273 OA
ATOM     39  H   UNL d   1      21.780 -17.931   0.927  0.00  0.00     0.169 HD
BRANCH  37  40
ATOM     40  C   UNL d   1      20.249 -19.431  -0.539  0.00  0.00     0.098 C 
ATOM     41  C   UNL d   1      20.279 -20.010   0.873  0.00  0.00     0.014 C 
ENDBRANCH  37  40
ENDBRANCH   1  36
TORSDOF 4
ENDMDL
MODEL 2
REMARK VINA RESULT:   -10.053      1.631      1.857
REMARK INTER + INTRA:         -12.358
REMARK INTER:                 -11.246
REMARK INTRA:                  -1.112
REMARK CONF_INDEPENDENT:        1.193
REMARK UNBOUND:                -1.112
REMARK  4 active torsions:
REMARK  status: ('A' for Active; 'I' for Inactive)
REMARK    1  A    between atoms: C_2  and  C_3 
REMARK       I    between atoms: C_3  and  N_5 
REMARK    2  A    between atoms: N_5  and  C_6 
REMARK    3  A    between atoms: N_24  and  C_25 
REMARK    4  A    between atoms: C_25  and  C_26 
ROOT
ATOM      1  C   UNL d   1      24.049 -18.275  -0.203  0.00  0.00     0.035 C 
ATOM      2  C   UNL d   1      25.121 -18.200   0.670  0.00  0.00     0.032 C 
ATOM      3  C   UNL d   1      26.269 -17.519   0.270  0.00  0.00     0.032 C 
ATOM      4  C   UNL d   1      26.370 -16.899  -0.990  0.00  0.00     0.037 C 
ATOM      5  C   UNL d   1      25.219 -16.864  -1.797  0.00  0.00    -0.028 C 
ATOM      6  C   UNL d   1      24.084 -17.569  -1.404  0.00  0.00     0.039 C 
ATOM      7  C   UNL d   1      25.155 -16.133  -3.115  0.00  0.00     0.072 C 
ATOM      8  C   UNL d   1      26.287 -15.122  -3.251  0.00  0.00     0.148 A 
ATOM      9  C   UNL d   1      26.423 -14.745  -4.717  0.00  0.00     0.246 A 
ATOM     10  O   UNL d   1      26.761 -15.572  -5.567  0.00  0.00    -0.272 OA
ATOM     11  N   UNL d   1      26.308 -13.435  -5.064  0.00  0.00    -0.278 N 
ATOM     12  C   UNL d   1      26.105 -12.371  -4.229  0.00  0.00     0.329 A 
ATOM     13  O   UNL d   1      26.072 -11.240  -4.624  0.00  0.00    -0.247 OA
ATOM     14  N   UNL d   1      25.978 -12.684  -2.910  0.00  0.00    -0.278 N 
ATOM     15  C   UNL d   1      26.029 -13.915  -2.341  0.00  0.00     0.246 A 
ATOM     16  O   UNL d   1      25.907 -13.963  -1.118  0.00  0.00    -0.272 OA
ATOM     17  C   UNL d   1      27.568 -15.898  -2.854  0.00  0.00     0.138 C 
ATOM     18  C   UNL d   1      28.794 -15.057  -3.200  0.00  0.00     0.262 C 
ATOM     19  N   UNL d   1      30.049 -15.608  -2.574  0.00  0.00    -0.064 N 
ATOM     20  C   UNL d   1      29.980 -16.006  -1.126  0.00  0.00     0.255 C 
ATOM     21  C   UNL d   1      28.788 -16.893  -0.881  0.00  0.00     0.151 C 
ATOM     22  N   UNL d   1      27.564 -16.278  -1.414  0.00  0.00    -0.371 N 
ATOM     23  H   UNL d   1      26.431 -13.190  -6.040  0.00  0.00     0.173 HD
ATOM     24  H   UNL d   1      25.803 -11.909  -2.281  0.00  0.00     0.173 HD
ATOM     25  H   UNL d   1      30.277 -16.456  -3.104  0.00  0.00     0.280 HD
ENDROOT
BRANCH  19  26
ATOM     26  C   UNL d   1      31.147 -14.668  -2.739  0.00  0.00     0.273 C 
BRANCH  26  27
ATOM     27  C   UNL d   1      30.922 -13.579  -3.737  0.00  0.00    -0.030 C 
ATOM     28  C   UNL d   1      30.460 -12.236  -3.627  0.00  0.00     0.012 C 
ATOM     29  C   UNL d   1      30.240 -11.484  -4.793  0.00  0.00     0.040 C 
ATOM     30  C   UNL d   1      30.266 -12.215  -5.960  0.00  0.00     0.105 C 
ATOM     31  C   UNL d   1      30.189 -13.564  -5.867  0.00  0.00     0.105 C 
ATOM     32  O   UNL d   1      30.538 -11.942  -7.277  0.00  0.00    -0.323 OA
ATOM     33  C   UNL d   1      31.013 -14.122  -4.978  0.00  0.00     0.048 C 
ATOM     34  O   UNL d   1      29.896 -14.196  -7.022  0.00  0.00    -0.323 OA
ATOM     35  C   UNL d   1      30.706 -13.321  -7.786  0.00  0.00     0.352 C 
ENDBRANCH  26  27
ENDBRANCH  19  26
BRANCH   1  36
ATOM     36  N   UNL d   1      22.948 -19.103   0.078  0.00  0.00    -0.327 N 
ATOM     37  C   UNL d   1      21.682 -18.688  -0.322  0.00  0.00     0.221 C 
ATOM     38  O   UNL d   1      21.461 -17.621  -0.895  0.00  0.00    -0.273 OA
ATOM     39  H   UNL d   1      23.116 -20.089   0.229  0.00  0.00     0.169 HD
BRANCH  37  40
ATOM     40  C   UNL d   1      20.567 -19.671  -0.040  0.00  0.00     0.098 C 
ATOM     41  C   UNL d   1      19.352 -19.319  -0.893  0.00  0.00     0.014 C 
ENDBRANCH  37  40
ENDBRANCH   1  36
TORSDOF 4
ENDMDL
MODEL 3
REMARK VINA RESULT:    -9.787      2.550      4.000
REMARK INTER + INTRA:         -11.623
REMARK INTER:                 -10.980
REMARK INTRA:                  -0.643
REMARK CONF_INDEPENDENT:        1.193
REMARK UNBOUND:                -0.643
REMARK  4 active torsions:
REMARK  status: ('A' for Active; 'I' for Inactive)
REMARK    1  A    between atoms: C_2  and  C_3 
REMARK       I    between atoms: C_3  and  N_5 
REMARK    2  A    between atoms: N_5  and  C_6 
REMARK    3  A    between atoms: N_24  and  C_25 
REMARK    4  A    between atoms: C_25  and  C_26 
ROOT
ATOM      1  C   UNL d   1      23.453 -17.506  -0.314  0.00  0.00     0.035 C 
ATOM      2  C   UNL d   1      24.393 -17.877   0.633  0.00  0.00     0.032 C 
ATOM      3  C   UNL d   1      25.739 -17.613   0.385  0.00  0.00     0.032 C 
ATOM      4  C   UNL d   1      26.172 -16.977  -0.794  0.00  0.00     0.037 C 
ATOM      5  C   UNL d   1      25.189 -16.482  -1.669  0.00  0.00    -0.028 C 
ATOM      6  C   UNL d   1      23.848 -16.771  -1.430  0.00  0.00     0.039 C 
ATOM      7  C   UNL d   1      25.512 -15.680  -2.906  0.00  0.00     0.072 C 
ATOM      8  C   UNL d   1      26.928 -15.123  -2.859  0.00  0.00     0.148 A 
ATOM      9  C   UNL d   1      27.332 -14.711  -4.265  0.00  0.00     0.246 A 
ATOM     10  O   UNL d   1      27.450 -15.538  -5.171  0.00  0.00    -0.272 OA
ATOM     11  N   UNL d   1      27.708 -13.421  -4.481  0.00  0.00    -0.278 N 
ATOM     12  C   UNL d   1      27.799 -12.418  -3.557  0.00  0.00     0.329 A 
ATOM     13  O   UNL d   1      28.196 -11.321  -3.833  0.00  0.00    -0.247 OA
ATOM     14  N   UNL d   1      27.441 -12.763  -2.288  0.00  0.00    -0.278 N 
ATOM     15  C   UNL d   1      27.010 -13.972  -1.848  0.00  0.00     0.246 A 
ATOM     16  O   UNL d   1      26.757 -14.063  -0.648  0.00  0.00    -0.272 OA
ATOM     17  C   UNL d   1      27.820 -16.325  -2.457  0.00  0.00     0.138 C 
ATOM     18  C   UNL d   1      29.288 -15.943  -2.630  0.00  0.00     0.262 C 
ATOM     19  N   UNL d   1      30.209 -16.944  -1.980  0.00  0.00    -0.064 N 
ATOM     20  C   UNL d   1      29.863 -17.398  -0.590  0.00  0.00     0.255 C 
ATOM     21  C   UNL d   1      28.421 -17.826  -0.520  0.00  0.00     0.151 C 
ATOM     22  N   UNL d   1      27.541 -16.784  -1.069  0.00  0.00    -0.371 N 
ATOM     23  H   UNL d   1      28.005 -13.164  -5.416  0.00  0.00     0.173 HD
ATOM     24  H   UNL d   1      27.481 -12.024  -1.596  0.00  0.00     0.173 HD
ATOM     25  H   UNL d   1      30.185 -17.777  -2.578  0.00  0.00     0.280 HD
ENDROOT
BRANCH  19  26
ATOM     26  C   UNL d   1      31.573 -16.439  -1.972  0.00  0.00     0.273 C 
BRANCH  26  27
ATOM     27  C   UNL d   1      32.401 -16.830  -0.791  0.00  0.00    -0.030 C 
ATOM     28  C   UNL d   1      32.915 -18.076  -0.331  0.00  0.00     0.012 C 
ATOM     29  C   UNL d   1      33.574 -18.136   0.909  0.00  0.00     0.040 C 
ATOM     30  C   UNL d   1      33.446 -17.002   1.681  0.00  0.00     0.105 C 
ATOM     31  C   UNL d   1      32.490 -16.105   1.339  0.00  0.00     0.105 C 
ATOM     32  O   UNL d   1      34.186 -16.408   2.672  0.00  0.00    -0.323 OA
ATOM     33  C   UNL d   1      32.461 -15.766   0.049  0.00  0.00     0.048 C 
ATOM     34  O   UNL d   1      32.198 -15.199   2.294  0.00  0.00    -0.323 OA
ATOM     35  C   UNL d   1      33.553 -15.071   2.685  0.00  0.00     0.352 C 
ENDBRANCH  26  27
ENDBRANCH  19  26
BRANCH   1  36
ATOM     36  N   UNL d   1      22.113 -17.915  -0.196  0.00  0.00    -0.327 N 
ATOM     37  C   UNL d   1      21.618 -18.846  -1.103  0.00  0.00     0.221 C 
ATOM     38  O   UNL d   1      22.281 -19.325  -2.023  0.00  0.00    -0.273 OA
ATOM     39  H   UNL d   1      21.658 -17.815   0.702  0.00  0.00     0.169 HD
BRANCH  37  40
ATOM     40  C   UNL d   1      20.188 -19.279  -0.861  0.00  0.00     0.098 C 
ATOM     41  C   UNL d   1      20.026 -19.707   0.595  0.00  0.00     0.014 C 
ENDBRANCH  37  40
ENDBRANCH   1  36
TORSDOF 4
ENDMDL
MODEL 4
REMARK VINA RESULT:    -9.744      2.118      3.780
REMARK INTER + INTRA:         -11.732
REMARK INTER:                 -10.937
REMARK INTRA:                  -0.795
REMARK CONF_INDEPENDENT:        1.193
REMARK UNBOUND:                -0.795
REMARK  4 active torsions:
REMARK  status: ('A' for Active; 'I' for Inactive)
REMARK    1  A    between atoms: C_2  and  C_3 
REMARK       I    between atoms: C_3  and  N_5 
REMARK    2  A    between atoms: N_5  and  C_6 
REMARK    3  A    between atoms: N_24  and  C_25 
REMARK    4  A    between atoms: C_25  and  C_26 
ROOT
ATOM      1  C   UNL d   1      23.669 -18.441  -0.463  0.00  0.00     0.035 C 
ATOM      2  C   UNL d   1      23.576 -18.198  -1.823  0.00  0.00     0.032 C 
ATOM      3  C   UNL d   1      24.414 -17.242  -2.395  0.00  0.00     0.032 C 
ATOM      4  C   UNL d   1      25.355 -16.521  -1.635  0.00  0.00     0.037 C 
ATOM      5  C   UNL d   1      25.529 -16.890  -0.288  0.00  0.00    -0.028 C 
ATOM      6  C   UNL d   1      24.672 -17.827   0.284  0.00  0.00     0.039 C 
ATOM      7  C   UNL d   1      26.581 -16.282   0.605  0.00  0.00     0.072 C 
ATOM      8  C   UNL d   1      27.663 -15.576  -0.202  0.00  0.00     0.148 A 
ATOM      9  C   UNL d   1      28.428 -14.646   0.725  0.00  0.00     0.246 A 
ATOM     10  O   UNL d   1      27.885 -13.678   1.260  0.00  0.00    -0.272 OA
ATOM     11  N   UNL d   1      29.773 -14.812   0.846  0.00  0.00    -0.278 N 
ATOM     12  C   UNL d   1      30.559 -15.723   0.195  0.00  0.00     0.329 A 
ATOM     13  O   UNL d   1      31.749 -15.756   0.325  0.00  0.00    -0.247 OA
ATOM     14  N   UNL d   1      29.895 -16.569  -0.641  0.00  0.00    -0.278 N 
ATOM     15  C   UNL d   1      28.562 -16.608  -0.896  0.00  0.00     0.246 A 
ATOM     16  O   UNL d   1      28.180 -17.450  -1.706  0.00  0.00    -0.272 OA
ATOM     17  C   UNL d   1      26.895 -14.689  -1.214  0.00  0.00     0.138 C 
ATOM     18  C   UNL d   1      27.877 -13.744  -1.902  0.00  0.00     0.262 C 
ATOM     19  N   UNL d   1      27.262 -13.068  -3.101  0.00  0.00    -0.064 N 
ATOM     20  C   UNL d   1      26.485 -13.932  -4.056  0.00  0.00     0.255 C 
ATOM     21  C   UNL d   1      25.489 -14.779  -3.308  0.00  0.00     0.151 C 
ATOM     22  N   UNL d   1      26.143 -15.502  -2.208  0.00  0.00    -0.371 N 
ATOM     23  H   UNL d   1      30.279 -14.167   1.443  0.00  0.00     0.173 HD
ATOM     24  H   UNL d   1      30.459 -17.266  -1.112  0.00  0.00     0.173 HD
ATOM     25  H   UNL d   1      26.604 -12.377  -2.726  0.00  0.00     0.280 HD
ENDROOT
BRANCH  19  26
ATOM     26  C   UNL d   1      28.281 -12.355  -3.853  0.00  0.00     0.273 C 
BRANCH  26  27
ATOM     27  C   UNL d   1      28.762 -13.031  -5.095  0.00  0.00    -0.030 C 
ATOM     28  C   UNL d   1      28.540 -12.794  -6.482  0.00  0.00     0.012 C 
ATOM     29  C   UNL d   1      29.050 -13.701  -7.428  0.00  0.00     0.040 C 
ATOM     30  C   UNL d   1      29.520 -14.880  -6.895  0.00  0.00     0.105 C 
ATOM     31  C   UNL d   1      29.180 -15.181  -5.618  0.00  0.00     0.105 C 
ATOM     32  O   UNL d   1      30.444 -15.822  -7.272  0.00  0.00    -0.323 OA
ATOM     33  C   UNL d   1      29.356 -14.197  -4.735  0.00  0.00     0.048 C 
ATOM     34  O   UNL d   1      29.390 -16.466  -5.265  0.00  0.00    -0.323 OA
ATOM     35  C   UNL d   1      30.604 -16.540  -5.989  0.00  0.00     0.352 C 
ENDBRANCH  26  27
ENDBRANCH  19  26
BRANCH   1  36
ATOM     36  N   UNL d   1      22.725 -19.255   0.188  0.00  0.00    -0.327 N 
ATOM     37  C   UNL d   1      21.376 -19.069  -0.094  0.00  0.00     0.221 C 
ATOM     38  O   UNL d   1      20.951 -18.215  -0.873  0.00  0.00    -0.273 OA
ATOM     39  H   UNL d   1      23.031 -20.148   0.552  0.00  0.00     0.169 HD
BRANCH  37  40
ATOM     40  C   UNL d   1      20.437 -20.032   0.599  0.00  0.00     0.098 C 
ATOM     41  C   UNL d   1      19.106 -20.070  -0.146  0.00  0.00     0.014 C 
ENDBRANCH  37  40
ENDBRANCH   1  36
TORSDOF 4
ENDMDL
MODEL 5
REMARK VINA RESULT:    -9.622      2.149      3.568
REMARK INTER + INTRA:         -12.247
REMARK INTER:                 -10.816
REMARK INTRA:                  -1.431
REMARK CONF_INDEPENDENT:        1.193
REMARK UNBOUND:                -1.431
REMARK  4 active torsions:
REMARK  status: ('A' for Active; 'I' for Inactive)
REMARK    1  A    between atoms: C_2  and  C_3 
REMARK       I    between atoms: C_3  and  N_5 
REMARK    2  A    between atoms: N_5  and  C_6 
REMARK    3  A    between atoms: N_24  and  C_25 
REMARK    4  A    between atoms: C_25  and  C_26 
ROOT
ATOM      1  C   UNL d   1      23.891 -18.268  -0.338  0.00  0.00     0.035 C 
ATOM      2  C   UNL d   1      24.901 -18.229   0.607  0.00  0.00     0.032 C 
ATOM      3  C   UNL d   1      26.090 -17.570   0.295  0.00  0.00     0.032 C 
ATOM      4  C   UNL d   1      26.291 -16.939  -0.947  0.00  0.00     0.037 C 
ATOM      5  C   UNL d   1      25.199 -16.869  -1.831  0.00  0.00    -0.028 C 
ATOM      6  C   UNL d   1      24.024 -17.551  -1.526  0.00  0.00     0.039 C 
ATOM      7  C   UNL d   1      25.244 -16.123  -3.141  0.00  0.00     0.072 C 
ATOM      8  C   UNL d   1      26.405 -15.138  -3.187  0.00  0.00     0.148 A 
ATOM      9  C   UNL d   1      26.650 -14.750  -4.636  0.00  0.00     0.246 A 
ATOM     10  O   UNL d   1      27.028 -15.575  -5.470  0.00  0.00    -0.272 OA
ATOM     11  N   UNL d   1      26.589 -13.433  -4.974  0.00  0.00    -0.278 N 
ATOM     12  C   UNL d   1      26.353 -12.373  -4.143  0.00  0.00     0.329 A 
ATOM     13  O   UNL d   1      26.374 -11.238  -4.525  0.00  0.00    -0.247 OA
ATOM     14  N   UNL d   1      26.129 -12.697  -2.839  0.00  0.00    -0.278 N 
ATOM     15  C   UNL d   1      26.112 -13.935  -2.282  0.00  0.00     0.246 A 
ATOM     16  O   UNL d   1      25.905 -13.992  -1.071  0.00  0.00    -0.272 OA
ATOM     17  C   UNL d   1      27.638 -15.948  -2.712  0.00  0.00     0.138 C 
ATOM     18  C   UNL d   1      28.903 -15.132  -2.963  0.00  0.00     0.262 C 
ATOM     19  N   UNL d   1      30.100 -15.719  -2.259  0.00  0.00    -0.064 N 
ATOM     20  C   UNL d   1      29.922 -16.131  -0.824  0.00  0.00     0.255 C 
ATOM     21  C   UNL d   1      28.695 -16.992  -0.672  0.00  0.00     0.151 C 
ATOM     22  N   UNL d   1      27.525 -16.343  -1.281  0.00  0.00    -0.371 N 
ATOM     23  H   UNL d   1      26.785 -13.181  -5.936  0.00  0.00     0.173 HD
ATOM     24  H   UNL d   1      25.929 -11.925  -2.214  0.00  0.00     0.173 HD
ATOM     25  H   UNL d   1      30.344 -16.567  -2.781  0.00  0.00     0.280 HD
ENDROOT
BRANCH  19  26
ATOM     26  C   UNL d   1      31.227 -14.804  -2.337  0.00  0.00     0.273 C 
BRANCH  26  27
ATOM     27  C   UNL d   1      31.092 -13.541  -1.550  0.00  0.00    -0.030 C 
ATOM     28  C   UNL d   1      31.561 -13.137  -0.267  0.00  0.00     0.012 C 
ATOM     29  C   UNL d   1      31.157 -11.897   0.256  0.00  0.00     0.040 C 
ATOM     30  C   UNL d   1      30.134 -11.288  -0.437  0.00  0.00     0.105 C 
ATOM     31  C   UNL d   1      29.432 -12.037  -1.321  0.00  0.00     0.105 C 
ATOM     32  O   UNL d   1      29.710  -9.995  -0.615  0.00  0.00    -0.323 OA
ATOM     33  C   UNL d   1      30.167 -12.761  -2.166  0.00  0.00     0.048 C 
ATOM     34  O   UNL d   1      28.264 -11.493  -1.720  0.00  0.00    -0.323 OA
ATOM     35  C   UNL d   1      28.810 -10.187  -1.772  0.00  0.00     0.352 C 
ENDBRANCH  26  27
ENDBRANCH  19  26
BRANCH   1  36
ATOM     36  N   UNL d   1      22.754 -19.074  -0.144  0.00  0.00    -0.327 N 
ATOM     37  C   UNL d   1      21.511 -18.573  -0.515  0.00  0.00     0.221 C 
ATOM     38  O   UNL d   1      21.339 -17.451  -0.991  0.00  0.00    -0.273 OA
ATOM     39  H   UNL d   1      22.881 -20.076  -0.082  0.00  0.00     0.169 HD
BRANCH  37  40
ATOM     40  C   UNL d   1      20.354 -19.531  -0.334  0.00  0.00     0.098 C 
ATOM     41  C   UNL d   1      20.063 -19.701   1.154  0.00  0.00     0.014 C 
ENDBRANCH  37  40
ENDBRANCH   1  36
TORSDOF 4
ENDMDL
MODEL 6
REMARK VINA RESULT:    -9.578      2.252      2.862
REMARK INTER + INTRA:         -11.161
REMARK INTER:                 -10.771
REMARK INTRA:                  -0.390
REMARK CONF_INDEPENDENT:        1.193
REMARK UNBOUND:                -0.390
REMARK  4 active torsions:
REMARK  status: ('A' for Active; 'I' for Inactive)
REMARK    1  A    between atoms: C_2  and  C_3 
REMARK       I    between atoms: C_3  and  N_5 
REMARK    2  A    between atoms: N_5  and  C_6 
REMARK    3  A    between atoms: N_24  and  C_25 
REMARK    4  A    between atoms: C_25  and  C_26 
ROOT
ATOM      1  C   UNL d   1      23.819 -18.220  -0.240  0.00  0.00     0.035 C 
ATOM      2  C   UNL d   1      24.851 -18.206   0.683  0.00  0.00     0.032 C 
ATOM      3  C   UNL d   1      26.046 -17.572   0.347  0.00  0.00     0.032 C 
ATOM      4  C   UNL d   1      26.234 -16.940  -0.897  0.00  0.00     0.037 C 
ATOM      5  C   UNL d   1      25.124 -16.842  -1.755  0.00  0.00    -0.028 C 
ATOM      6  C   UNL d   1      23.942 -17.500  -1.427  0.00  0.00     0.039 C 
ATOM      7  C   UNL d   1      25.155 -16.091  -3.063  0.00  0.00     0.072 C 
ATOM      8  C   UNL d   1      26.336 -15.131  -3.131  0.00  0.00     0.148 A 
ATOM      9  C   UNL d   1      26.557 -14.741  -4.583  0.00  0.00     0.246 A 
ATOM     10  O   UNL d   1      26.898 -15.570  -5.429  0.00  0.00    -0.272 OA
ATOM     11  N   UNL d   1      26.517 -13.422  -4.914  0.00  0.00    -0.278 N 
ATOM     12  C   UNL d   1      26.323 -12.361  -4.073  0.00  0.00     0.329 A 
ATOM     13  O   UNL d   1      26.360 -11.225  -4.451  0.00  0.00    -0.247 OA
ATOM     14  N   UNL d   1      26.120 -12.686  -2.766  0.00  0.00    -0.278 N 
ATOM     15  C   UNL d   1      26.090 -13.926  -2.214  0.00  0.00     0.246 A 
ATOM     16  O   UNL d   1      25.908 -13.985  -1.000  0.00  0.00    -0.272 OA
ATOM     17  C   UNL d   1      27.561 -15.969  -2.687  0.00  0.00     0.138 C 
ATOM     18  C   UNL d   1      28.838 -15.180  -2.963  0.00  0.00     0.262 C 
ATOM     19  N   UNL d   1      30.037 -15.796  -2.288  0.00  0.00    -0.064 N 
ATOM     20  C   UNL d   1      29.882 -16.211  -0.851  0.00  0.00     0.255 C 
ATOM     21  C   UNL d   1      28.641 -17.046  -0.676  0.00  0.00     0.151 C 
ATOM     22  N   UNL d   1      27.472 -16.369  -1.255  0.00  0.00    -0.371 N 
ATOM     23  H   UNL d   1      26.697 -13.169  -5.880  0.00  0.00     0.173 HD
ATOM     24  H   UNL d   1      25.951 -11.913  -2.134  0.00  0.00     0.173 HD
ATOM     25  H   UNL d   1      30.252 -16.646  -2.819  0.00  0.00     0.280 HD
ENDROOT
BRANCH  19  26
ATOM     26  C   UNL d   1      31.182 -14.905  -2.387  0.00  0.00     0.273 C 
BRANCH  26  27
ATOM     27  C   UNL d   1      32.391 -15.314  -1.610  0.00  0.00    -0.030 C 
ATOM     28  C   UNL d   1      32.992 -14.825  -0.415  0.00  0.00     0.012 C 
ATOM     29  C   UNL d   1      34.221 -15.359   0.008  0.00  0.00     0.040 C 
ATOM     30  C   UNL d   1      34.852 -16.153  -0.924  0.00  0.00     0.105 C 
ATOM     31  C   UNL d   1      34.416 -16.097  -2.206  0.00  0.00     0.105 C 
ATOM     32  O   UNL d   1      35.754 -17.185  -0.876  0.00  0.00    -0.323 OA
ATOM     33  C   UNL d   1      33.095 -16.196  -2.363  0.00  0.00     0.048 C 
ATOM     34  O   UNL d   1      35.258 -16.633  -3.113  0.00  0.00    -0.323 OA
ATOM     35  C   UNL d   1      35.613 -17.701  -2.255  0.00  0.00     0.352 C 
ENDBRANCH  26  27
ENDBRANCH  19  26
BRANCH   1  36
ATOM     36  N   UNL d   1      22.670 -19.001  -0.023  0.00  0.00    -0.327 N 
ATOM     37  C   UNL d   1      21.460 -18.569  -0.554  0.00  0.00     0.221 C 
ATOM     38  O   UNL d   1      21.327 -17.525  -1.192  0.00  0.00    -0.273 OA
ATOM     39  H   UNL d   1      22.790 -19.984   0.187  0.00  0.00     0.169 HD
BRANCH  37  40
ATOM     40  C   UNL d   1      20.291 -19.504  -0.331  0.00  0.00     0.098 C 
ATOM     41  C   UNL d   1      20.127 -19.765   1.163  0.00  0.00     0.014 C 
ENDBRANCH  37  40
ENDBRANCH   1  36
TORSDOF 4
ENDMDL
MODEL 7
REMARK VINA RESULT:    -9.288      2.755      4.510
REMARK INTER + INTRA:         -11.014
REMARK INTER:                 -10.482
REMARK INTRA:                  -0.532
REMARK CONF_INDEPENDENT:        1.193
REMARK UNBOUND:                -0.532
REMARK  4 active torsions:
REMARK  status: ('A' for Active; 'I' for Inactive)
REMARK    1  A    between atoms: C_2  and  C_3 
REMARK       I    between atoms: C_3  and  N_5 
REMARK    2  A    between atoms: N_5  and  C_6 
REMARK    3  A    between atoms: N_24  and  C_25 
REMARK    4  A    between atoms: C_25  and  C_26 
ROOT
ATOM      1  C   UNL d   1      23.749 -18.390  -0.529  0.00  0.00     0.035 C 
ATOM      2  C   UNL d   1      23.636 -18.061  -1.869  0.00  0.00     0.032 C 
ATOM      3  C   UNL d   1      24.472 -17.078  -2.395  0.00  0.00     0.032 C 
ATOM      4  C   UNL d   1      25.432 -16.414  -1.608  0.00  0.00     0.037 C 
ATOM      5  C   UNL d   1      25.625 -16.867  -0.290  0.00  0.00    -0.028 C 
ATOM      6  C   UNL d   1      24.769 -17.830   0.237  0.00  0.00     0.039 C 
ATOM      7  C   UNL d   1      26.698 -16.324   0.621  0.00  0.00     0.072 C 
ATOM      8  C   UNL d   1      27.772 -15.577  -0.159  0.00  0.00     0.148 A 
ATOM      9  C   UNL d   1      28.560 -14.713   0.811  0.00  0.00     0.246 A 
ATOM     10  O   UNL d   1      28.034 -13.775   1.414  0.00  0.00    -0.272 OA
ATOM     11  N   UNL d   1      29.906 -14.896   0.899  0.00  0.00    -0.278 N 
ATOM     12  C   UNL d   1      30.672 -15.771   0.179  0.00  0.00     0.329 A 
ATOM     13  O   UNL d   1      31.865 -15.822   0.287  0.00  0.00    -0.247 OA
ATOM     14  N   UNL d   1      29.987 -16.558  -0.696  0.00  0.00    -0.278 N 
ATOM     15  C   UNL d   1      28.650 -16.571  -0.930  0.00  0.00     0.246 A 
ATOM     16  O   UNL d   1      28.248 -17.358  -1.785  0.00  0.00    -0.272 OA
ATOM     17  C   UNL d   1      26.995 -14.623  -1.101  0.00  0.00     0.138 C 
ATOM     18  C   UNL d   1      27.974 -13.644  -1.744  0.00  0.00     0.262 C 
ATOM     19  N   UNL d   1      27.345 -12.891  -2.889  0.00  0.00    -0.064 N 
ATOM     20  C   UNL d   1      26.545 -13.687  -3.882  0.00  0.00     0.255 C 
ATOM     21  C   UNL d   1      25.554 -14.571  -3.171  0.00  0.00     0.151 C 
ATOM     22  N   UNL d   1      26.220 -15.367  -2.130  0.00  0.00    -0.371 N 
ATOM     23  H   UNL d   1      30.427 -14.293   1.526  0.00  0.00     0.173 HD
ATOM     24  H   UNL d   1      30.538 -17.228  -1.220  0.00  0.00     0.173 HD
ATOM     25  H   UNL d   1      26.699 -12.219  -2.460  0.00  0.00     0.280 HD
ENDROOT
BRANCH  19  26
ATOM     26  C   UNL d   1      28.358 -12.139  -3.612  0.00  0.00     0.273 C 
BRANCH  26  27
ATOM     27  C   UNL d   1      27.956 -11.646  -4.964  0.00  0.00    -0.030 C 
ATOM     28  C   UNL d   1      26.869 -10.851  -5.429  0.00  0.00     0.012 C 
ATOM     29  C   UNL d   1      26.698 -10.655  -6.810  0.00  0.00     0.040 C 
ATOM     30  C   UNL d   1      27.477 -11.466  -7.605  0.00  0.00     0.105 C 
ATOM     31  C   UNL d   1      28.071 -12.539  -7.029  0.00  0.00     0.105 C 
ATOM     32  O   UNL d   1      27.991 -11.385  -8.874  0.00  0.00    -0.323 OA
ATOM     33  C   UNL d   1      28.715 -12.289  -5.887  0.00  0.00     0.048 C 
ATOM     34  O   UNL d   1      28.543 -13.457  -7.896  0.00  0.00    -0.323 OA
ATOM     35  C   UNL d   1      28.994 -12.469  -8.805  0.00  0.00     0.352 C 
ENDBRANCH  26  27
ENDBRANCH  19  26
BRANCH   1  36
ATOM     36  N   UNL d   1      22.809 -19.235   0.086  0.00  0.00    -0.327 N 
ATOM     37  C   UNL d   1      21.457 -19.026  -0.167  0.00  0.00     0.221 C 
ATOM     38  O   UNL d   1      21.028 -18.126  -0.889  0.00  0.00    -0.273 OA
ATOM     39  H   UNL d   1      23.114 -20.150   0.394  0.00  0.00     0.169 HD
BRANCH  37  40
ATOM     40  C   UNL d   1      20.522 -20.023   0.482  0.00  0.00     0.098 C 
ATOM     41  C   UNL d   1      19.177 -20.001  -0.238  0.00  0.00     0.014 C 
ENDBRANCH  37  40
ENDBRANCH   1  36
TORSDOF 4
ENDMDL
MODEL 8
REMARK VINA RESULT:    -8.972      2.326      8.344
REMARK INTER + INTRA:         -11.447
REMARK INTER:                 -10.165
REMARK INTRA:                  -1.282
REMARK CONF_INDEPENDENT:        1.193
REMARK UNBOUND:                -1.282
REMARK  4 active torsions:
REMARK  status: ('A' for Active; 'I' for Inactive)
REMARK    1  A    between atoms: C_2  and  C_3 
REMARK       I    between atoms: C_3  and  N_5 
REMARK    2  A    between atoms: N_5  and  C_6 
REMARK    3  A    between atoms: N_24  and  C_25 
REMARK    4  A    between atoms: C_25  and  C_26 
ROOT
ATOM      1  C   UNL d   1      31.186 -14.911  -7.419  0.00  0.00     0.035 C 
ATOM      2  C   UNL d   1      31.575 -15.876  -6.506  0.00  0.00     0.032 C 
ATOM      3  C   UNL d   1      30.956 -15.912  -5.258  0.00  0.00     0.032 C 
ATOM      4  C   UNL d   1      29.942 -15.002  -4.900  0.00  0.00     0.037 C 
ATOM      5  C   UNL d   1      29.466 -14.128  -5.894  0.00  0.00    -0.028 C 
ATOM      6  C   UNL d   1      30.107 -14.079  -7.129  0.00  0.00     0.039 C 
ATOM      7  C   UNL d   1      28.308 -13.186  -5.679  0.00  0.00     0.072 C 
ATOM      8  C   UNL d   1      27.477 -13.585  -4.467  0.00  0.00     0.148 A 
ATOM      9  C   UNL d   1      26.619 -12.399  -4.058  0.00  0.00     0.246 A 
ATOM     10  O   UNL d   1      27.121 -11.351  -3.646  0.00  0.00    -0.272 OA
ATOM     11  N   UNL d   1      25.268 -12.559  -4.012  0.00  0.00    -0.278 N 
ATOM     12  C   UNL d   1      24.560 -13.700  -4.270  0.00  0.00     0.329 A 
ATOM     13  O   UNL d   1      23.369 -13.760  -4.149  0.00  0.00    -0.247 OA
ATOM     14  N   UNL d   1      25.307 -14.777  -4.640  0.00  0.00    -0.278 N 
ATOM     15  C   UNL d   1      26.656 -14.842  -4.780  0.00  0.00     0.246 A 
ATOM     16  O   UNL d   1      27.124 -15.931  -5.109  0.00  0.00    -0.272 OA
ATOM     17  C   UNL d   1      28.507 -13.821  -3.333  0.00  0.00     0.138 C 
ATOM     18  C   UNL d   1      27.769 -13.975  -2.006  0.00  0.00     0.262 C 
ATOM     19  N   UNL d   1      28.671 -14.502  -0.919  0.00  0.00    -0.064 N 
ATOM     20  C   UNL d   1      29.552 -15.672  -1.261  0.00  0.00     0.255 C 
ATOM     21  C   UNL d   1      30.300 -15.411  -2.542  0.00  0.00     0.151 C 
ATOM     22  N   UNL d   1      29.376 -14.998  -3.608  0.00  0.00    -0.371 N 
ATOM     23  H   UNL d   1      24.707 -11.772  -3.708  0.00  0.00     0.173 HD
ATOM     24  H   UNL d   1      24.795 -15.623  -4.858  0.00  0.00     0.173 HD
ATOM     25  H   UNL d   1      29.294 -13.726  -0.672  0.00  0.00     0.280 HD
ENDROOT
BRANCH  19  26
ATOM     26  C   UNL d   1      27.891 -14.844   0.259  0.00  0.00     0.273 C 
BRANCH  26  27
ATOM     27  C   UNL d   1      27.028 -16.058   0.135  0.00  0.00    -0.030 C 
ATOM     28  C   UNL d   1      27.309 -17.454   0.108  0.00  0.00     0.012 C 
ATOM     29  C   UNL d   1      26.267 -18.362  -0.145  0.00  0.00     0.040 C 
ATOM     30  C   UNL d   1      25.097 -17.785  -0.587  0.00  0.00     0.105 C 
ATOM     31  C   UNL d   1      25.146 -16.501  -1.019  0.00  0.00     0.105 C 
ATOM     32  O   UNL d   1      23.768 -18.120  -0.549  0.00  0.00    -0.323 OA
ATOM     33  C   UNL d   1      25.780 -15.651  -0.210  0.00  0.00     0.048 C 
ATOM     34  O   UNL d   1      24.071 -16.102  -1.727  0.00  0.00    -0.323 OA
ATOM     35  C   UNL d   1      23.172 -16.812  -0.895  0.00  0.00     0.352 C 
ENDBRANCH  26  27
ENDBRANCH  19  26
BRANCH   1  36
ATOM     36  N   UNL d   1      31.905 -14.717  -8.612  0.00  0.00    -0.327 N 
ATOM     37  C   UNL d   1      33.240 -14.333  -8.531  0.00  0.00     0.221 C 
ATOM     38  O   UNL d   1      33.831 -14.132  -7.470  0.00  0.00    -0.273 OA
ATOM     39  H   UNL d   1      31.578 -15.179  -9.450  0.00  0.00     0.169 HD
BRANCH  37  40
ATOM     40  C   UNL d   1      33.954 -14.213  -9.860  0.00  0.00     0.098 C 
ATOM     41  C   UNL d   1      34.661 -15.527 -10.176  0.00  0.00     0.014 C 
ENDBRANCH  37  40
ENDBRANCH   1  36
TORSDOF 4
ENDMDL
