MODEL 1
REMARK VINA RESULT:   -14.807      0.000      0.000
REMARK INTER + INTRA:         -18.002
REMARK INTER:                 -16.597
REMARK INTRA:                  -1.406
REMARK CONF_INDEPENDENT:        1.790
REMARK UNBOUND:                -1.406
REMARK  6 active torsions:
REMARK  status: ('A' for Active; 'I' for Inactive)
REMARK       I    between atoms: C_2  and  N_3 
REMARK    1  A    between atoms: C_2  and  C_7 
REMARK    2  A    between atoms: N_3  and  C_4 
REMARK    3  A    between atoms: C_4  and  C_5 
REMARK    4  A    between atoms: C_5  and  O_6 
REMARK    5  A    between atoms: C_9  and  C_10 
REMARK    6  A    between atoms: C_10  and  C_11 
ROOT
ATOM      1  C   UNL d   1      21.832 -18.738  -0.404  0.00  0.00     0.264 A 
ATOM      2  N   UNL d   1      21.089 -19.026   0.639  0.00  0.00    -0.200 NA
ATOM      3  C   UNL d   1      19.883 -19.378   0.083  0.00  0.00     0.161 A 
ATOM      4  N   UNL d   1      19.863 -19.322  -1.259  0.00  0.00    -0.110 NA
ATOM      5  O   UNL d   1      21.161 -18.882  -1.586  0.00  0.00    -0.186 OA
ENDROOT
BRANCH   3   6
ATOM      6  C   UNL d   1      18.689 -19.766   0.908  0.00  0.00     0.123 C 
BRANCH   6   7
ATOM      7  C   UNL d   1      19.062 -20.180   2.305  0.00  0.00    -0.023 A 
ATOM      8  C   UNL d   1      20.282 -20.663   2.739  0.00  0.00     0.096 A 
ATOM      9  N   UNL d   1      20.237 -20.772   4.105  0.00  0.00    -0.365 N 
ATOM     10  C   UNL d   1      18.982 -20.451   4.570  0.00  0.00     0.042 A 
ATOM     11  H   UNL d   1      21.014 -21.041   4.693  0.00  0.00     0.165 HD
ATOM     12  C   UNL d   1      18.470 -20.435   5.873  0.00  0.00     0.030 A 
ATOM     13  C   UNL d   1      18.217 -20.094   3.461  0.00  0.00    -0.001 A 
ATOM     14  C   UNL d   1      17.130 -20.066   6.039  0.00  0.00     0.002 A 
ATOM     15  C   UNL d   1      16.343 -19.702   4.950  0.00  0.00     0.001 A 
ATOM     16  C   UNL d   1      16.878 -19.701   3.660  0.00  0.00     0.014 A 
ENDBRANCH   6   7
ENDBRANCH   3   6
BRANCH   1  17
ATOM     17  C   UNL d   1      23.242 -18.396  -0.375  0.00  0.00     0.297 C 
ATOM     18  O   UNL d   1      24.032 -18.872   0.451  0.00  0.00    -0.264 OA
ATOM     19  N   UNL d   1      23.692 -17.463  -1.303  0.00  0.00    -0.352 N 
ATOM     20  H   UNL d   1      23.023 -17.002  -1.910  0.00  0.00     0.162 HD
BRANCH  19  21
ATOM     21  C   UNL d   1      25.088 -17.049  -1.302  0.00  0.00     0.149 C 
BRANCH  21  22
ATOM     22  C   UNL d   1      25.363 -15.794  -2.129  0.00  0.00     0.183 C 
BRANCH  22  23
ATOM     23  O   UNL d   1      24.159 -15.241  -2.651  0.00  0.00    -0.399 OA
ATOM     24  H   UNL d   1      23.609 -14.944  -1.906  0.00  0.00     0.209 HD
ENDBRANCH  22  23
ENDBRANCH  21  22
ENDBRANCH  19  21
ENDBRANCH   1  17
TORSDOF 6
ENDMDL
