MODEL 1
REMARK VINA RESULT:    -8.611      0.000      0.000
REMARK INTER + INTRA:         -13.466
REMARK INTER:                 -11.295
REMARK INTRA:                  -2.171
REMARK CONF_INDEPENDENT:        2.685
REMARK UNBOUND:                -2.171
REMARK  9 active torsions:
REMARK  status: ('A' for Active; 'I' for Inactive)
REMARK    1  A    between atoms: C_2  and  O_3 
REMARK    2  A    between atoms: O_3  and  C_4 
REMARK    3  A    between atoms: C_8  and  C_9 
REMARK       I    between atoms: C_9  and  N_11 
REMARK    4  A    between atoms: N_11  and  C_12 
REMARK    5  A    between atoms: C_12  and  N_14 
REMARK    6  A    between atoms: N_14  and  N_15 
REMARK       I    between atoms: N_15  and  C_16 
REMARK    7  A    between atoms: C_16  and  C_18 
REMARK    8  A    between atoms: C_18  and  O_20 
REMARK    9  A    between atoms: O_20  and  C_21 
ROOT
ATOM      1  N   UNL d   1      27.328 -14.168  -5.779  0.00  0.00    -0.273 N 
ATOM      2  H   UNL d   1      26.388 -13.881  -6.041  0.00  0.00     0.189 HD
ENDROOT
BRANCH   1   3
ATOM      3  C   UNL d   1      28.511 -13.949  -6.510  0.00  0.00     0.193 C 
ATOM      4  S   UNL d   1      28.992 -12.369  -6.869  0.00  0.00    -0.039 SA
BRANCH   3   5
ATOM      5  N   UNL d   1      29.204 -15.119  -6.881  0.00  0.00    -0.298 N 
ATOM      6  C   UNL d   1      29.805 -16.056  -5.998  0.00  0.00     0.258 C 
ATOM      7  O   UNL d   1      29.795 -15.950  -4.782  0.00  0.00    -0.267 OA
ATOM      8  H   UNL d   1      29.254 -15.307  -7.868  0.00  0.00     0.171 HD
BRANCH   6   9
ATOM      9  C   UNL d   1      30.501 -17.281  -6.526  0.00  0.00     0.035 A 
ATOM     10  C   UNL d   1      31.343 -17.123  -7.651  0.00  0.00     0.017 A 
ATOM     11  C   UNL d   1      32.084 -18.191  -8.165  0.00  0.00     0.004 A 
ATOM     12  C   UNL d   1      31.952 -19.450  -7.590  0.00  0.00     0.037 A 
ATOM     13  C   UNL d   1      31.124 -19.626  -6.478  0.00  0.00     0.069 A 
ATOM     14  C   UNL d   1      30.405 -18.545  -5.946  0.00  0.00     0.053 A 
BRANCH  13  15
ATOM     15  O   UNL d   1      31.167 -20.867  -5.897  0.00  0.00    -0.351 OA
BRANCH  15  16
ATOM     16  C   UNL d   1      30.499 -20.980  -4.641  0.00  0.00     0.171 C 
ATOM     17  C   UNL d   1      30.880 -22.306  -4.013  0.00  0.00     0.034 C 
ENDBRANCH  15  16
ENDBRANCH  13  15
ENDBRANCH   6   9
ENDBRANCH   3   5
ENDBRANCH   1   3
BRANCH   1  18
ATOM     18  N   UNL d   1      27.414 -14.890  -4.537  0.00  0.00    -0.266 N 
ATOM     19  C   UNL d   1      26.295 -15.139  -3.738  0.00  0.00     0.265 C 
ATOM     20  O   UNL d   1      25.166 -14.826  -4.111  0.00  0.00    -0.269 OA
ATOM     21  H   UNL d   1      28.368 -15.089  -4.235  0.00  0.00     0.190 HD
BRANCH  19  22
ATOM     22  C   UNL d   1      26.605 -15.855  -2.362  0.00  0.00     0.218 C 
ATOM     23  C   UNL d   1      27.918 -15.290  -1.874  0.00  0.00     0.050 C 
BRANCH  22  24
ATOM     24  O   UNL d   1      25.550 -15.665  -1.380  0.00  0.00    -0.335 OA
BRANCH  24  25
ATOM     25  C   UNL d   1      24.584 -16.625  -1.135  0.00  0.00     0.091 C 
ATOM     26  C   UNL d   1      23.251 -16.169  -1.268  0.00  0.00     0.040 C 
ATOM     27  C   UNL d   1      22.155 -16.969  -0.877  0.00  0.00     0.026 C 
ATOM     28  C   UNL d   1      22.365 -18.282  -0.485  0.00  0.00     0.035 C 
ATOM     29 CL   UNL d   1      21.061 -19.325  -0.082  0.00  0.00    -0.084 Cl
ATOM     30  C   UNL d   1      23.652 -18.757  -0.360  0.00  0.00     0.050 C 
ATOM     31  C   UNL d   1      24.746 -17.907  -0.563  0.00  0.00     0.069 C 
ATOM     32 CL   UNL d   1      26.141 -18.569   0.230  0.00  0.00    -0.081 Cl
ENDBRANCH  24  25
ENDBRANCH  22  24
ENDBRANCH  19  22
ENDBRANCH   1  18
TORSDOF 9
ENDMDL
MODEL 2
REMARK VINA RESULT:    -8.565      7.776     10.881
REMARK INTER + INTRA:         -13.332
REMARK INTER:                 -11.250
REMARK INTRA:                  -2.082
REMARK CONF_INDEPENDENT:        2.685
REMARK UNBOUND:                -2.082
REMARK  9 active torsions:
REMARK  status: ('A' for Active; 'I' for Inactive)
REMARK    1  A    between atoms: C_2  and  O_3 
REMARK    2  A    between atoms: O_3  and  C_4 
REMARK    3  A    between atoms: C_8  and  C_9 
REMARK       I    between atoms: C_9  and  N_11 
REMARK    4  A    between atoms: N_11  and  C_12 
REMARK    5  A    between atoms: C_12  and  N_14 
REMARK    6  A    between atoms: N_14  and  N_15 
REMARK       I    between atoms: N_15  and  C_16 
REMARK    7  A    between atoms: C_16  and  C_18 
REMARK    8  A    between atoms: C_18  and  O_20 
REMARK    9  A    between atoms: O_20  and  C_21 
ROOT
ATOM      1  N   UNL d   1      28.788 -14.290   3.198  0.00  0.00    -0.273 N 
ATOM      2  H   UNL d   1      27.927 -13.873   3.547  0.00  0.00     0.189 HD
ENDROOT
BRANCH   1   3
ATOM      3  C   UNL d   1      30.031 -14.331   3.858  0.00  0.00     0.193 C 
ATOM      4  S   UNL d   1      31.443 -14.590   2.967  0.00  0.00    -0.039 SA
BRANCH   3   5
ATOM      5  N   UNL d   1      29.968 -14.138   5.253  0.00  0.00    -0.298 N 
ATOM      6  C   UNL d   1      28.894 -13.552   5.974  0.00  0.00     0.258 C 
ATOM      7  O   UNL d   1      27.875 -13.128   5.454  0.00  0.00    -0.267 OA
ATOM      8  H   UNL d   1      30.759 -14.472   5.779  0.00  0.00     0.171 HD
BRANCH   6   9
ATOM      9  C   UNL d   1      28.945 -13.425   7.473  0.00  0.00     0.035 A 
ATOM     10  C   UNL d   1      28.514 -12.204   8.042  0.00  0.00     0.017 A 
ATOM     11  C   UNL d   1      28.458 -12.023   9.427  0.00  0.00     0.004 A 
ATOM     12  C   UNL d   1      28.887 -13.046  10.265  0.00  0.00     0.037 A 
ATOM     13  C   UNL d   1      29.317 -14.259   9.720  0.00  0.00     0.069 A 
ATOM     14  C   UNL d   1      29.342 -14.448   8.331  0.00  0.00     0.053 A 
BRANCH  13  15
ATOM     15  O   UNL d   1      29.586 -15.253  10.626  0.00  0.00    -0.351 OA
BRANCH  15  16
ATOM     16  C   UNL d   1      30.816 -15.948  10.428  0.00  0.00     0.171 C 
ATOM     17  C   UNL d   1      31.909 -14.928  10.176  0.00  0.00     0.034 C 
ENDBRANCH  15  16
ENDBRANCH  13  15
ENDBRANCH   6   9
ENDBRANCH   3   5
ENDBRANCH   1   3
BRANCH   1  18
ATOM     18  N   UNL d   1      28.689 -14.868   1.884  0.00  0.00    -0.266 N 
ATOM     19  C   UNL d   1      27.672 -14.524   0.990  0.00  0.00     0.265 C 
ATOM     20  O   UNL d   1      26.863 -13.639   1.260  0.00  0.00    -0.269 OA
ATOM     21  H   UNL d   1      29.344 -15.632   1.714  0.00  0.00     0.190 HD
BRANCH  19  22
ATOM     22  C   UNL d   1      27.671 -15.341  -0.364  0.00  0.00     0.218 C 
ATOM     23  C   UNL d   1      29.099 -15.359  -0.853  0.00  0.00     0.050 C 
BRANCH  22  24
ATOM     24  O   UNL d   1      27.149 -16.688  -0.207  0.00  0.00    -0.335 OA
BRANCH  24  25
ATOM     25  C   UNL d   1      25.804 -16.984  -0.354  0.00  0.00     0.091 C 
ATOM     26  C   UNL d   1      25.389 -18.177   0.283  0.00  0.00     0.040 C 
ATOM     27  C   UNL d   1      24.099 -18.713   0.077  0.00  0.00     0.026 C 
ATOM     28  C   UNL d   1      23.161 -17.993  -0.648  0.00  0.00     0.035 C 
ATOM     29 CL   UNL d   1      21.552 -18.556  -0.856  0.00  0.00    -0.084 Cl
ATOM     30  C   UNL d   1      23.535 -16.820  -1.267  0.00  0.00     0.050 C 
ATOM     31  C   UNL d   1      24.864 -16.385  -1.223  0.00  0.00     0.069 C 
ATOM     32 CL   UNL d   1      25.152 -15.286  -2.535  0.00  0.00    -0.081 Cl
ENDBRANCH  24  25
ENDBRANCH  22  24
ENDBRANCH  19  22
ENDBRANCH   1  18
TORSDOF 9
ENDMDL
MODEL 3
REMARK VINA RESULT:    -8.395      1.577      2.334
REMARK INTER + INTRA:         -13.340
REMARK INTER:                 -11.080
REMARK INTRA:                  -2.259
REMARK CONF_INDEPENDENT:        2.685
REMARK UNBOUND:                -2.259
REMARK  9 active torsions:
REMARK  status: ('A' for Active; 'I' for Inactive)
REMARK    1  A    between atoms: C_2  and  O_3 
REMARK    2  A    between atoms: O_3  and  C_4 
REMARK    3  A    between atoms: C_8  and  C_9 
REMARK       I    between atoms: C_9  and  N_11 
REMARK    4  A    between atoms: N_11  and  C_12 
REMARK    5  A    between atoms: C_12  and  N_14 
REMARK    6  A    between atoms: N_14  and  N_15 
REMARK       I    between atoms: N_15  and  C_16 
REMARK    7  A    between atoms: C_16  and  C_18 
REMARK    8  A    between atoms: C_18  and  O_20 
REMARK    9  A    between atoms: O_20  and  C_21 
ROOT
ATOM      1  N   UNL d   1      25.427 -12.428  -4.249  0.00  0.00    -0.273 N 
ATOM      2  H   UNL d   1      24.578 -11.959  -3.943  0.00  0.00     0.189 HD
ENDROOT
BRANCH   1   3
ATOM      3  C   UNL d   1      26.135 -12.192  -5.443  0.00  0.00     0.193 C 
ATOM      4  S   UNL d   1      25.854 -10.774  -6.316  0.00  0.00    -0.039 SA
BRANCH   3   5
ATOM      5  N   UNL d   1      27.049 -13.205  -5.800  0.00  0.00    -0.298 N 
ATOM      6  C   UNL d   1      28.440 -13.223  -5.514  0.00  0.00     0.258 C 
ATOM      7  O   UNL d   1      29.023 -12.334  -4.913  0.00  0.00    -0.267 OA
ATOM      8  H   UNL d   1      26.661 -13.996  -6.286  0.00  0.00     0.171 HD
BRANCH   6   9
ATOM      9  C   UNL d   1      29.303 -14.381  -5.935  0.00  0.00     0.035 A 
ATOM     10  C   UNL d   1      30.318 -14.129  -6.887  0.00  0.00     0.017 A 
ATOM     11  C   UNL d   1      31.213 -15.127  -7.283  0.00  0.00     0.004 A 
ATOM     12  C   UNL d   1      31.070 -16.412  -6.770  0.00  0.00     0.037 A 
ATOM     13  C   UNL d   1      30.071 -16.680  -5.829  0.00  0.00     0.069 A 
ATOM     14  C   UNL d   1      29.195 -15.667  -5.411  0.00  0.00     0.053 A 
BRANCH  13  15
ATOM     15  O   UNL d   1      30.098 -17.935  -5.278  0.00  0.00    -0.351 OA
BRANCH  15  16
ATOM     16  C   UNL d   1      30.404 -18.996  -6.181  0.00  0.00     0.171 C 
ATOM     17  C   UNL d   1      31.092 -20.103  -5.406  0.00  0.00     0.034 C 
ENDBRANCH  15  16
ENDBRANCH  13  15
ENDBRANCH   6   9
ENDBRANCH   3   5
ENDBRANCH   1   3
BRANCH   1  18
ATOM     18  N   UNL d   1      25.911 -13.445  -3.353  0.00  0.00    -0.266 N 
ATOM     19  C   UNL d   1      25.892 -14.802  -3.683  0.00  0.00     0.265 C 
ATOM     20  O   UNL d   1      25.539 -15.180  -4.798  0.00  0.00    -0.269 OA
ATOM     21  H   UNL d   1      26.148 -13.102  -2.421  0.00  0.00     0.190 HD
BRANCH  19  22
ATOM     22  C   UNL d   1      26.367 -15.775  -2.530  0.00  0.00     0.218 C 
ATOM     23  C   UNL d   1      27.796 -15.399  -2.218  0.00  0.00     0.050 C 
BRANCH  22  24
ATOM     24  O   UNL d   1      25.529 -15.695  -1.345  0.00  0.00    -0.335 OA
BRANCH  24  25
ATOM     25  C   UNL d   1      24.572 -16.650  -1.048  0.00  0.00     0.091 C 
ATOM     26  C   UNL d   1      23.235 -16.195  -1.136  0.00  0.00     0.040 C 
ATOM     27  C   UNL d   1      22.155 -16.987  -0.690  0.00  0.00     0.026 C 
ATOM     28  C   UNL d   1      22.379 -18.295  -0.287  0.00  0.00     0.035 C 
ATOM     29 CL   UNL d   1      21.092 -19.330   0.183  0.00  0.00    -0.084 Cl
ATOM     30  C   UNL d   1      23.671 -18.769  -0.205  0.00  0.00     0.050 C 
ATOM     31  C   UNL d   1      24.756 -17.924  -0.464  0.00  0.00     0.069 C 
ATOM     32 CL   UNL d   1      26.180 -18.575   0.284  0.00  0.00    -0.081 Cl
ENDBRANCH  24  25
ENDBRANCH  22  24
ENDBRANCH  19  22
ENDBRANCH   1  18
TORSDOF 9
ENDMDL
MODEL 4
REMARK VINA RESULT:    -8.216      5.128      8.539
REMARK INTER + INTRA:         -13.059
REMARK INTER:                 -10.901
REMARK INTRA:                  -2.158
REMARK CONF_INDEPENDENT:        2.685
REMARK UNBOUND:                -2.158
REMARK  9 active torsions:
REMARK  status: ('A' for Active; 'I' for Inactive)
REMARK    1  A    between atoms: C_2  and  O_3 
REMARK    2  A    between atoms: O_3  and  C_4 
REMARK    3  A    between atoms: C_8  and  C_9 
REMARK       I    between atoms: C_9  and  N_11 
REMARK    4  A    between atoms: N_11  and  C_12 
REMARK    5  A    between atoms: C_12  and  N_14 
REMARK    6  A    between atoms: N_14  and  N_15 
REMARK       I    between atoms: N_15  and  C_16 
REMARK    7  A    between atoms: C_16  and  C_18 
REMARK    8  A    between atoms: C_18  and  O_20 
REMARK    9  A    between atoms: O_20  and  C_21 
ROOT
ATOM      1  N   UNL d   1      25.391 -11.714  -4.096  0.00  0.00    -0.273 N 
ATOM      2  H   UNL d   1      24.486 -11.999  -4.464  0.00  0.00     0.189 HD
ENDROOT
BRANCH   1   3
ATOM      3  C   UNL d   1      26.020 -10.468  -4.279  0.00  0.00     0.193 C 
ATOM      4  S   UNL d   1      26.833 -10.146  -5.725  0.00  0.00    -0.039 SA
BRANCH   3   5
ATOM      5  N   UNL d   1      25.900  -9.578  -3.193  0.00  0.00    -0.298 N 
ATOM      6  C   UNL d   1      26.606  -9.650  -1.963  0.00  0.00     0.258 C 
ATOM      7  O   UNL d   1      27.419 -10.520  -1.694  0.00  0.00    -0.267 OA
ATOM      8  H   UNL d   1      25.263  -8.810  -3.322  0.00  0.00     0.171 HD
BRANCH   6   9
ATOM      9  C   UNL d   1      26.399  -8.617  -0.888  0.00  0.00     0.035 A 
ATOM     10  C   UNL d   1      25.999  -7.323  -1.293  0.00  0.00     0.017 A 
ATOM     11  C   UNL d   1      25.714  -6.321  -0.360  0.00  0.00     0.004 A 
ATOM     12  C   UNL d   1      25.877  -6.587   0.995  0.00  0.00     0.037 A 
ATOM     13  C   UNL d   1      26.271  -7.861   1.414  0.00  0.00     0.069 A 
ATOM     14  C   UNL d   1      26.527  -8.872   0.476  0.00  0.00     0.053 A 
BRANCH  13  15
ATOM     15  O   UNL d   1      26.268  -8.067   2.769  0.00  0.00    -0.351 OA
BRANCH  15  16
ATOM     16  C   UNL d   1      27.414  -8.739   3.291  0.00  0.00     0.171 C 
ATOM     17  C   UNL d   1      27.032 -10.173   3.599  0.00  0.00     0.034 C 
ENDBRANCH  15  16
ENDBRANCH  13  15
ENDBRANCH   6   9
ENDBRANCH   3   5
ENDBRANCH   1   3
BRANCH   1  18
ATOM     18  N   UNL d   1      26.077 -12.724  -3.334  0.00  0.00    -0.266 N 
ATOM     19  C   UNL d   1      25.667 -14.060  -3.323  0.00  0.00     0.265 C 
ATOM     20  O   UNL d   1      24.748 -14.447  -4.041  0.00  0.00    -0.269 OA
ATOM     21  H   UNL d   1      26.801 -12.359  -2.714  0.00  0.00     0.190 HD
BRANCH  19  22
ATOM     22  C   UNL d   1      26.482 -14.999  -2.346  0.00  0.00     0.218 C 
ATOM     23  C   UNL d   1      27.808 -14.317  -2.107  0.00  0.00     0.050 C 
BRANCH  22  24
ATOM     24  O   UNL d   1      25.784 -15.251  -1.096  0.00  0.00    -0.335 OA
BRANCH  24  25
ATOM     25  C   UNL d   1      24.887 -16.294  -0.946  0.00  0.00     0.091 C 
ATOM     26  C   UNL d   1      23.535 -15.950  -1.182  0.00  0.00     0.040 C 
ATOM     27  C   UNL d   1      22.484 -16.848  -0.895  0.00  0.00     0.026 C 
ATOM     28  C   UNL d   1      22.774 -18.147  -0.504  0.00  0.00     0.035 C 
ATOM     29 CL   UNL d   1      21.537 -19.304  -0.225  0.00  0.00    -0.084 Cl
ATOM     30  C   UNL d   1      24.083 -18.513  -0.280  0.00  0.00     0.050 C 
ATOM     31  C   UNL d   1      25.112 -17.570  -0.380  0.00  0.00     0.069 C 
ATOM     32 CL   UNL d   1      26.490 -18.127   0.517  0.00  0.00    -0.081 Cl
ENDBRANCH  24  25
ENDBRANCH  22  24
ENDBRANCH  19  22
ENDBRANCH   1  18
TORSDOF 9
ENDMDL
MODEL 5
REMARK VINA RESULT:    -8.061      3.418      7.312
REMARK INTER + INTRA:         -13.861
REMARK INTER:                 -10.746
REMARK INTRA:                  -3.116
REMARK CONF_INDEPENDENT:        2.685
REMARK UNBOUND:                -3.116
REMARK  9 active torsions:
REMARK  status: ('A' for Active; 'I' for Inactive)
REMARK    1  A    between atoms: C_2  and  O_3 
REMARK    2  A    between atoms: O_3  and  C_4 
REMARK    3  A    between atoms: C_8  and  C_9 
REMARK       I    between atoms: C_9  and  N_11 
REMARK    4  A    between atoms: N_11  and  C_12 
REMARK    5  A    between atoms: C_12  and  N_14 
REMARK    6  A    between atoms: N_14  and  N_15 
REMARK       I    between atoms: N_15  and  C_16 
REMARK    7  A    between atoms: C_16  and  C_18 
REMARK    8  A    between atoms: C_18  and  O_20 
REMARK    9  A    between atoms: O_20  and  C_21 
ROOT
ATOM      1  N   UNL d   1      25.704 -12.345  -4.709  0.00  0.00    -0.273 N 
ATOM      2  H   UNL d   1      24.984 -11.927  -5.294  0.00  0.00     0.189 HD
ENDROOT
BRANCH   1   3
ATOM      3  C   UNL d   1      25.899 -12.131  -3.331  0.00  0.00     0.193 C 
ATOM      4  S   UNL d   1      26.279 -10.583  -2.770  0.00  0.00    -0.039 SA
BRANCH   3   5
ATOM      5  N   UNL d   1      25.745 -13.278  -2.526  0.00  0.00    -0.298 N 
ATOM      6  C   UNL d   1      25.278 -14.549  -2.953  0.00  0.00     0.258 C 
ATOM      7  O   UNL d   1      24.941 -14.802  -4.098  0.00  0.00    -0.267 OA
ATOM      8  H   UNL d   1      26.015 -13.177  -1.562  0.00  0.00     0.171 HD
BRANCH   6   9
ATOM      9  C   UNL d   1      25.182 -15.703  -1.990  0.00  0.00     0.035 A 
ATOM     10  C   UNL d   1      26.389 -16.225  -1.471  0.00  0.00     0.017 A 
ATOM     11  C   UNL d   1      26.393 -17.247  -0.517  0.00  0.00     0.004 A 
ATOM     12  C   UNL d   1      25.185 -17.800  -0.108  0.00  0.00     0.037 A 
ATOM     13  C   UNL d   1      23.981 -17.297  -0.611  0.00  0.00     0.069 A 
ATOM     14  C   UNL d   1      23.981 -16.250  -1.545  0.00  0.00     0.053 A 
BRANCH  13  15
ATOM     15  O   UNL d   1      22.842 -17.808  -0.045  0.00  0.00    -0.351 OA
BRANCH  15  16
ATOM     16  C   UNL d   1      22.337 -18.998  -0.649  0.00  0.00     0.171 C 
ATOM     17  C   UNL d   1      20.822 -18.950  -0.613  0.00  0.00     0.034 C 
ENDBRANCH  15  16
ENDBRANCH  13  15
ENDBRANCH   6   9
ENDBRANCH   3   5
ENDBRANCH   1   3
BRANCH   1  18
ATOM     18  N   UNL d   1      26.611 -13.221  -5.402  0.00  0.00    -0.266 N 
ATOM     19  C   UNL d   1      27.714 -12.744  -6.114  0.00  0.00     0.265 C 
ATOM     20  O   UNL d   1      28.008 -11.551  -6.105  0.00  0.00    -0.269 OA
ATOM     21  H   UNL d   1      26.308 -14.195  -5.432  0.00  0.00     0.190 HD
BRANCH  19  22
ATOM     22  C   UNL d   1      28.531 -13.850  -6.895  0.00  0.00     0.218 C 
ATOM     23  C   UNL d   1      29.991 -13.553  -6.650  0.00  0.00     0.050 C 
BRANCH  22  24
ATOM     24  O   UNL d   1      28.190 -15.200  -6.480  0.00  0.00    -0.335 OA
BRANCH  24  25
ATOM     25  C   UNL d   1      28.789 -15.816  -5.395  0.00  0.00     0.091 C 
ATOM     26  C   UNL d   1      28.474 -15.243  -4.141  0.00  0.00     0.040 C 
ATOM     27  C   UNL d   1      29.142 -15.636  -2.961  0.00  0.00     0.026 C 
ATOM     28  C   UNL d   1      30.028 -16.702  -2.992  0.00  0.00     0.035 C 
ATOM     29 CL   UNL d   1      30.803 -17.276  -1.572  0.00  0.00    -0.084 Cl
ATOM     30  C   UNL d   1      30.343 -17.288  -4.199  0.00  0.00     0.050 C 
ATOM     31  C   UNL d   1      29.827 -16.776  -5.395  0.00  0.00     0.069 C 
ATOM     32 CL   UNL d   1      30.830 -17.284  -6.717  0.00  0.00    -0.081 Cl
ENDBRANCH  24  25
ENDBRANCH  22  24
ENDBRANCH  19  22
ENDBRANCH   1  18
TORSDOF 9
ENDMDL
MODEL 6
REMARK VINA RESULT:    -7.999      6.704      9.929
REMARK INTER + INTRA:         -13.204
REMARK INTER:                 -10.683
REMARK INTRA:                  -2.521
REMARK CONF_INDEPENDENT:        2.685
REMARK UNBOUND:                -2.521
REMARK  9 active torsions:
REMARK  status: ('A' for Active; 'I' for Inactive)
REMARK    1  A    between atoms: C_2  and  O_3 
REMARK    2  A    between atoms: O_3  and  C_4 
REMARK    3  A    between atoms: C_8  and  C_9 
REMARK       I    between atoms: C_9  and  N_11 
REMARK    4  A    between atoms: N_11  and  C_12 
REMARK    5  A    between atoms: C_12  and  N_14 
REMARK    6  A    between atoms: N_14  and  N_15 
REMARK       I    between atoms: N_15  and  C_16 
REMARK    7  A    between atoms: C_16  and  C_18 
REMARK    8  A    between atoms: C_18  and  O_20 
REMARK    9  A    between atoms: O_20  and  C_21 
ROOT
ATOM      1  N   UNL d   1      31.080 -14.656   1.256  0.00  0.00    -0.273 N 
ATOM      2  H   UNL d   1      31.494 -13.882   0.742  0.00  0.00     0.189 HD
ENDROOT
BRANCH   1   3
ATOM      3  C   UNL d   1      31.544 -15.209   2.465  0.00  0.00     0.193 C 
ATOM      4  S   UNL d   1      32.676 -16.463   2.431  0.00  0.00    -0.039 SA
BRANCH   3   5
ATOM      5  N   UNL d   1      30.997 -14.632   3.629  0.00  0.00    -0.298 N 
ATOM      6  C   UNL d   1      29.622 -14.380   3.877  0.00  0.00     0.258 C 
ATOM      7  O   UNL d   1      28.728 -14.635   3.085  0.00  0.00    -0.267 OA
ATOM      8  H   UNL d   1      31.654 -14.400   4.355  0.00  0.00     0.171 HD
BRANCH   6   9
ATOM      9  C   UNL d   1      29.167 -13.775   5.178  0.00  0.00     0.035 A 
ATOM     10  C   UNL d   1      28.419 -12.576   5.117  0.00  0.00     0.017 A 
ATOM     11  C   UNL d   1      27.895 -11.983   6.268  0.00  0.00     0.004 A 
ATOM     12  C   UNL d   1      28.158 -12.554   7.508  0.00  0.00     0.037 A 
ATOM     13  C   UNL d   1      28.895 -13.739   7.588  0.00  0.00     0.069 A 
ATOM     14  C   UNL d   1      29.394 -14.348   6.427  0.00  0.00     0.053 A 
BRANCH  13  15
ATOM     15  O   UNL d   1      28.982 -14.301   8.836  0.00  0.00    -0.351 OA
BRANCH  15  16
ATOM     16  C   UNL d   1      29.213 -13.386   9.906  0.00  0.00     0.171 C 
ATOM     17  C   UNL d   1      27.973 -13.344  10.778  0.00  0.00     0.034 C 
ENDBRANCH  15  16
ENDBRANCH  13  15
ENDBRANCH   6   9
ENDBRANCH   3   5
ENDBRANCH   1   3
BRANCH   1  18
ATOM     18  N   UNL d   1      29.914 -15.234   0.640  0.00  0.00    -0.266 N 
ATOM     19  C   UNL d   1      29.603 -15.034  -0.707  0.00  0.00     0.265 C 
ATOM     20  O   UNL d   1      30.367 -14.422  -1.451  0.00  0.00    -0.269 OA
ATOM     21  H   UNL d   1      29.279 -15.691   1.296  0.00  0.00     0.190 HD
BRANCH  19  22
ATOM     22  C   UNL d   1      28.229 -15.662  -1.174  0.00  0.00     0.218 C 
ATOM     23  C   UNL d   1      28.568 -16.702  -2.216  0.00  0.00     0.050 C 
BRANCH  22  24
ATOM     24  O   UNL d   1      27.473 -16.241  -0.076  0.00  0.00    -0.335 OA
BRANCH  24  25
ATOM     25  C   UNL d   1      26.167 -16.673  -0.222  0.00  0.00     0.091 C 
ATOM     26  C   UNL d   1      25.878 -17.908   0.405  0.00  0.00     0.040 C 
ATOM     27  C   UNL d   1      24.650 -18.572   0.198  0.00  0.00     0.026 C 
ATOM     28  C   UNL d   1      23.640 -17.947  -0.519  0.00  0.00     0.035 C 
ATOM     29 CL   UNL d   1      22.098 -18.672  -0.728  0.00  0.00    -0.084 Cl
ATOM     30  C   UNL d   1      23.889 -16.737  -1.129  0.00  0.00     0.050 C 
ATOM     31  C   UNL d   1      25.167 -16.168  -1.084  0.00  0.00     0.069 C 
ATOM     32 CL   UNL d   1      25.335 -15.034  -2.387  0.00  0.00    -0.081 Cl
ENDBRANCH  24  25
ENDBRANCH  22  24
ENDBRANCH  19  22
ENDBRANCH   1  18
TORSDOF 9
ENDMDL
MODEL 7
REMARK VINA RESULT:    -7.887      6.097      9.781
REMARK INTER + INTRA:         -13.015
REMARK INTER:                 -10.572
REMARK INTRA:                  -2.443
REMARK CONF_INDEPENDENT:        2.685
REMARK UNBOUND:                -2.443
REMARK  9 active torsions:
REMARK  status: ('A' for Active; 'I' for Inactive)
REMARK    1  A    between atoms: C_2  and  O_3 
REMARK    2  A    between atoms: O_3  and  C_4 
REMARK    3  A    between atoms: C_8  and  C_9 
REMARK       I    between atoms: C_9  and  N_11 
REMARK    4  A    between atoms: N_11  and  C_12 
REMARK    5  A    between atoms: C_12  and  N_14 
REMARK    6  A    between atoms: N_14  and  N_15 
REMARK       I    between atoms: N_15  and  C_16 
REMARK    7  A    between atoms: C_16  and  C_18 
REMARK    8  A    between atoms: C_18  and  O_20 
REMARK    9  A    between atoms: O_20  and  C_21 
ROOT
ATOM      1  N   UNL d   1      28.553 -14.779   2.370  0.00  0.00    -0.273 N 
ATOM      2  H   UNL d   1      29.477 -15.202   2.314  0.00  0.00     0.189 HD
ENDROOT
BRANCH   1   3
ATOM      3  C   UNL d   1      28.019 -14.065   3.460  0.00  0.00     0.193 C 
ATOM      4  S   UNL d   1      27.787 -14.847   4.939  0.00  0.00    -0.039 SA
BRANCH   3   5
ATOM      5  N   UNL d   1      27.725 -12.712   3.195  0.00  0.00    -0.298 N 
ATOM      6  C   UNL d   1      27.733 -11.649   4.137  0.00  0.00     0.258 C 
ATOM      7  O   UNL d   1      27.997 -11.790   5.321  0.00  0.00    -0.267 OA
ATOM      8  H   UNL d   1      27.510 -12.488   2.238  0.00  0.00     0.171 HD
BRANCH   6   9
ATOM      9  C   UNL d   1      27.418 -10.238   3.717  0.00  0.00     0.035 A 
ATOM     10  C   UNL d   1      28.247  -9.207   4.216  0.00  0.00     0.017 A 
ATOM     11  C   UNL d   1      28.074  -7.877   3.822  0.00  0.00     0.004 A 
ATOM     12  C   UNL d   1      27.032  -7.551   2.962  0.00  0.00     0.037 A 
ATOM     13  C   UNL d   1      26.202  -8.558   2.459  0.00  0.00     0.069 A 
ATOM     14  C   UNL d   1      26.398  -9.896   2.833  0.00  0.00     0.053 A 
BRANCH  13  15
ATOM     15  O   UNL d   1      25.295  -8.160   1.512  0.00  0.00    -0.351 OA
BRANCH  15  16
ATOM     16  C   UNL d   1      25.852  -7.734   0.269  0.00  0.00     0.171 C 
ATOM     17  C   UNL d   1      26.834  -8.787  -0.203  0.00  0.00     0.034 C 
ENDBRANCH  15  16
ENDBRANCH  13  15
ENDBRANCH   6   9
ENDBRANCH   3   5
ENDBRANCH   1   3
BRANCH   1  18
ATOM     18  N   UNL d   1      27.730 -14.969   1.205  0.00  0.00    -0.266 N 
ATOM     19  C   UNL d   1      27.330 -13.908   0.390  0.00  0.00     0.265 C 
ATOM     20  O   UNL d   1      27.742 -12.767   0.587  0.00  0.00    -0.269 OA
ATOM     21  H   UNL d   1      27.367 -15.918   1.102  0.00  0.00     0.190 HD
BRANCH  19  22
ATOM     22  C   UNL d   1      26.344 -14.302  -0.781  0.00  0.00     0.218 C 
ATOM     23  C   UNL d   1      26.704 -13.424  -1.956  0.00  0.00     0.050 C 
BRANCH  22  24
ATOM     24  O   UNL d   1      26.421 -15.711  -1.131  0.00  0.00    -0.335 OA
BRANCH  24  25
ATOM     25  C   UNL d   1      25.362 -16.582  -0.940  0.00  0.00     0.091 C 
ATOM     26  C   UNL d   1      24.087 -16.032  -1.215  0.00  0.00     0.040 C 
ATOM     27  C   UNL d   1      22.900 -16.726  -0.896  0.00  0.00     0.026 C 
ATOM     28  C   UNL d   1      22.967 -18.031  -0.434  0.00  0.00     0.035 C 
ATOM     29 CL   UNL d   1      21.552 -18.951  -0.114  0.00  0.00    -0.084 Cl
ATOM     30  C   UNL d   1      24.195 -18.597  -0.171  0.00  0.00     0.050 C 
ATOM     31  C   UNL d   1      25.368 -17.845  -0.305  0.00  0.00     0.069 C 
ATOM     32 CL   UNL d   1      26.628 -18.573   0.641  0.00  0.00    -0.081 Cl
ENDBRANCH  24  25
ENDBRANCH  22  24
ENDBRANCH  19  22
ENDBRANCH   1  18
TORSDOF 9
ENDMDL
MODEL 8
REMARK VINA RESULT:    -7.337      3.276      6.518
REMARK INTER + INTRA:         -12.992
REMARK INTER:                 -10.021
REMARK INTRA:                  -2.970
REMARK CONF_INDEPENDENT:        2.685
REMARK UNBOUND:                -2.970
REMARK  9 active torsions:
REMARK  status: ('A' for Active; 'I' for Inactive)
REMARK    1  A    between atoms: C_2  and  O_3 
REMARK    2  A    between atoms: O_3  and  C_4 
REMARK    3  A    between atoms: C_8  and  C_9 
REMARK       I    between atoms: C_9  and  N_11 
REMARK    4  A    between atoms: N_11  and  C_12 
REMARK    5  A    between atoms: C_12  and  N_14 
REMARK    6  A    between atoms: N_14  and  N_15 
REMARK       I    between atoms: N_15  and  C_16 
REMARK    7  A    between atoms: C_16  and  C_18 
REMARK    8  A    between atoms: C_18  and  O_20 
REMARK    9  A    between atoms: O_20  and  C_21 
ROOT
ATOM      1  N   UNL d   1      30.058 -16.674  -3.310  0.00  0.00    -0.273 N 
ATOM      2  H   UNL d   1      30.953 -17.126  -3.137  0.00  0.00     0.189 HD
ENDROOT
BRANCH   1   3
ATOM      3  C   UNL d   1      29.656 -16.027  -4.494  0.00  0.00     0.193 C 
ATOM      4  S   UNL d   1      30.062 -16.696  -5.992  0.00  0.00    -0.039 SA
BRANCH   3   5
ATOM      5  N   UNL d   1      28.921 -14.840  -4.300  0.00  0.00    -0.298 N 
ATOM      6  C   UNL d   1      27.738 -14.461  -4.988  0.00  0.00     0.258 C 
ATOM      7  O   UNL d   1      27.208 -15.137  -5.856  0.00  0.00    -0.267 OA
ATOM      8  H   UNL d   1      29.269 -14.219  -3.589  0.00  0.00     0.171 HD
BRANCH   6   9
ATOM      9  C   UNL d   1      27.036 -13.169  -4.669  0.00  0.00     0.035 A 
ATOM     10  C   UNL d   1      26.817 -12.862  -3.306  0.00  0.00     0.017 A 
ATOM     11  C   UNL d   1      26.238 -11.652  -2.913  0.00  0.00     0.004 A 
ATOM     12  C   UNL d   1      25.819 -10.751  -3.885  0.00  0.00     0.037 A 
ATOM     13  C   UNL d   1      26.027 -11.037  -5.238  0.00  0.00     0.069 A 
ATOM     14  C   UNL d   1      26.636 -12.239  -5.626  0.00  0.00     0.053 A 
BRANCH  13  15
ATOM     15  O   UNL d   1      25.710 -10.030  -6.113  0.00  0.00    -0.351 OA
BRANCH  15  16
ATOM     16  C   UNL d   1      25.383  -8.777  -5.514  0.00  0.00     0.171 C 
ATOM     17  C   UNL d   1      23.913  -8.496  -5.761  0.00  0.00     0.034 C 
ENDBRANCH  15  16
ENDBRANCH  13  15
ENDBRANCH   6   9
ENDBRANCH   3   5
ENDBRANCH   1   3
BRANCH   1  18
ATOM     18  N   UNL d   1      29.145 -16.701  -2.198  0.00  0.00    -0.266 N 
ATOM     19  C   UNL d   1      28.968 -15.606  -1.350  0.00  0.00     0.265 C 
ATOM     20  O   UNL d   1      29.526 -14.533  -1.573  0.00  0.00    -0.269 OA
ATOM     21  H   UNL d   1      28.740 -17.619  -2.013  0.00  0.00     0.190 HD
BRANCH  19  22
ATOM     22  C   UNL d   1      28.001 -15.861  -0.124  0.00  0.00     0.218 C 
ATOM     23  C   UNL d   1      27.010 -14.722  -0.118  0.00  0.00     0.050 C 
BRANCH  22  24
ATOM     24  O   UNL d   1      27.328 -17.147  -0.198  0.00  0.00    -0.335 OA
BRANCH  24  25
ATOM     25  C   UNL d   1      25.961 -17.259  -0.386  0.00  0.00     0.091 C 
ATOM     26  C   UNL d   1      25.329 -18.225   0.430  0.00  0.00     0.040 C 
ATOM     27  C   UNL d   1      23.979 -18.589   0.234  0.00  0.00     0.026 C 
ATOM     28  C   UNL d   1      23.203 -17.893  -0.681  0.00  0.00     0.035 C 
ATOM     29 CL   UNL d   1      21.535 -18.235  -0.899  0.00  0.00    -0.084 Cl
ATOM     30  C   UNL d   1      23.790 -16.936  -1.481  0.00  0.00     0.050 C 
ATOM     31  C   UNL d   1      25.170 -16.708  -1.420  0.00  0.00     0.069 C 
ATOM     32 CL   UNL d   1      25.690 -15.946  -2.890  0.00  0.00    -0.081 Cl
ENDBRANCH  24  25
ENDBRANCH  22  24
ENDBRANCH  19  22
ENDBRANCH   1  18
TORSDOF 9
ENDMDL
MODEL 9
REMARK VINA RESULT:    -7.298      3.501      4.848
REMARK INTER + INTRA:         -13.362
REMARK INTER:                  -9.983
REMARK INTRA:                  -3.379
REMARK CONF_INDEPENDENT:        2.685
REMARK UNBOUND:                -3.379
REMARK  9 active torsions:
REMARK  status: ('A' for Active; 'I' for Inactive)
REMARK    1  A    between atoms: C_2  and  O_3 
REMARK    2  A    between atoms: O_3  and  C_4 
REMARK    3  A    between atoms: C_8  and  C_9 
REMARK       I    between atoms: C_9  and  N_11 
REMARK    4  A    between atoms: N_11  and  C_12 
REMARK    5  A    between atoms: C_12  and  N_14 
REMARK    6  A    between atoms: N_14  and  N_15 
REMARK       I    between atoms: N_15  and  C_16 
REMARK    7  A    between atoms: C_16  and  C_18 
REMARK    8  A    between atoms: C_18  and  O_20 
REMARK    9  A    between atoms: O_20  and  C_21 
ROOT
ATOM      1  N   UNL d   1      30.443 -15.920   0.979  0.00  0.00    -0.273 N 
ATOM      2  H   UNL d   1      30.544 -15.799   1.985  0.00  0.00     0.189 HD
ENDROOT
BRANCH   1   3
ATOM      3  C   UNL d   1      31.452 -16.290   0.070  0.00  0.00     0.193 C 
ATOM      4  S   UNL d   1      32.898 -16.947   0.646  0.00  0.00    -0.039 SA
BRANCH   3   5
ATOM      5  N   UNL d   1      31.138 -16.068  -1.286  0.00  0.00    -0.298 N 
ATOM      6  C   UNL d   1      30.152 -16.754  -2.044  0.00  0.00     0.258 C 
ATOM      7  O   UNL d   1      29.446 -17.644  -1.598  0.00  0.00    -0.267 OA
ATOM      8  H   UNL d   1      31.656 -15.337  -1.744  0.00  0.00     0.171 HD
BRANCH   6   9
ATOM      9  C   UNL d   1      29.901 -16.404  -3.486  0.00  0.00     0.035 A 
ATOM     10  C   UNL d   1      30.906 -16.735  -4.425  0.00  0.00     0.017 A 
ATOM     11  C   UNL d   1      30.728 -16.513  -5.794  0.00  0.00     0.004 A 
ATOM     12  C   UNL d   1      29.560 -15.904  -6.238  0.00  0.00     0.037 A 
ATOM     13  C   UNL d   1      28.557 -15.569  -5.325  0.00  0.00     0.069 A 
ATOM     14  C   UNL d   1      28.726 -15.822  -3.956  0.00  0.00     0.053 A 
BRANCH  13  15
ATOM     15  O   UNL d   1      27.389 -15.103  -5.872  0.00  0.00    -0.351 OA
BRANCH  15  16
ATOM     16  C   UNL d   1      26.197 -15.474  -5.180  0.00  0.00     0.171 C 
ATOM     17  C   UNL d   1      25.841 -14.365  -4.209  0.00  0.00     0.034 C 
ENDBRANCH  15  16
ENDBRANCH  13  15
ENDBRANCH   6   9
ENDBRANCH   3   5
ENDBRANCH   1   3
BRANCH   1  18
ATOM     18  N   UNL d   1      29.123 -15.656   0.470  0.00  0.00    -0.266 N 
ATOM     19  C   UNL d   1      28.274 -14.710   1.048  0.00  0.00     0.265 C 
ATOM     20  O   UNL d   1      28.656 -13.995   1.972  0.00  0.00    -0.269 OA
ATOM     21  H   UNL d   1      28.822 -16.301  -0.262  0.00  0.00     0.190 HD
BRANCH  19  22
ATOM     22  C   UNL d   1      26.827 -14.637   0.413  0.00  0.00     0.218 C 
ATOM     23  C   UNL d   1      26.659 -13.228  -0.102  0.00  0.00     0.050 C 
BRANCH  22  24
ATOM     24  O   UNL d   1      26.627 -15.614  -0.644  0.00  0.00    -0.335 OA
BRANCH  24  25
ATOM     25  C   UNL d   1      25.567 -16.504  -0.641  0.00  0.00     0.091 C 
ATOM     26  C   UNL d   1      24.329 -15.950  -1.043  0.00  0.00     0.040 C 
ATOM     27  C   UNL d   1      23.122 -16.672  -0.919  0.00  0.00     0.026 C 
ATOM     28  C   UNL d   1      23.151 -18.002  -0.530  0.00  0.00     0.035 C 
ATOM     29 CL   UNL d   1      21.723 -18.952  -0.447  0.00  0.00    -0.084 Cl
ATOM     30  C   UNL d   1      24.346 -18.572  -0.146  0.00  0.00     0.050 C 
ATOM     31  C   UNL d   1      25.514 -17.803  -0.085  0.00  0.00     0.069 C 
ATOM     32 CL   UNL d   1      26.655 -18.576   0.969  0.00  0.00    -0.081 Cl
ENDBRANCH  24  25
ENDBRANCH  22  24
ENDBRANCH  19  22
ENDBRANCH   1  18
TORSDOF 9
ENDMDL
