MODEL 1
REMARK VINA RESULT:    -9.543      0.000      0.000
REMARK INTER + INTRA:         -15.069
REMARK INTER:                 -11.929
REMARK INTRA:                  -3.139
REMARK CONF_INDEPENDENT:        2.386
REMARK UNBOUND:                -3.139
REMARK  8 active torsions:
REMARK  status: ('A' for Active; 'I' for Inactive)
REMARK    1  A    between atoms: C_2  and  O_3 
REMARK    2  A    between atoms: O_3  and  C_4 
REMARK    3  A    between atoms: C_4  and  C_6 
REMARK    4  A    between atoms: C_10  and  N_9 
REMARK    5  A    between atoms: C_10  and  C_25 
REMARK    6  A    between atoms: C_10  and  C_11 
REMARK    7  A    between atoms: N_29  and  C_30 
REMARK    8  A    between atoms: C_30  and  C_33 
ROOT
ATOM      1  C   UNL d   1      28.523 -15.544  -0.500  0.00  0.00     0.299 C 
ENDROOT
BRANCH   1   2
ATOM      2  C   UNL d   1      29.378 -16.500  -1.464  0.00  0.00     0.184 A 
ATOM      3  N   UNL d   1      30.147 -17.511  -1.092  0.00  0.00    -0.111 NA
ATOM      4  N   UNL d   1      30.670 -18.162  -2.139  0.00  0.00    -0.023 NA
ATOM      5  N   UNL d   1      30.299 -17.556  -3.227  0.00  0.00    -0.043 NA
ATOM      6  N   UNL d   1      29.567 -16.491  -2.822  0.00  0.00    -0.223 N 
BRANCH   6   7
ATOM      7  C   UNL d   1      29.130 -15.596  -3.875  0.00  0.00     0.051 C 
ATOM      8  C   UNL d   1      29.668 -14.213  -3.563  0.00  0.00     0.040 C 
ATOM      9  C   UNL d   1      29.582 -16.247  -5.185  0.00  0.00     0.040 C 
BRANCH   7  10
ATOM     10  C   UNL d   1      27.636 -15.492  -3.879  0.00  0.00     0.028 C 
ATOM     11  C   UNL d   1      26.906 -15.199  -5.155  0.00  0.00     0.007 C 
ENDBRANCH   7  10
ENDBRANCH   6   7
ENDBRANCH   1   2
BRANCH   1  12
ATOM     12  C   UNL d   1      26.992 -15.824  -0.407  0.00  0.00     0.049 C 
ATOM     13  C   UNL d   1      26.462 -16.984   0.055  0.00  0.00     0.029 C 
ATOM     14  C   UNL d   1      25.067 -17.367  -0.171  0.00  0.00    -0.006 C 
ATOM     15  C   UNL d   1      24.445 -18.550   0.290  0.00  0.00     0.053 C 
ATOM     16  C   UNL d   1      24.317 -16.508  -0.960  0.00  0.00     0.048 C 
ATOM     17  C   UNL d   1      23.064 -18.706   0.043  0.00  0.00     0.105 C 
ATOM     18  C   UNL d   1      22.344 -17.587  -0.263  0.00  0.00     0.107 C 
ATOM     19  O   UNL d   1      22.444 -19.700  -0.792  0.00  0.00    -0.323 OA
ATOM     20  C   UNL d   1      22.960 -16.646  -1.042  0.00  0.00     0.070 C 
ATOM     21  O   UNL d   1      21.030 -17.836  -0.520  0.00  0.00    -0.323 OA
ATOM     22  C   UNL d   1      21.312 -18.934  -1.376  0.00  0.00     0.352 C 
ATOM     23  N   UNL d   1      24.872 -15.390  -1.560  0.00  0.00    -0.322 N 
ATOM     24  C   UNL d   1      26.077 -14.873  -1.168  0.00  0.00     0.254 C 
ATOM     25  H   UNL d   1      24.304 -14.876  -2.228  0.00  0.00     0.169 HD
ATOM     26  O   UNL d   1      26.477 -13.788  -1.570  0.00  0.00    -0.268 OA
ENDBRANCH   1  12
BRANCH   1  27
ATOM     27  N   UNL d   1      29.072 -15.427   0.970  0.00  0.00    -0.056 N 
ATOM     28  C   UNL d   1      28.020 -15.076   2.020  0.00  0.00     0.237 C 
ATOM     29  C   UNL d   1      27.605 -13.629   1.890  0.00  0.00     0.042 C 
ATOM     30  C   UNL d   1      28.881 -12.707   1.823  0.00  0.00     0.088 C 
ATOM     31  C   UNL d   1      30.036 -13.147   0.859  0.00  0.00     0.042 C 
ATOM     32  C   UNL d   1      30.343 -14.611   1.078  0.00  0.00     0.237 C 
ATOM     33  H   UNL d   1      29.342 -16.391   1.213  0.00  0.00     0.281 HD
BRANCH  30  34
ATOM     34  C   UNL d   1      29.373 -12.726   3.272  0.00  0.00     0.263 C 
ATOM     35  O   UNL d   1      30.484 -12.422   3.592  0.00  0.00    -0.265 OA
BRANCH  34  36
ATOM     36  O   UNL d   1      28.338 -12.927   4.145  0.00  0.00    -0.322 OA
BRANCH  36  37
ATOM     37  C   UNL d   1      28.733 -13.532   5.378  0.00  0.00     0.174 C 
ATOM     38  C   UNL d   1      28.549 -15.033   5.260  0.00  0.00     0.034 C 
ENDBRANCH  36  37
ENDBRANCH  34  36
ENDBRANCH  30  34
ENDBRANCH   1  27
TORSDOF 8
ENDMDL
MODEL 2
REMARK VINA RESULT:    -9.360      2.793      7.354
REMARK INTER + INTRA:         -14.822
REMARK INTER:                 -11.746
REMARK INTRA:                  -3.076
REMARK CONF_INDEPENDENT:        2.386
REMARK UNBOUND:                -3.076
REMARK  8 active torsions:
REMARK  status: ('A' for Active; 'I' for Inactive)
REMARK    1  A    between atoms: C_2  and  O_3 
REMARK    2  A    between atoms: O_3  and  C_4 
REMARK    3  A    between atoms: C_4  and  C_6 
REMARK    4  A    between atoms: C_10  and  N_9 
REMARK    5  A    between atoms: C_10  and  C_25 
REMARK    6  A    between atoms: C_10  and  C_11 
REMARK    7  A    between atoms: N_29  and  C_30 
REMARK    8  A    between atoms: C_30  and  C_33 
ROOT
ATOM      1  C   UNL d   1      26.644 -14.840   0.100  0.00  0.00     0.299 C 
ENDROOT
BRANCH   1   2
ATOM      2  C   UNL d   1      26.758 -16.437   0.010  0.00  0.00     0.184 A 
ATOM      3  N   UNL d   1      27.864 -17.156   0.115  0.00  0.00    -0.111 NA
ATOM      4  N   UNL d   1      27.621 -18.472   0.070  0.00  0.00    -0.023 NA
ATOM      5  N   UNL d   1      26.347 -18.647  -0.122  0.00  0.00    -0.043 NA
ATOM      6  N   UNL d   1      25.819 -17.406  -0.235  0.00  0.00    -0.223 N 
BRANCH   6   7
ATOM      7  C   UNL d   1      24.409 -17.354  -0.564  0.00  0.00     0.051 C 
ATOM      8  C   UNL d   1      23.883 -15.994  -0.146  0.00  0.00     0.040 C 
ATOM      9  C   UNL d   1      24.317 -17.715  -2.050  0.00  0.00     0.040 C 
BRANCH   7  10
ATOM     10  C   UNL d   1      23.654 -18.376   0.228  0.00  0.00     0.028 C 
ATOM     11  C   UNL d   1      22.287 -18.810  -0.211  0.00  0.00     0.007 C 
ENDBRANCH   7  10
ENDBRANCH   6   7
ENDBRANCH   1   2
BRANCH   1  12
ATOM     12  C   UNL d   1      27.333 -14.150   1.317  0.00  0.00     0.049 C 
ATOM     13  C   UNL d   1      27.875 -14.826   2.361  0.00  0.00     0.029 C 
ATOM     14  C   UNL d   1      28.210 -14.186   3.635  0.00  0.00    -0.006 C 
ATOM     15  C   UNL d   1      28.787 -14.822   4.759  0.00  0.00     0.053 C 
ATOM     16  C   UNL d   1      27.871 -12.846   3.754  0.00  0.00     0.048 C 
ATOM     17  C   UNL d   1      29.116 -14.019   5.871  0.00  0.00     0.105 C 
ATOM     18  C   UNL d   1      29.224 -12.674   5.673  0.00  0.00     0.107 C 
ATOM     19  O   UNL d   1      28.530 -14.083   7.184  0.00  0.00    -0.323 OA
ATOM     20  C   UNL d   1      28.341 -12.101   4.799  0.00  0.00     0.070 C 
ATOM     21  O   UNL d   1      29.509 -11.974   6.808  0.00  0.00    -0.323 OA
ATOM     22  C   UNL d   1      28.526 -12.650   7.578  0.00  0.00     0.352 C 
ATOM     23  N   UNL d   1      27.190 -12.170   2.756  0.00  0.00    -0.322 N 
ATOM     24  C   UNL d   1      27.095 -12.655   1.479  0.00  0.00     0.254 C 
ATOM     25  H   UNL d   1      26.858 -11.231   2.957  0.00  0.00     0.169 HD
ATOM     26  O   UNL d   1      26.655 -11.976   0.561  0.00  0.00    -0.268 OA
ENDBRANCH   1  12
BRANCH   1  27
ATOM     27  N   UNL d   1      27.096 -14.071  -1.196  0.00  0.00    -0.056 N 
ATOM     28  C   UNL d   1      25.967 -13.386  -1.962  0.00  0.00     0.237 C 
ATOM     29  C   UNL d   1      25.116 -14.411  -2.675  0.00  0.00     0.042 C 
ATOM     30  C   UNL d   1      26.032 -15.400  -3.489  0.00  0.00     0.088 C 
ATOM     31  C   UNL d   1      27.287 -15.987  -2.755  0.00  0.00     0.042 C 
ATOM     32  C   UNL d   1      28.039 -14.867  -2.073  0.00  0.00     0.237 C 
ATOM     33  H   UNL d   1      27.655 -13.283  -0.836  0.00  0.00     0.281 HD
BRANCH  30  34
ATOM     34  C   UNL d   1      26.476 -14.535  -4.672  0.00  0.00     0.263 C 
ATOM     35  O   UNL d   1      26.228 -13.370  -4.762  0.00  0.00    -0.265 OA
BRANCH  34  36
ATOM     36  O   UNL d   1      27.350 -15.211  -5.480  0.00  0.00    -0.322 OA
BRANCH  36  37
ATOM     37  C   UNL d   1      28.292 -14.366  -6.143  0.00  0.00     0.174 C 
ATOM     38  C   UNL d   1      29.494 -15.200  -6.543  0.00  0.00     0.034 C 
ENDBRANCH  36  37
ENDBRANCH  34  36
ENDBRANCH  30  34
ENDBRANCH   1  27
TORSDOF 8
ENDMDL
MODEL 3
REMARK VINA RESULT:    -8.800      2.905      7.343
REMARK INTER + INTRA:         -13.920
REMARK INTER:                 -11.187
REMARK INTRA:                  -2.733
REMARK CONF_INDEPENDENT:        2.386
REMARK UNBOUND:                -2.733
REMARK  8 active torsions:
REMARK  status: ('A' for Active; 'I' for Inactive)
REMARK    1  A    between atoms: C_2  and  O_3 
REMARK    2  A    between atoms: O_3  and  C_4 
REMARK    3  A    between atoms: C_4  and  C_6 
REMARK    4  A    between atoms: C_10  and  N_9 
REMARK    5  A    between atoms: C_10  and  C_25 
REMARK    6  A    between atoms: C_10  and  C_11 
REMARK    7  A    between atoms: N_29  and  C_30 
REMARK    8  A    between atoms: C_30  and  C_33 
ROOT
ATOM      1  C   UNL d   1      26.302 -15.313  -1.182  0.00  0.00     0.299 C 
ENDROOT
BRANCH   1   2
ATOM      2  C   UNL d   1      27.703 -15.671  -0.488  0.00  0.00     0.184 A 
ATOM      3  N   UNL d   1      28.470 -16.717  -0.753  0.00  0.00    -0.111 NA
ATOM      4  N   UNL d   1      29.614 -16.697  -0.057  0.00  0.00    -0.023 NA
ATOM      5  N   UNL d   1      29.599 -15.660   0.728  0.00  0.00    -0.043 NA
ATOM      6  N   UNL d   1      28.400 -15.065   0.526  0.00  0.00    -0.223 N 
BRANCH   6   7
ATOM      7  C   UNL d   1      28.112 -13.932   1.382  0.00  0.00     0.051 C 
ATOM      8  C   UNL d   1      29.028 -12.795   0.973  0.00  0.00     0.040 C 
ATOM      9  C   UNL d   1      26.603 -13.695   1.262  0.00  0.00     0.040 C 
BRANCH   7  10
ATOM     10  C   UNL d   1      28.436 -14.263   2.806  0.00  0.00     0.028 C 
ATOM     11  C   UNL d   1      27.498 -13.861   3.904  0.00  0.00     0.007 C 
ENDBRANCH   7  10
ENDBRANCH   6   7
ENDBRANCH   1   2
BRANCH   1  12
ATOM     12  C   UNL d   1      26.327 -14.228  -2.302  0.00  0.00     0.049 C 
ATOM     13  C   UNL d   1      26.390 -12.895  -2.062  0.00  0.00     0.029 C 
ATOM     14  C   UNL d   1      26.076 -11.887  -3.078  0.00  0.00    -0.006 C 
ATOM     15  C   UNL d   1      26.133 -10.485  -2.903  0.00  0.00     0.053 C 
ATOM     16  C   UNL d   1      25.630 -12.369  -4.299  0.00  0.00     0.048 C 
ATOM     17  C   UNL d   1      25.875  -9.672  -4.026  0.00  0.00     0.105 C 
ATOM     18  C   UNL d   1      25.969 -10.247  -5.261  0.00  0.00     0.107 C 
ATOM     19  O   UNL d   1      24.770  -8.766  -4.201  0.00  0.00    -0.323 OA
ATOM     20  C   UNL d   1      25.532 -11.538  -5.380  0.00  0.00     0.070 C 
ATOM     21  O   UNL d   1      25.668  -9.398  -6.284  0.00  0.00    -0.323 OA
ATOM     22  C   UNL d   1      24.493  -8.910  -5.654  0.00  0.00     0.352 C 
ATOM     23  N   UNL d   1      25.422 -13.719  -4.524  0.00  0.00    -0.322 N 
ATOM     24  C   UNL d   1      25.941 -14.685  -3.703  0.00  0.00     0.254 C 
ATOM     25  H   UNL d   1      24.972 -13.994  -5.393  0.00  0.00     0.169 HD
ATOM     26  O   UNL d   1      25.911 -15.871  -4.002  0.00  0.00    -0.268 OA
ENDBRANCH   1  12
BRANCH   1  27
ATOM     27  N   UNL d   1      25.506 -16.549  -1.742  0.00  0.00    -0.056 N 
ATOM     28  C   UNL d   1      24.028 -16.287  -2.020  0.00  0.00     0.237 C 
ATOM     29  C   UNL d   1      23.258 -16.176  -0.725  0.00  0.00     0.042 C 
ATOM     30  C   UNL d   1      23.601 -17.394   0.213  0.00  0.00     0.088 C 
ATOM     31  C   UNL d   1      25.114 -17.768   0.380  0.00  0.00     0.042 C 
ATOM     32  C   UNL d   1      25.769 -17.832  -0.981  0.00  0.00     0.237 C 
ATOM     33  H   UNL d   1      25.905 -16.699  -2.680  0.00  0.00     0.281 HD
BRANCH  30  34
ATOM     34  C   UNL d   1      22.849 -18.545  -0.460  0.00  0.00     0.263 C 
ATOM     35  O   UNL d   1      23.296 -19.648  -0.566  0.00  0.00    -0.265 OA
BRANCH  34  36
ATOM     36  O   UNL d   1      21.551 -18.202  -0.725  0.00  0.00    -0.322 OA
BRANCH  36  37
ATOM     37  C   UNL d   1      20.719 -19.312  -1.065  0.00  0.00     0.174 C 
ATOM     38  C   UNL d   1      19.531 -19.335  -0.121  0.00  0.00     0.034 C 
ENDBRANCH  36  37
ENDBRANCH  34  36
ENDBRANCH  30  34
ENDBRANCH   1  27
TORSDOF 8
ENDMDL
MODEL 4
REMARK VINA RESULT:    -8.520      4.085      7.203
REMARK INTER + INTRA:         -13.816
REMARK INTER:                 -10.907
REMARK INTRA:                  -2.909
REMARK CONF_INDEPENDENT:        2.386
REMARK UNBOUND:                -2.909
REMARK  8 active torsions:
REMARK  status: ('A' for Active; 'I' for Inactive)
REMARK    1  A    between atoms: C_2  and  O_3 
REMARK    2  A    between atoms: O_3  and  C_4 
REMARK    3  A    between atoms: C_4  and  C_6 
REMARK    4  A    between atoms: C_10  and  N_9 
REMARK    5  A    between atoms: C_10  and  C_25 
REMARK    6  A    between atoms: C_10  and  C_11 
REMARK    7  A    between atoms: N_29  and  C_30 
REMARK    8  A    between atoms: C_30  and  C_33 
ROOT
ATOM      1  C   UNL d   1      26.911 -13.927  -2.185  0.00  0.00     0.299 C 
ENDROOT
BRANCH   1   2
ATOM      2  C   UNL d   1      26.625 -14.640  -3.593  0.00  0.00     0.184 A 
ATOM      3  N   UNL d   1      25.439 -14.934  -4.102  0.00  0.00    -0.111 NA
ATOM      4  N   UNL d   1      25.530 -15.460  -5.330  0.00  0.00    -0.023 NA
ATOM      5  N   UNL d   1      26.789 -15.575  -5.636  0.00  0.00    -0.043 NA
ATOM      6  N   UNL d   1      27.470 -15.144  -4.548  0.00  0.00    -0.223 N 
BRANCH   6   7
ATOM      7  C   UNL d   1      28.911 -15.282  -4.619  0.00  0.00     0.051 C 
ATOM      8  C   UNL d   1      29.518 -13.899  -4.479  0.00  0.00     0.040 C 
ATOM      9  C   UNL d   1      29.280 -16.321  -3.555  0.00  0.00     0.040 C 
BRANCH   7  10
ATOM     10  C   UNL d   1      29.317 -15.803  -5.962  0.00  0.00     0.028 C 
ATOM     11  C   UNL d   1      30.672 -16.414  -6.155  0.00  0.00     0.007 C 
ENDBRANCH   7  10
ENDBRANCH   6   7
ENDBRANCH   1   2
BRANCH   1  12
ATOM     12  C   UNL d   1      26.594 -12.403  -2.088  0.00  0.00     0.049 C 
ATOM     13  C   UNL d   1      26.220 -11.641  -3.145  0.00  0.00     0.029 C 
ATOM     14  C   UNL d   1      26.253 -10.177  -3.121  0.00  0.00    -0.006 C 
ATOM     15  C   UNL d   1      25.867  -9.319  -4.177  0.00  0.00     0.053 C 
ATOM     16  C   UNL d   1      26.767  -9.596  -1.972  0.00  0.00     0.048 C 
ATOM     17  C   UNL d   1      25.889  -7.929  -3.937  0.00  0.00     0.105 C 
ATOM     18  C   UNL d   1      25.901  -7.510  -2.638  0.00  0.00     0.107 C 
ATOM     19  O   UNL d   1      26.739  -6.957  -4.574  0.00  0.00    -0.323 OA
ATOM     20  C   UNL d   1      26.632  -8.254  -1.752  0.00  0.00     0.070 C 
ATOM     21  O   UNL d   1      25.960  -6.155  -2.501  0.00  0.00    -0.323 OA
ATOM     22  C   UNL d   1      27.001  -6.013  -3.456  0.00  0.00     0.352 C 
ATOM     23  N   UNL d   1      27.286 -10.353  -0.935  0.00  0.00    -0.322 N 
ATOM     24  C   UNL d   1      27.039 -11.694  -0.816  0.00  0.00     0.254 C 
ATOM     25  H   UNL d   1      27.765  -9.866  -0.182  0.00  0.00     0.169 HD
ATOM     26  O   UNL d   1      27.344 -12.320   0.191  0.00  0.00    -0.268 OA
ENDBRANCH   1  12
BRANCH   1  27
ATOM     27  N   UNL d   1      26.245 -14.627  -0.943  0.00  0.00    -0.056 N 
ATOM     28  C   UNL d   1      27.226 -15.286   0.024  0.00  0.00     0.237 C 
ATOM     29  C   UNL d   1      27.798 -16.547  -0.581  0.00  0.00     0.042 C 
ATOM     30  C   UNL d   1      26.636 -17.450  -1.142  0.00  0.00     0.088 C 
ATOM     31  C   UNL d   1      25.534 -16.748  -2.009  0.00  0.00     0.042 C 
ATOM     32  C   UNL d   1      25.060 -15.498  -1.303  0.00  0.00     0.237 C 
ATOM     33  H   UNL d   1      25.856 -13.846  -0.395  0.00  0.00     0.281 HD
BRANCH  30  34
ATOM     34  C   UNL d   1      26.013 -18.013   0.138  0.00  0.00     0.263 C 
ATOM     35  O   UNL d   1      26.658 -18.403   1.065  0.00  0.00    -0.265 OA
BRANCH  34  36
ATOM     36  O   UNL d   1      24.659 -17.814   0.160  0.00  0.00    -0.322 OA
BRANCH  36  37
ATOM     37  C   UNL d   1      23.907 -18.907  -0.370  0.00  0.00     0.174 C 
ATOM     38  C   UNL d   1      22.435 -18.541  -0.344  0.00  0.00     0.034 C 
ENDBRANCH  36  37
ENDBRANCH  34  36
ENDBRANCH  30  34
ENDBRANCH   1  27
TORSDOF 8
ENDMDL
MODEL 5
REMARK VINA RESULT:    -8.501      3.050      7.587
REMARK INTER + INTRA:         -14.357
REMARK INTER:                 -10.888
REMARK INTRA:                  -3.470
REMARK CONF_INDEPENDENT:        2.386
REMARK UNBOUND:                -3.470
REMARK  8 active torsions:
REMARK  status: ('A' for Active; 'I' for Inactive)
REMARK    1  A    between atoms: C_2  and  O_3 
REMARK    2  A    between atoms: O_3  and  C_4 
REMARK    3  A    between atoms: C_4  and  C_6 
REMARK    4  A    between atoms: C_10  and  N_9 
REMARK    5  A    between atoms: C_10  and  C_25 
REMARK    6  A    between atoms: C_10  and  C_11 
REMARK    7  A    between atoms: N_29  and  C_30 
REMARK    8  A    between atoms: C_30  and  C_33 
ROOT
ATOM      1  C   UNL d   1      26.507 -14.936  -0.350  0.00  0.00     0.299 C 
ENDROOT
BRANCH   1   2
ATOM      2  C   UNL d   1      26.429 -16.476   0.093  0.00  0.00     0.184 A 
ATOM      3  N   UNL d   1      27.407 -17.198   0.615  0.00  0.00    -0.111 NA
ATOM      4  N   UNL d   1      27.007 -18.432   0.946  0.00  0.00    -0.023 NA
ATOM      5  N   UNL d   1      25.762 -18.568   0.596  0.00  0.00    -0.043 NA
ATOM      6  N   UNL d   1      25.418 -17.400   0.004  0.00  0.00    -0.223 N 
BRANCH   6   7
ATOM      7  C   UNL d   1      24.088 -17.357  -0.570  0.00  0.00     0.051 C 
ATOM      8  C   UNL d   1      23.530 -15.965  -0.346  0.00  0.00     0.040 C 
ATOM      9  C   UNL d   1      24.248 -17.825  -2.019  0.00  0.00     0.040 C 
BRANCH   7  10
ATOM     10  C   UNL d   1      23.184 -18.310   0.148  0.00  0.00     0.028 C 
ATOM     11  C   UNL d   1      21.869 -18.701  -0.458  0.00  0.00     0.007 C 
ENDBRANCH   7  10
ENDBRANCH   6   7
ENDBRANCH   1   2
BRANCH   1  12
ATOM     12  C   UNL d   1      26.945 -13.911   0.740  0.00  0.00     0.049 C 
ATOM     13  C   UNL d   1      26.153 -12.910   1.198  0.00  0.00     0.029 C 
ATOM     14  C   UNL d   1      26.671 -11.768   1.954  0.00  0.00    -0.006 C 
ATOM     15  C   UNL d   1      25.905 -10.698   2.472  0.00  0.00     0.053 C 
ATOM     16  C   UNL d   1      28.047 -11.717   2.118  0.00  0.00     0.048 C 
ATOM     17  C   UNL d   1      26.572  -9.728   3.249  0.00  0.00     0.105 C 
ATOM     18  C   UNL d   1      27.788 -10.060   3.772  0.00  0.00     0.107 C 
ATOM     19  O   UNL d   1      26.756  -8.338   2.923  0.00  0.00    -0.323 OA
ATOM     20  C   UNL d   1      28.609 -10.831   2.994  0.00  0.00     0.070 C 
ATOM     21  O   UNL d   1      28.376  -9.052   4.476  0.00  0.00    -0.323 OA
ATOM     22  C   UNL d   1      28.110  -8.078   3.478  0.00  0.00     0.352 C 
ATOM     23  N   UNL d   1      28.890 -12.651   1.541  0.00  0.00    -0.322 N 
ATOM     24  C   UNL d   1      28.433 -13.848   1.058  0.00  0.00     0.254 C 
ATOM     25  H   UNL d   1      29.892 -12.484   1.590  0.00  0.00     0.169 HD
ATOM     26  O   UNL d   1      29.197 -14.741   0.718  0.00  0.00    -0.268 OA
ENDBRANCH   1  12
BRANCH   1  27
ATOM     27  N   UNL d   1      27.376 -14.661  -1.632  0.00  0.00    -0.056 N 
ATOM     28  C   UNL d   1      27.263 -13.245  -2.191  0.00  0.00     0.237 C 
ATOM     29  C   UNL d   1      25.923 -13.047  -2.862  0.00  0.00     0.042 C 
ATOM     30  C   UNL d   1      25.641 -14.232  -3.861  0.00  0.00     0.088 C 
ATOM     31  C   UNL d   1      25.906 -15.687  -3.343  0.00  0.00     0.042 C 
ATOM     32  C   UNL d   1      27.265 -15.746  -2.683  0.00  0.00     0.237 C 
ATOM     33  H   UNL d   1      28.347 -14.708  -1.291  0.00  0.00     0.281 HD
BRANCH  30  34
ATOM     34  C   UNL d   1      26.584 -13.911  -5.023  0.00  0.00     0.263 C 
ATOM     35  O   UNL d   1      27.008 -12.815  -5.240  0.00  0.00    -0.265 OA
BRANCH  34  36
ATOM     36  O   UNL d   1      27.031 -15.054  -5.629  0.00  0.00    -0.322 OA
BRANCH  36  37
ATOM     37  C   UNL d   1      28.247 -14.882  -6.360  0.00  0.00     0.174 C 
ATOM     38  C   UNL d   1      29.361 -15.600  -5.622  0.00  0.00     0.034 C 
ENDBRANCH  36  37
ENDBRANCH  34  36
ENDBRANCH  30  34
ENDBRANCH   1  27
TORSDOF 8
ENDMDL
MODEL 6
REMARK VINA RESULT:    -8.467      1.540      1.903
REMARK INTER + INTRA:         -14.553
REMARK INTER:                 -10.853
REMARK INTRA:                  -3.700
REMARK CONF_INDEPENDENT:        2.386
REMARK UNBOUND:                -3.700
REMARK  8 active torsions:
REMARK  status: ('A' for Active; 'I' for Inactive)
REMARK    1  A    between atoms: C_2  and  O_3 
REMARK    2  A    between atoms: O_3  and  C_4 
REMARK    3  A    between atoms: C_4  and  C_6 
REMARK    4  A    between atoms: C_10  and  N_9 
REMARK    5  A    between atoms: C_10  and  C_25 
REMARK    6  A    between atoms: C_10  and  C_11 
REMARK    7  A    between atoms: N_29  and  C_30 
REMARK    8  A    between atoms: C_30  and  C_33 
ROOT
ATOM      1  C   UNL d   1      28.395 -15.091  -0.584  0.00  0.00     0.299 C 
ENDROOT
BRANCH   1   2
ATOM      2  C   UNL d   1      29.566 -15.083  -1.682  0.00  0.00     0.184 A 
ATOM      3  N   UNL d   1      30.851 -15.310  -1.465  0.00  0.00    -0.111 NA
ATOM      4  N   UNL d   1      31.565 -15.305  -2.598  0.00  0.00    -0.023 NA
ATOM      5  N   UNL d   1      30.768 -15.018  -3.585  0.00  0.00    -0.043 NA
ATOM      6  N   UNL d   1      29.553 -14.807  -3.025  0.00  0.00    -0.223 N 
BRANCH   6   7
ATOM      7  C   UNL d   1      28.515 -14.363  -3.933  0.00  0.00     0.051 C 
ATOM      8  C   UNL d   1      27.834 -13.160  -3.310  0.00  0.00     0.040 C 
ATOM      9  C   UNL d   1      29.208 -14.157  -5.284  0.00  0.00     0.040 C 
BRANCH   7  10
ATOM     10  C   UNL d   1      27.471 -15.426  -4.085  0.00  0.00     0.028 C 
ATOM     11  C   UNL d   1      26.060 -15.051  -4.429  0.00  0.00     0.007 C 
ENDBRANCH   7  10
ENDBRANCH   6   7
ENDBRANCH   1   2
BRANCH   1  12
ATOM     12  C   UNL d   1      27.238 -16.114  -0.795  0.00  0.00     0.049 C 
ATOM     13  C   UNL d   1      25.957 -15.761  -1.065  0.00  0.00     0.029 C 
ATOM     14  C   UNL d   1      24.830 -16.687  -0.927  0.00  0.00    -0.006 C 
ATOM     15  C   UNL d   1      23.475 -16.394  -1.203  0.00  0.00     0.053 C 
ATOM     16  C   UNL d   1      25.131 -17.944  -0.425  0.00  0.00     0.048 C 
ATOM     17  C   UNL d   1      22.539 -17.444  -1.090  0.00  0.00     0.105 C 
ATOM     18  C   UNL d   1      23.016 -18.723  -1.108  0.00  0.00     0.107 C 
ATOM     19  O   UNL d   1      21.458 -17.539  -0.145  0.00  0.00    -0.323 OA
ATOM     20  C   UNL d   1      24.207 -18.950  -0.473  0.00  0.00     0.070 C 
ATOM     21  O   UNL d   1      22.047 -19.670  -0.957  0.00  0.00    -0.323 OA
ATOM     22  C   UNL d   1      21.433 -18.999   0.133  0.00  0.00     0.352 C 
ATOM     23  N   UNL d   1      26.407 -18.283  -0.009  0.00  0.00    -0.322 N 
ATOM     24  C   UNL d   1      27.508 -17.548  -0.358  0.00  0.00     0.254 C 
ATOM     25  H   UNL d   1      26.533 -19.172   0.469  0.00  0.00     0.169 HD
ATOM     26  O   UNL d   1      28.645 -17.947  -0.145  0.00  0.00    -0.268 OA
ENDBRANCH   1  12
BRANCH   1  27
ATOM     27  N   UNL d   1      28.886 -15.233   0.904  0.00  0.00    -0.056 N 
ATOM     28  C   UNL d   1      27.780 -15.150   1.954  0.00  0.00     0.237 C 
ATOM     29  C   UNL d   1      27.282 -13.729   2.086  0.00  0.00     0.042 C 
ATOM     30  C   UNL d   1      28.500 -12.745   2.255  0.00  0.00     0.088 C 
ATOM     31  C   UNL d   1      29.712 -12.926   1.277  0.00  0.00     0.042 C 
ATOM     32  C   UNL d   1      30.101 -14.387   1.223  0.00  0.00     0.237 C 
ATOM     33  H   UNL d   1      29.207 -16.209   0.969  0.00  0.00     0.281 HD
BRANCH  30  34
ATOM     34  C   UNL d   1      28.944 -13.020   3.694  0.00  0.00     0.263 C 
ATOM     35  O   UNL d   1      30.089 -13.131   4.018  0.00  0.00    -0.265 OA
BRANCH  34  36
ATOM     36  O   UNL d   1      27.895 -12.911   4.566  0.00  0.00    -0.322 OA
BRANCH  36  37
ATOM     37  C   UNL d   1      28.078 -13.640   5.782  0.00  0.00     0.174 C 
ATOM     38  C   UNL d   1      28.432 -15.074   5.438  0.00  0.00     0.034 C 
ENDBRANCH  36  37
ENDBRANCH  34  36
ENDBRANCH  30  34
ENDBRANCH   1  27
TORSDOF 8
ENDMDL
MODEL 7
REMARK VINA RESULT:    -8.454      3.540      7.185
REMARK INTER + INTRA:         -13.688
REMARK INTER:                 -10.840
REMARK INTRA:                  -2.848
REMARK CONF_INDEPENDENT:        2.386
REMARK UNBOUND:                -2.848
REMARK  8 active torsions:
REMARK  status: ('A' for Active; 'I' for Inactive)
REMARK    1  A    between atoms: C_2  and  O_3 
REMARK    2  A    between atoms: O_3  and  C_4 
REMARK    3  A    between atoms: C_4  and  C_6 
REMARK    4  A    between atoms: C_10  and  N_9 
REMARK    5  A    between atoms: C_10  and  C_25 
REMARK    6  A    between atoms: C_10  and  C_11 
REMARK    7  A    between atoms: N_29  and  C_30 
REMARK    8  A    between atoms: C_30  and  C_33 
ROOT
ATOM      1  C   UNL d   1      25.740 -15.066  -1.571  0.00  0.00     0.299 C 
ENDROOT
BRANCH   1   2
ATOM      2  C   UNL d   1      27.052 -15.853  -1.090  0.00  0.00     0.184 A 
ATOM      3  N   UNL d   1      27.191 -16.544   0.030  0.00  0.00    -0.111 NA
ATOM      4  N   UNL d   1      28.383 -17.147   0.110  0.00  0.00    -0.023 NA
ATOM      5  N   UNL d   1      29.081 -16.819  -0.937  0.00  0.00    -0.043 NA
ATOM      6  N   UNL d   1      28.302 -15.966  -1.643  0.00  0.00    -0.223 N 
BRANCH   6   7
ATOM      7  C   UNL d   1      28.920 -15.378  -2.814  0.00  0.00     0.051 C 
ATOM      8  C   UNL d   1      28.996 -13.879  -2.597  0.00  0.00     0.040 C 
ATOM      9  C   UNL d   1      30.243 -16.127  -3.003  0.00  0.00     0.040 C 
BRANCH   7  10
ATOM     10  C   UNL d   1      28.063 -15.601  -4.021  0.00  0.00     0.028 C 
ATOM     11  C   UNL d   1      28.554 -15.199  -5.379  0.00  0.00     0.007 C 
ENDBRANCH   7  10
ENDBRANCH   6   7
ENDBRANCH   1   2
BRANCH   1  12
ATOM     12  C   UNL d   1      25.954 -13.867  -2.545  0.00  0.00     0.049 C 
ATOM     13  C   UNL d   1      26.196 -12.596  -2.137  0.00  0.00     0.029 C 
ATOM     14  C   UNL d   1      26.061 -11.437  -3.023  0.00  0.00    -0.006 C 
ATOM     15  C   UNL d   1      26.309 -10.090  -2.672  0.00  0.00     0.053 C 
ATOM     16  C   UNL d   1      25.591 -11.697  -4.302  0.00  0.00     0.048 C 
ATOM     17  C   UNL d   1      26.205  -9.117  -3.688  0.00  0.00     0.105 C 
ATOM     18  C   UNL d   1      26.258  -9.543  -4.983  0.00  0.00     0.107 C 
ATOM     19  O   UNL d   1      25.245  -8.047  -3.763  0.00  0.00    -0.323 OA
ATOM     20  C   UNL d   1      25.647 -10.734  -5.270  0.00  0.00     0.070 C 
ATOM     21  O   UNL d   1      26.113  -8.542  -5.896  0.00  0.00    -0.323 OA
ATOM     22  C   UNL d   1      24.999  -7.970  -5.227  0.00  0.00     0.352 C 
ATOM     23  N   UNL d   1      25.203 -12.965  -4.698  0.00  0.00    -0.322 N 
ATOM     24  C   UNL d   1      25.553 -14.088  -3.998  0.00  0.00     0.254 C 
ATOM     25  H   UNL d   1      24.747 -13.064  -5.601  0.00  0.00     0.169 HD
ATOM     26  O   UNL d   1      25.367 -15.212  -4.444  0.00  0.00    -0.268 OA
ENDBRANCH   1  12
BRANCH   1  27
ATOM     27  N   UNL d   1      24.611 -15.975  -2.184  0.00  0.00    -0.056 N 
ATOM     28  C   UNL d   1      23.208 -15.706  -1.645  0.00  0.00     0.237 C 
ATOM     29  C   UNL d   1      23.077 -16.222  -0.231  0.00  0.00     0.042 C 
ATOM     30  C   UNL d   1      23.600 -17.706  -0.149  0.00  0.00     0.088 C 
ATOM     31  C   UNL d   1      24.970 -18.025  -0.839  0.00  0.00     0.042 C 
ATOM     32  C   UNL d   1      24.978 -17.443  -2.234  0.00  0.00     0.237 C 
ATOM     33  H   UNL d   1      24.553 -15.672  -3.167  0.00  0.00     0.281 HD
BRANCH  30  34
ATOM     34  C   UNL d   1      22.476 -18.486  -0.835  0.00  0.00     0.263 C 
ATOM     35  O   UNL d   1      22.604 -19.602  -1.241  0.00  0.00    -0.265 OA
BRANCH  34  36
ATOM     36  O   UNL d   1      21.280 -17.827  -0.732  0.00  0.00    -0.322 OA
BRANCH  36  37
ATOM     37  C   UNL d   1      20.140 -18.673  -0.895  0.00  0.00     0.174 C 
ATOM     38  C   UNL d   1      20.143 -19.709   0.213  0.00  0.00     0.034 C 
ENDBRANCH  36  37
ENDBRANCH  34  36
ENDBRANCH  30  34
ENDBRANCH   1  27
TORSDOF 8
ENDMDL
MODEL 8
REMARK VINA RESULT:    -8.339      1.526      2.285
REMARK INTER + INTRA:         -13.487
REMARK INTER:                 -10.726
REMARK INTRA:                  -2.762
REMARK CONF_INDEPENDENT:        2.386
REMARK UNBOUND:                -2.762
REMARK  8 active torsions:
REMARK  status: ('A' for Active; 'I' for Inactive)
REMARK    1  A    between atoms: C_2  and  O_3 
REMARK    2  A    between atoms: O_3  and  C_4 
REMARK    3  A    between atoms: C_4  and  C_6 
REMARK    4  A    between atoms: C_10  and  N_9 
REMARK    5  A    between atoms: C_10  and  C_25 
REMARK    6  A    between atoms: C_10  and  C_11 
REMARK    7  A    between atoms: N_29  and  C_30 
REMARK    8  A    between atoms: C_30  and  C_33 
ROOT
ATOM      1  C   UNL d   1      29.024 -15.852  -0.924  0.00  0.00     0.299 C 
ENDROOT
BRANCH   1   2
ATOM      2  C   UNL d   1      29.742 -16.764  -2.031  0.00  0.00     0.184 A 
ATOM      3  N   UNL d   1      30.374 -17.908  -1.823  0.00  0.00    -0.111 NA
ATOM      4  N   UNL d   1      30.803 -18.466  -2.962  0.00  0.00    -0.023 NA
ATOM      5  N   UNL d   1      30.509 -17.669  -3.946  0.00  0.00    -0.043 NA
ATOM      6  N   UNL d   1      29.925 -16.587  -3.379  0.00  0.00    -0.223 N 
BRANCH   6   7
ATOM      7  C   UNL d   1      29.603 -15.503  -4.285  0.00  0.00     0.051 C 
ATOM      8  C   UNL d   1      28.119 -15.574  -4.589  0.00  0.00     0.040 C 
ATOM      9  C   UNL d   1      30.122 -14.231  -3.608  0.00  0.00     0.040 C 
BRANCH   7  10
ATOM     10  C   UNL d   1      30.323 -15.684  -5.586  0.00  0.00     0.028 C 
ATOM     11  C   UNL d   1      29.657 -15.306  -6.874  0.00  0.00     0.007 C 
ENDBRANCH   7  10
ENDBRANCH   6   7
ENDBRANCH   1   2
BRANCH   1  12
ATOM     12  C   UNL d   1      27.482 -16.019  -0.764  0.00  0.00     0.049 C 
ATOM     13  C   UNL d   1      26.895 -17.090  -0.174  0.00  0.00     0.029 C 
ATOM     14  C   UNL d   1      25.472 -17.401  -0.325  0.00  0.00    -0.006 C 
ATOM     15  C   UNL d   1      24.791 -18.488   0.269  0.00  0.00     0.053 C 
ATOM     16  C   UNL d   1      24.753 -16.576  -1.178  0.00  0.00     0.048 C 
ATOM     17  C   UNL d   1      23.396 -18.576   0.074  0.00  0.00     0.105 C 
ATOM     18  C   UNL d   1      22.739 -17.448  -0.325  0.00  0.00     0.107 C 
ATOM     19  O   UNL d   1      22.688 -19.605  -0.641  0.00  0.00    -0.323 OA
ATOM     20  C   UNL d   1      23.388 -16.632  -1.211  0.00  0.00     0.070 C 
ATOM     21  O   UNL d   1      21.404 -17.634  -0.524  0.00  0.00    -0.323 OA
ATOM     22  C   UNL d   1      21.589 -18.827  -1.270  0.00  0.00     0.352 C 
ATOM     23  N   UNL d   1      25.358 -15.562  -1.901  0.00  0.00    -0.322 N 
ATOM     24  C   UNL d   1      26.606 -15.090  -1.594  0.00  0.00     0.254 C 
ATOM     25  H   UNL d   1      24.804 -15.081  -2.604  0.00  0.00     0.169 HD
ATOM     26  O   UNL d   1      27.061 -14.079  -2.113  0.00  0.00    -0.268 OA
ENDBRANCH   1  12
BRANCH   1  27
ATOM     27  N   UNL d   1      29.659 -15.936   0.513  0.00  0.00    -0.056 N 
ATOM     28  C   UNL d   1      29.232 -14.824   1.469  0.00  0.00     0.237 C 
ATOM     29  C   UNL d   1      29.885 -13.517   1.083  0.00  0.00     0.042 C 
ATOM     30  C   UNL d   1      31.433 -13.727   0.881  0.00  0.00     0.088 C 
ATOM     31  C   UNL d   1      31.885 -14.962   0.028  0.00  0.00     0.042 C 
ATOM     32  C   UNL d   1      31.151 -16.196   0.501  0.00  0.00     0.237 C 
ATOM     33  H   UNL d   1      29.237 -16.781   0.924  0.00  0.00     0.281 HD
BRANCH  30  34
ATOM     34  C   UNL d   1      31.933 -13.874   2.320  0.00  0.00     0.263 C 
ATOM     35  O   UNL d   1      31.602 -13.145   3.207  0.00  0.00    -0.265 OA
BRANCH  34  36
ATOM     36  O   UNL d   1      32.619 -15.047   2.489  0.00  0.00    -0.322 OA
BRANCH  36  37
ATOM     37  C   UNL d   1      34.035 -14.879   2.573  0.00  0.00     0.174 C 
ATOM     38  C   UNL d   1      34.677 -16.245   2.724  0.00  0.00     0.034 C 
ENDBRANCH  36  37
ENDBRANCH  34  36
ENDBRANCH  30  34
ENDBRANCH   1  27
TORSDOF 8
ENDMDL
MODEL 9
REMARK VINA RESULT:    -7.808      2.621      7.130
REMARK INTER + INTRA:         -13.370
REMARK INTER:                 -10.194
REMARK INTRA:                  -3.176
REMARK CONF_INDEPENDENT:        2.386
REMARK UNBOUND:                -3.176
REMARK  8 active torsions:
REMARK  status: ('A' for Active; 'I' for Inactive)
REMARK    1  A    between atoms: C_2  and  O_3 
REMARK    2  A    between atoms: O_3  and  C_4 
REMARK    3  A    between atoms: C_4  and  C_6 
REMARK    4  A    between atoms: C_10  and  N_9 
REMARK    5  A    between atoms: C_10  and  C_25 
REMARK    6  A    between atoms: C_10  and  C_11 
REMARK    7  A    between atoms: N_29  and  C_30 
REMARK    8  A    between atoms: C_30  and  C_33 
ROOT
ATOM      1  C   UNL d   1      27.741 -15.983  -2.282  0.00  0.00     0.299 C 
ENDROOT
BRANCH   1   2
ATOM      2  C   UNL d   1      27.555 -15.668  -3.844  0.00  0.00     0.184 A 
ATOM      3  N   UNL d   1      26.412 -15.457  -4.475  0.00  0.00    -0.111 NA
ATOM      4  N   UNL d   1      26.594 -15.146  -5.765  0.00  0.00    -0.023 NA
ATOM      5  N   UNL d   1      27.867 -15.201  -6.025  0.00  0.00    -0.043 NA
ATOM      6  N   UNL d   1      28.459 -15.592  -4.872  0.00  0.00    -0.223 N 
BRANCH   6   7
ATOM      7  C   UNL d   1      29.887 -15.827  -4.952  0.00  0.00     0.051 C 
ATOM      8  C   UNL d   1      30.587 -14.680  -4.248  0.00  0.00     0.040 C 
ATOM      9  C   UNL d   1      30.107 -17.235  -4.389  0.00  0.00     0.040 C 
BRANCH   7  10
ATOM     10  C   UNL d   1      30.337 -15.803  -6.380  0.00  0.00     0.028 C 
ATOM     11  C   UNL d   1      30.902 -17.040  -7.012  0.00  0.00     0.007 C 
ENDBRANCH   7  10
ENDBRANCH   6   7
ENDBRANCH   1   2
BRANCH   1  12
ATOM     12  C   UNL d   1      29.026 -15.425  -1.598  0.00  0.00     0.049 C 
ATOM     13  C   UNL d   1      30.095 -16.189  -1.260  0.00  0.00     0.029 C 
ATOM     14  C   UNL d   1      31.134 -15.737  -0.332  0.00  0.00    -0.006 C 
ATOM     15  C   UNL d   1      32.279 -16.472   0.055  0.00  0.00     0.053 C 
ATOM     16  C   UNL d   1      30.932 -14.498   0.256  0.00  0.00     0.048 C 
ATOM     17  C   UNL d   1      33.215 -15.835   0.897  0.00  0.00     0.105 C 
ATOM     18  C   UNL d   1      33.174 -14.473   0.976  0.00  0.00     0.107 C 
ATOM     19  O   UNL d   1      33.551 -16.203   2.247  0.00  0.00    -0.323 OA
ATOM     20  C   UNL d   1      31.938 -13.886   0.950  0.00  0.00     0.070 C 
ATOM     21  O   UNL d   1      34.088 -13.947   1.839  0.00  0.00    -0.323 OA
ATOM     22  C   UNL d   1      33.781 -14.874   2.870  0.00  0.00     0.352 C 
ATOM     23  N   UNL d   1      29.781 -13.760   0.037  0.00  0.00    -0.322 N 
ATOM     24  C   UNL d   1      28.929 -14.027  -1.001  0.00  0.00     0.254 C 
ATOM     25  H   UNL d   1      29.636 -12.925   0.597  0.00  0.00     0.169 HD
ATOM     26  O   UNL d   1      28.018 -13.267  -1.300  0.00  0.00    -0.268 OA
ENDBRANCH   1  12
BRANCH   1  27
ATOM     27  N   UNL d   1      26.516 -15.587  -1.377  0.00  0.00    -0.056 N 
ATOM     28  C   UNL d   1      26.478 -16.272  -0.013  0.00  0.00     0.237 C 
ATOM     29  C   UNL d   1      26.100 -17.727  -0.163  0.00  0.00     0.042 C 
ATOM     30  C   UNL d   1      24.815 -17.860  -1.063  0.00  0.00     0.088 C 
ATOM     31  C   UNL d   1      24.780 -17.034  -2.394  0.00  0.00     0.042 C 
ATOM     32  C   UNL d   1      25.191 -15.607  -2.111  0.00  0.00     0.237 C 
ATOM     33  H   UNL d   1      26.686 -14.598  -1.145  0.00  0.00     0.281 HD
BRANCH  30  34
ATOM     34  C   UNL d   1      23.707 -17.380  -0.121  0.00  0.00     0.263 C 
ATOM     35  O   UNL d   1      23.253 -16.275  -0.152  0.00  0.00    -0.265 OA
BRANCH  34  36
ATOM     36  O   UNL d   1      23.177 -18.422   0.592  0.00  0.00    -0.322 OA
BRANCH  36  37
ATOM     37  C   UNL d   1      21.784 -18.633   0.353  0.00  0.00     0.174 C 
ATOM     38  C   UNL d   1      21.583 -18.913  -1.124  0.00  0.00     0.034 C 
ENDBRANCH  36  37
ENDBRANCH  34  36
ENDBRANCH  30  34
ENDBRANCH   1  27
TORSDOF 8
ENDMDL
