MODEL 1
REMARK VINA RESULT:    -8.187      0.000      0.000
REMARK INTER + INTRA:         -10.142
REMARK INTER:                  -9.082
REMARK INTRA:                  -1.061
REMARK CONF_INDEPENDENT:        0.895
REMARK UNBOUND:                -1.061
REMARK  3 active torsions:
REMARK  status: ('A' for Active; 'I' for Inactive)
REMARK    1  A    between atoms: C_5  and  C_6 
REMARK       I    between atoms: C_6  and  N_7 
REMARK    2  A    between atoms: C_10  and  N_11 
REMARK       I    between atoms: N_11  and  C_12 
REMARK    3  A    between atoms: C_12  and  C_14 
ROOT
ATOM      1  C   UNL d   1      26.655 -12.899  -0.676  0.00  0.00     0.050 C 
ATOM      2  C   UNL d   1      27.096 -13.339   0.686  0.00  0.00    -0.035 C 
ATOM      3  C   UNL d   1      26.769 -12.451   1.714  0.00  0.00     0.010 C 
ATOM      4  C   UNL d   1      27.030 -12.750   3.042  0.00  0.00     0.017 C 
ATOM      5  C   UNL d   1      27.644 -13.951   3.387  0.00  0.00     0.034 C 
ATOM      6  C   UNL d   1      28.060 -14.825   2.358  0.00  0.00     0.047 C 
ATOM      7  C   UNL d   1      27.840 -14.499   0.993  0.00  0.00     0.042 C 
ENDROOT
BRANCH   7   8
ATOM      8  N   UNL d   1      28.465 -15.321   0.010  0.00  0.00    -0.322 N 
ATOM      9  C   UNL d   1      28.180 -16.633  -0.337  0.00  0.00     0.257 C 
ATOM     10  O   UNL d   1      29.097 -17.453  -0.387  0.00  0.00    -0.267 OA
ATOM     11  H   UNL d   1      29.306 -14.959  -0.429  0.00  0.00     0.169 HD
BRANCH   9  12
ATOM     12  C   UNL d   1      26.764 -17.089  -0.642  0.00  0.00     0.054 C 
ATOM     13  C   UNL d   1      26.177 -17.969   0.311  0.00  0.00     0.020 C 
ATOM     14  C   UNL d   1      24.791 -18.200   0.329  0.00  0.00     0.025 C 
ATOM     15  C   UNL d   1      23.968 -17.511  -0.555  0.00  0.00     0.035 C 
ATOM     16 CL   UNL d   1      22.263 -17.729  -0.520  0.00  0.00    -0.084 Cl
ATOM     17  C   UNL d   1      24.519 -16.640  -1.487  0.00  0.00     0.048 C 
ATOM     18  C   UNL d   1      25.913 -16.510  -1.612  0.00  0.00     0.051 C 
ATOM     19 CL   UNL d   1      26.401 -15.508  -2.934  0.00  0.00    -0.083 Cl
ENDBRANCH   9  12
ENDBRANCH   7   8
BRANCH   5  20
ATOM     20  C   UNL d   1      27.893 -14.294   4.827  0.00  0.00     0.249 C 
ATOM     21  N   UNL d   1      28.717 -15.366   5.101  0.00  0.00    -0.366 N 
ATOM     22  H   UNL d   1      29.173 -15.950   4.421  0.00  0.00     0.159 HD
ATOM     23  H   UNL d   1      28.904 -15.571   6.073  0.00  0.00     0.159 HD
ATOM     24  O   UNL d   1      27.405 -13.651   5.734  0.00  0.00    -0.268 OA
ENDBRANCH   5  20
TORSDOF 3
ENDMDL
MODEL 2
REMARK VINA RESULT:    -8.134      4.262      6.354
REMARK INTER + INTRA:          -9.650
REMARK INTER:                  -9.029
REMARK INTRA:                  -0.620
REMARK CONF_INDEPENDENT:        0.895
REMARK UNBOUND:                -0.620
REMARK  3 active torsions:
REMARK  status: ('A' for Active; 'I' for Inactive)
REMARK    1  A    between atoms: C_5  and  C_6 
REMARK       I    between atoms: C_6  and  N_7 
REMARK    2  A    between atoms: C_10  and  N_11 
REMARK       I    between atoms: N_11  and  C_12 
REMARK    3  A    between atoms: C_12  and  C_14 
ROOT
ATOM      1  C   UNL d   1      27.352 -17.182  -0.548  0.00  0.00     0.050 C 
ATOM      2  C   UNL d   1      25.881 -17.412  -0.714  0.00  0.00    -0.035 C 
ATOM      3  C   UNL d   1      25.330 -18.315   0.197  0.00  0.00     0.010 C 
ATOM      4  C   UNL d   1      23.969 -18.572   0.233  0.00  0.00     0.017 C 
ATOM      5  C   UNL d   1      23.108 -17.939  -0.659  0.00  0.00     0.034 C 
ATOM      6  C   UNL d   1      23.654 -17.087  -1.645  0.00  0.00     0.047 C 
ATOM      7  C   UNL d   1      25.054 -16.861  -1.717  0.00  0.00     0.042 C 
ENDROOT
BRANCH   7   8
ATOM      8  N   UNL d   1      25.551 -16.160  -2.855  0.00  0.00    -0.322 N 
ATOM      9  C   UNL d   1      25.494 -14.803  -3.136  0.00  0.00     0.257 C 
ATOM     10  O   UNL d   1      25.071 -14.435  -4.233  0.00  0.00    -0.267 OA
ATOM     11  H   UNL d   1      25.896 -16.720  -3.629  0.00  0.00     0.169 HD
BRANCH   9  12
ATOM     12  C   UNL d   1      25.922 -13.759  -2.121  0.00  0.00     0.054 C 
ATOM     13  C   UNL d   1      26.280 -14.253  -0.835  0.00  0.00     0.020 C 
ATOM     14  C   UNL d   1      26.995 -13.457   0.076  0.00  0.00     0.025 C 
ATOM     15  C   UNL d   1      27.420 -12.189  -0.305  0.00  0.00     0.035 C 
ATOM     16 CL   UNL d   1      28.346 -11.214   0.766  0.00  0.00    -0.084 Cl
ATOM     17  C   UNL d   1      27.090 -11.691  -1.559  0.00  0.00     0.048 C 
ATOM     18  C   UNL d   1      26.253 -12.417  -2.424  0.00  0.00     0.051 C 
ATOM     19 CL   UNL d   1      25.826 -11.558  -3.862  0.00  0.00    -0.083 Cl
ENDBRANCH   9  12
ENDBRANCH   7   8
BRANCH   5  20
ATOM     20  C   UNL d   1      21.629 -18.187  -0.597  0.00  0.00     0.249 C 
ATOM     21  N   UNL d   1      21.177 -19.188   0.237  0.00  0.00    -0.366 N 
ATOM     22  H   UNL d   1      21.749 -19.778   0.817  0.00  0.00     0.159 HD
ATOM     23  H   UNL d   1      20.177 -19.328   0.295  0.00  0.00     0.159 HD
ATOM     24  O   UNL d   1      20.840 -17.528  -1.244  0.00  0.00    -0.268 OA
ENDBRANCH   5  20
TORSDOF 3
ENDMDL
MODEL 3
REMARK VINA RESULT:    -7.912      3.467      6.208
REMARK INTER + INTRA:          -9.792
REMARK INTER:                  -8.807
REMARK INTRA:                  -0.986
REMARK CONF_INDEPENDENT:        0.895
REMARK UNBOUND:                -0.986
REMARK  3 active torsions:
REMARK  status: ('A' for Active; 'I' for Inactive)
REMARK    1  A    between atoms: C_5  and  C_6 
REMARK       I    between atoms: C_6  and  N_7 
REMARK    2  A    between atoms: C_10  and  N_11 
REMARK       I    between atoms: N_11  and  C_12 
REMARK    3  A    between atoms: C_12  and  C_14 
ROOT
ATOM      1  C   UNL d   1      30.854 -18.079  -1.599  0.00  0.00     0.050 C 
ATOM      2  C   UNL d   1      30.227 -17.224  -2.658  0.00  0.00    -0.035 C 
ATOM      3  C   UNL d   1      30.740 -17.425  -3.942  0.00  0.00     0.010 C 
ATOM      4  C   UNL d   1      30.210 -16.776  -5.045  0.00  0.00     0.017 C 
ATOM      5  C   UNL d   1      29.149 -15.887  -4.898  0.00  0.00     0.034 C 
ATOM      6  C   UNL d   1      28.671 -15.604  -3.599  0.00  0.00     0.047 C 
ATOM      7  C   UNL d   1      29.246 -16.229  -2.460  0.00  0.00     0.042 C 
ENDROOT
BRANCH   7   8
ATOM      8  N   UNL d   1      28.857 -15.745  -1.176  0.00  0.00    -0.322 N 
ATOM      9  C   UNL d   1      27.593 -15.402  -0.721  0.00  0.00     0.257 C 
ATOM     10  O   UNL d   1      27.428 -14.312  -0.172  0.00  0.00    -0.267 OA
ATOM     11  H   UNL d   1      29.601 -15.504  -0.528  0.00  0.00     0.169 HD
BRANCH   9  12
ATOM     12  C   UNL d   1      26.402 -16.327  -0.897  0.00  0.00     0.054 C 
ATOM     13  C   UNL d   1      26.319 -17.414   0.019  0.00  0.00     0.020 C 
ATOM     14  C   UNL d   1      25.125 -18.138   0.181  0.00  0.00     0.025 C 
ATOM     15  C   UNL d   1      23.986 -17.749  -0.515  0.00  0.00     0.035 C 
ATOM     16 CL   UNL d   1      22.496 -18.578  -0.294  0.00  0.00    -0.084 Cl
ATOM     17  C   UNL d   1      24.042 -16.685  -1.406  0.00  0.00     0.048 C 
ATOM     18  C   UNL d   1      25.262 -16.046  -1.687  0.00  0.00     0.051 C 
ATOM     19 CL   UNL d   1      25.154 -14.862  -2.942  0.00  0.00    -0.083 Cl
ENDBRANCH   9  12
ENDBRANCH   7   8
BRANCH   5  20
ATOM     20  C   UNL d   1      28.548 -15.211  -6.097  0.00  0.00     0.249 C 
ATOM     21  N   UNL d   1      29.346 -15.046  -7.211  0.00  0.00    -0.366 N 
ATOM     22  H   UNL d   1      30.304 -15.338  -7.300  0.00  0.00     0.159 HD
ATOM     23  H   UNL d   1      28.924 -14.618  -8.024  0.00  0.00     0.159 HD
ATOM     24  O   UNL d   1      27.396 -14.828  -6.108  0.00  0.00    -0.268 OA
ENDBRANCH   5  20
TORSDOF 3
ENDMDL
MODEL 4
REMARK VINA RESULT:    -7.784      4.267      6.262
REMARK INTER + INTRA:          -9.611
REMARK INTER:                  -8.679
REMARK INTRA:                  -0.932
REMARK CONF_INDEPENDENT:        0.895
REMARK UNBOUND:                -0.932
REMARK  3 active torsions:
REMARK  status: ('A' for Active; 'I' for Inactive)
REMARK    1  A    between atoms: C_5  and  C_6 
REMARK       I    between atoms: C_6  and  N_7 
REMARK    2  A    between atoms: C_10  and  N_11 
REMARK       I    between atoms: N_11  and  C_12 
REMARK    3  A    between atoms: C_12  and  C_14 
ROOT
ATOM      1  C   UNL d   1      27.053 -17.018  -0.488  0.00  0.00     0.050 C 
ATOM      2  C   UNL d   1      25.615 -17.411  -0.636  0.00  0.00    -0.035 C 
ATOM      3  C   UNL d   1      25.120 -18.199   0.405  0.00  0.00     0.010 C 
ATOM      4  C   UNL d   1      23.788 -18.575   0.462  0.00  0.00     0.017 C 
ATOM      5  C   UNL d   1      22.901 -18.181  -0.537  0.00  0.00     0.034 C 
ATOM      6  C   UNL d   1      23.398 -17.456  -1.643  0.00  0.00     0.047 C 
ATOM      7  C   UNL d   1      24.773 -17.113  -1.730  0.00  0.00     0.042 C 
ENDROOT
BRANCH   7   8
ATOM      8  N   UNL d   1      25.240 -16.566  -2.962  0.00  0.00    -0.322 N 
ATOM      9  C   UNL d   1      25.661 -15.273  -3.236  0.00  0.00     0.257 C 
ATOM     10  O   UNL d   1      25.185 -14.680  -4.206  0.00  0.00    -0.267 OA
ATOM     11  H   UNL d   1      25.156 -17.149  -3.789  0.00  0.00     0.169 HD
BRANCH   9  12
ATOM     12  C   UNL d   1      26.679 -14.562  -2.363  0.00  0.00     0.054 C 
ATOM     13  C   UNL d   1      26.159 -13.904  -1.213  0.00  0.00     0.020 C 
ATOM     14  C   UNL d   1      27.003 -13.499  -0.164  0.00  0.00     0.025 C 
ATOM     15  C   UNL d   1      28.359 -13.801  -0.217  0.00  0.00     0.035 C 
ATOM     16 CL   UNL d   1      29.407 -13.371   1.076  0.00  0.00    -0.084 Cl
ATOM     17  C   UNL d   1      28.885 -14.452  -1.326  0.00  0.00     0.048 C 
ATOM     18  C   UNL d   1      28.081 -14.733  -2.444  0.00  0.00     0.051 C 
ATOM     19 CL   UNL d   1      28.956 -15.392  -3.782  0.00  0.00    -0.083 Cl
ENDBRANCH   9  12
ENDBRANCH   7   8
BRANCH   5  20
ATOM     20  C   UNL d   1      21.449 -18.555  -0.459  0.00  0.00     0.249 C 
ATOM     21  N   UNL d   1      21.116 -19.708   0.222  0.00  0.00    -0.366 N 
ATOM     22  H   UNL d   1      21.760 -20.333   0.676  0.00  0.00     0.159 HD
ATOM     23  H   UNL d   1      20.134 -19.936   0.296  0.00  0.00     0.159 HD
ATOM     24  O   UNL d   1      20.582 -17.869  -0.960  0.00  0.00    -0.268 OA
ENDBRANCH   5  20
TORSDOF 3
ENDMDL
MODEL 5
REMARK VINA RESULT:    -7.295      1.514      1.925
REMARK INTER + INTRA:          -9.053
REMARK INTER:                  -8.190
REMARK INTRA:                  -0.863
REMARK CONF_INDEPENDENT:        0.895
REMARK UNBOUND:                -0.863
REMARK  3 active torsions:
REMARK  status: ('A' for Active; 'I' for Inactive)
REMARK    1  A    between atoms: C_5  and  C_6 
REMARK       I    between atoms: C_6  and  N_7 
REMARK    2  A    between atoms: C_10  and  N_11 
REMARK       I    between atoms: N_11  and  C_12 
REMARK    3  A    between atoms: C_12  and  C_14 
ROOT
ATOM      1  C   UNL d   1      27.031 -11.514  -1.586  0.00  0.00     0.050 C 
ATOM      2  C   UNL d   1      27.240 -12.250  -0.299  0.00  0.00    -0.035 C 
ATOM      3  C   UNL d   1      27.367 -11.429   0.824  0.00  0.00     0.010 C 
ATOM      4  C   UNL d   1      27.479 -11.954   2.101  0.00  0.00     0.017 C 
ATOM      5  C   UNL d   1      27.482 -13.332   2.298  0.00  0.00     0.034 C 
ATOM      6  C   UNL d   1      27.439 -14.183   1.170  0.00  0.00     0.047 C 
ATOM      7  C   UNL d   1      27.376 -13.647  -0.143  0.00  0.00     0.042 C 
ENDROOT
BRANCH   7   8
ATOM      8  N   UNL d   1      27.544 -14.551  -1.233  0.00  0.00    -0.322 N 
ATOM      9  C   UNL d   1      27.281 -15.912  -1.284  0.00  0.00     0.257 C 
ATOM     10  O   UNL d   1      28.151 -16.676  -1.706  0.00  0.00    -0.267 OA
ATOM     11  H   UNL d   1      28.025 -14.200  -2.056  0.00  0.00     0.169 HD
BRANCH   9  12
ATOM     12  C   UNL d   1      25.956 -16.487  -0.819  0.00  0.00     0.054 C 
ATOM     13  C   UNL d   1      24.789 -15.845  -1.322  0.00  0.00     0.020 C 
ATOM     14  C   UNL d   1      23.529 -16.462  -1.243  0.00  0.00     0.025 C 
ATOM     15  C   UNL d   1      23.425 -17.748  -0.723  0.00  0.00     0.035 C 
ATOM     16 CL   UNL d   1      21.906 -18.552  -0.666  0.00  0.00    -0.084 Cl
ATOM     17  C   UNL d   1      24.552 -18.396  -0.236  0.00  0.00     0.048 C 
ATOM     18  C   UNL d   1      25.792 -17.736  -0.175  0.00  0.00     0.051 C 
ATOM     19 CL   UNL d   1      27.029 -18.651   0.614  0.00  0.00    -0.083 Cl
ENDBRANCH   9  12
ENDBRANCH   7   8
BRANCH   5  20
ATOM     20  C   UNL d   1      27.565 -13.905   3.683  0.00  0.00     0.249 C 
ATOM     21  N   UNL d   1      28.290 -15.066   3.858  0.00  0.00    -0.366 N 
ATOM     22  H   UNL d   1      28.774 -15.575   3.139  0.00  0.00     0.159 HD
ATOM     23  H   UNL d   1      28.366 -15.428   4.800  0.00  0.00     0.159 HD
ATOM     24  O   UNL d   1      27.030 -13.369   4.632  0.00  0.00    -0.268 OA
ENDBRANCH   5  20
TORSDOF 3
ENDMDL
MODEL 6
REMARK VINA RESULT:    -7.258      3.744      6.045
REMARK INTER + INTRA:          -9.009
REMARK INTER:                  -8.153
REMARK INTRA:                  -0.856
REMARK CONF_INDEPENDENT:        0.895
REMARK UNBOUND:                -0.856
REMARK  3 active torsions:
REMARK  status: ('A' for Active; 'I' for Inactive)
REMARK    1  A    between atoms: C_5  and  C_6 
REMARK       I    between atoms: C_6  and  N_7 
REMARK    2  A    between atoms: C_10  and  N_11 
REMARK       I    between atoms: N_11  and  C_12 
REMARK    3  A    between atoms: C_12  and  C_14 
ROOT
ATOM      1  C   UNL d   1      29.656 -17.140  -3.811  0.00  0.00     0.050 C 
ATOM      2  C   UNL d   1      28.920 -15.877  -4.137  0.00  0.00    -0.035 C 
ATOM      3  C   UNL d   1      28.967 -15.511  -5.484  0.00  0.00     0.010 C 
ATOM      4  C   UNL d   1      28.266 -14.416  -5.965  0.00  0.00     0.017 C 
ATOM      5  C   UNL d   1      27.499 -13.637  -5.103  0.00  0.00     0.034 C 
ATOM      6  C   UNL d   1      27.505 -13.939  -3.722  0.00  0.00     0.047 C 
ATOM      7  C   UNL d   1      28.263 -15.029  -3.219  0.00  0.00     0.042 C 
ENDROOT
BRANCH   7   8
ATOM      8  N   UNL d   1      28.388 -15.148  -1.804  0.00  0.00    -0.322 N 
ATOM      9  C   UNL d   1      27.389 -15.241  -0.846  0.00  0.00     0.257 C 
ATOM     10  O   UNL d   1      27.421 -14.490   0.130  0.00  0.00    -0.267 OA
ATOM     11  H   UNL d   1      29.318 -15.038  -1.410  0.00  0.00     0.169 HD
BRANCH   9  12
ATOM     12  C   UNL d   1      26.246 -16.231  -0.978  0.00  0.00     0.054 C 
ATOM     13  C   UNL d   1      26.325 -17.384  -0.146  0.00  0.00     0.020 C 
ATOM     14  C   UNL d   1      25.202 -18.200   0.075  0.00  0.00     0.025 C 
ATOM     15  C   UNL d   1      23.975 -17.842  -0.474  0.00  0.00     0.035 C 
ATOM     16 CL   UNL d   1      22.570 -18.787  -0.175  0.00  0.00    -0.084 Cl
ATOM     17  C   UNL d   1      23.874 -16.716  -1.281  0.00  0.00     0.048 C 
ATOM     18  C   UNL d   1      25.016 -15.975  -1.628  0.00  0.00     0.051 C 
ATOM     19 CL   UNL d   1      24.707 -14.714  -2.770  0.00  0.00    -0.083 Cl
ENDBRANCH   9  12
ENDBRANCH   7   8
BRANCH   5  20
ATOM     20  C   UNL d   1      26.708 -12.473  -5.627  0.00  0.00     0.249 C 
ATOM     21  N   UNL d   1      25.530 -12.153  -4.984  0.00  0.00    -0.366 N 
ATOM     22  H   UNL d   1      25.143 -12.629  -4.188  0.00  0.00     0.159 HD
ATOM     23  H   UNL d   1      25.020 -11.349  -5.325  0.00  0.00     0.159 HD
ATOM     24  O   UNL d   1      27.085 -11.816  -6.576  0.00  0.00    -0.268 OA
ENDBRANCH   5  20
TORSDOF 3
ENDMDL
MODEL 7
REMARK VINA RESULT:    -7.036      3.444      6.083
REMARK INTER + INTRA:          -8.998
REMARK INTER:                  -7.931
REMARK INTRA:                  -1.067
REMARK CONF_INDEPENDENT:        0.895
REMARK UNBOUND:                -1.067
REMARK  3 active torsions:
REMARK  status: ('A' for Active; 'I' for Inactive)
REMARK    1  A    between atoms: C_5  and  C_6 
REMARK       I    between atoms: C_6  and  N_7 
REMARK    2  A    between atoms: C_10  and  N_11 
REMARK       I    between atoms: N_11  and  C_12 
REMARK    3  A    between atoms: C_12  and  C_14 
ROOT
ATOM      1  C   UNL d   1      28.097 -17.229   0.101  0.00  0.00     0.050 C 
ATOM      2  C   UNL d   1      26.624 -17.247  -0.171  0.00  0.00    -0.035 C 
ATOM      3  C   UNL d   1      25.994 -18.457   0.129  0.00  0.00     0.010 C 
ATOM      4  C   UNL d   1      24.622 -18.610   0.016  0.00  0.00     0.017 C 
ATOM      5  C   UNL d   1      23.828 -17.553  -0.419  0.00  0.00     0.034 C 
ATOM      6  C   UNL d   1      24.452 -16.346  -0.809  0.00  0.00     0.047 C 
ATOM      7  C   UNL d   1      25.864 -16.203  -0.742  0.00  0.00     0.042 C 
ENDROOT
BRANCH   7   8
ATOM      8  N   UNL d   1      26.438 -15.044  -1.342  0.00  0.00    -0.322 N 
ATOM      9  C   UNL d   1      26.674 -13.799  -0.778  0.00  0.00     0.257 C 
ATOM     10  O   UNL d   1      26.281 -12.789  -1.366  0.00  0.00    -0.267 OA
ATOM     11  H   UNL d   1      26.599 -15.072  -2.344  0.00  0.00     0.169 HD
BRANCH   9  12
ATOM     12  C   UNL d   1      27.390 -13.647   0.552  0.00  0.00     0.054 C 
ATOM     13  C   UNL d   1      26.570 -13.292   1.661  0.00  0.00     0.020 C 
ATOM     14  C   UNL d   1      27.030 -13.439   2.981  0.00  0.00     0.025 C 
ATOM     15  C   UNL d   1      28.281 -14.000   3.214  0.00  0.00     0.035 C 
ATOM     16 CL   UNL d   1      28.848 -14.247   4.818  0.00  0.00    -0.084 Cl
ATOM     17  C   UNL d   1      29.093 -14.362   2.146  0.00  0.00     0.048 C 
ATOM     18  C   UNL d   1      28.706 -14.087   0.823  0.00  0.00     0.051 C 
ATOM     19 CL   UNL d   1      29.922 -14.461  -0.348  0.00  0.00    -0.083 Cl
ENDBRANCH   9  12
ENDBRANCH   7   8
BRANCH   5  20
ATOM     20  C   UNL d   1      22.337 -17.704  -0.506  0.00  0.00     0.249 C 
ATOM     21  N   UNL d   1      21.787 -18.907  -0.113  0.00  0.00    -0.366 N 
ATOM     22  H   UNL d   1      22.294 -19.704   0.230  0.00  0.00     0.159 HD
ATOM     23  H   UNL d   1      20.780 -18.990  -0.147  0.00  0.00     0.159 HD
ATOM     24  O   UNL d   1      21.622 -16.803  -0.895  0.00  0.00    -0.268 OA
ENDBRANCH   5  20
TORSDOF 3
ENDMDL
MODEL 8
REMARK VINA RESULT:    -7.011      2.791      5.149
REMARK INTER + INTRA:          -8.862
REMARK INTER:                  -7.906
REMARK INTRA:                  -0.956
REMARK CONF_INDEPENDENT:        0.895
REMARK UNBOUND:                -0.956
REMARK  3 active torsions:
REMARK  status: ('A' for Active; 'I' for Inactive)
REMARK    1  A    between atoms: C_5  and  C_6 
REMARK       I    between atoms: C_6  and  N_7 
REMARK    2  A    between atoms: C_10  and  N_11 
REMARK       I    between atoms: N_11  and  C_12 
REMARK    3  A    between atoms: C_12  and  C_14 
ROOT
ATOM      1  C   UNL d   1      29.110 -14.796  -2.469  0.00  0.00     0.050 C 
ATOM      2  C   UNL d   1      29.629 -16.143  -2.067  0.00  0.00    -0.035 C 
ATOM      3  C   UNL d   1      30.181 -16.886  -3.113  0.00  0.00     0.010 C 
ATOM      4  C   UNL d   1      30.782 -18.115  -2.894  0.00  0.00     0.017 C 
ATOM      5  C   UNL d   1      30.839 -18.652  -1.611  0.00  0.00     0.034 C 
ATOM      6  C   UNL d   1      30.212 -17.958  -0.552  0.00  0.00     0.047 C 
ATOM      7  C   UNL d   1      29.551 -16.723  -0.782  0.00  0.00     0.042 C 
ENDROOT
BRANCH   7   8
ATOM      8  N   UNL d   1      28.769 -16.184   0.282  0.00  0.00    -0.322 N 
ATOM      9  C   UNL d   1      27.444 -15.777   0.268  0.00  0.00     0.257 C 
ATOM     10  O   UNL d   1      27.153 -14.664   0.710  0.00  0.00    -0.267 OA
ATOM     11  H   UNL d   1      29.256 -15.953   1.143  0.00  0.00     0.169 HD
BRANCH   9  12
ATOM     12  C   UNL d   1      26.342 -16.658  -0.293  0.00  0.00     0.054 C 
ATOM     13  C   UNL d   1      26.069 -17.850   0.436  0.00  0.00     0.020 C 
ATOM     14  C   UNL d   1      24.884 -18.575   0.226  0.00  0.00     0.025 C 
ATOM     15  C   UNL d   1      23.929 -18.088  -0.660  0.00  0.00     0.035 C 
ATOM     16 CL   UNL d   1      22.443 -18.921  -0.896  0.00  0.00    -0.084 Cl
ATOM     17  C   UNL d   1      24.170 -16.921  -1.374  0.00  0.00     0.048 C 
ATOM     18  C   UNL d   1      25.411 -16.267  -1.283  0.00  0.00     0.051 C 
ATOM     19 CL   UNL d   1      25.574 -14.933  -2.371  0.00  0.00    -0.083 Cl
ENDBRANCH   9  12
ENDBRANCH   7   8
BRANCH   5  20
ATOM     20  C   UNL d   1      31.523 -19.966  -1.364  0.00  0.00     0.249 C 
ATOM     21  N   UNL d   1      31.317 -20.580  -0.146  0.00  0.00    -0.366 N 
ATOM     22  H   UNL d   1      30.746 -20.230   0.605  0.00  0.00     0.159 HD
ATOM     23  H   UNL d   1      31.757 -21.479   0.001  0.00  0.00     0.159 HD
ATOM     24  O   UNL d   1      32.226 -20.491  -2.202  0.00  0.00    -0.268 OA
ENDBRANCH   5  20
TORSDOF 3
ENDMDL
MODEL 9
REMARK VINA RESULT:    -6.910      4.764      5.941
REMARK INTER + INTRA:          -8.847
REMARK INTER:                  -7.804
REMARK INTRA:                  -1.042
REMARK CONF_INDEPENDENT:        0.895
REMARK UNBOUND:                -1.042
REMARK  3 active torsions:
REMARK  status: ('A' for Active; 'I' for Inactive)
REMARK    1  A    between atoms: C_5  and  C_6 
REMARK       I    between atoms: C_6  and  N_7 
REMARK    2  A    between atoms: C_10  and  N_11 
REMARK       I    between atoms: N_11  and  C_12 
REMARK    3  A    between atoms: C_12  and  C_14 
ROOT
ATOM      1  C   UNL d   1      28.101 -13.139  -6.232  0.00  0.00     0.050 C 
ATOM      2  C   UNL d   1      27.541 -12.297  -5.127  0.00  0.00    -0.035 C 
ATOM      3  C   UNL d   1      28.435 -11.361  -4.601  0.00  0.00     0.010 C 
ATOM      4  C   UNL d   1      28.047 -10.449  -3.634  0.00  0.00     0.017 C 
ATOM      5  C   UNL d   1      26.743 -10.450  -3.146  0.00  0.00     0.034 C 
ATOM      6  C   UNL d   1      25.845 -11.442  -3.601  0.00  0.00     0.047 C 
ATOM      7  C   UNL d   1      26.255 -12.412  -4.555  0.00  0.00     0.042 C 
ENDROOT
BRANCH   7   8
ATOM      8  N   UNL d   1      25.369 -13.499  -4.812  0.00  0.00    -0.322 N 
ATOM      9  C   UNL d   1      25.530 -14.843  -4.510  0.00  0.00     0.257 C 
ATOM     10  O   UNL d   1      25.354 -15.682  -5.394  0.00  0.00    -0.267 OA
ATOM     11  H   UNL d   1      24.558 -13.308  -5.392  0.00  0.00     0.169 HD
BRANCH   9  12
ATOM     12  C   UNL d   1      25.935 -15.307  -3.122  0.00  0.00     0.054 C 
ATOM     13  C   UNL d   1      24.865 -15.614  -2.233  0.00  0.00     0.020 C 
ATOM     14  C   UNL d   1      25.086 -16.353  -1.059  0.00  0.00     0.025 C 
ATOM     15  C   UNL d   1      26.356 -16.851  -0.789  0.00  0.00     0.035 C 
ATOM     16 CL   UNL d   1      26.646 -17.808   0.610  0.00  0.00    -0.084 Cl
ATOM     17  C   UNL d   1      27.412 -16.572  -1.648  0.00  0.00     0.048 C 
ATOM     18  C   UNL d   1      27.237 -15.714  -2.747  0.00  0.00     0.051 C 
ATOM     19 CL   UNL d   1      28.702 -15.361  -3.594  0.00  0.00    -0.083 Cl
ENDBRANCH   9  12
ENDBRANCH   7   8
BRANCH   5  20
ATOM     20  C   UNL d   1      26.309  -9.438  -2.125  0.00  0.00     0.249 C 
ATOM     21  N   UNL d   1      25.155  -8.724  -2.376  0.00  0.00    -0.366 N 
ATOM     22  H   UNL d   1      24.567  -8.816  -3.187  0.00  0.00     0.159 HD
ATOM     23  H   UNL d   1      24.854  -8.067  -1.669  0.00  0.00     0.159 HD
ATOM     24  O   UNL d   1      26.933  -9.251  -1.101  0.00  0.00    -0.268 OA
ENDBRANCH   5  20
TORSDOF 3
ENDMDL
