MODEL 1
REMARK VINA RESULT:    -7.694      0.000      0.000
REMARK INTER + INTRA:         -11.268
REMARK INTER:                  -8.887
REMARK INTRA:                  -2.381
REMARK CONF_INDEPENDENT:        1.193
REMARK UNBOUND:                -2.381
REMARK  4 active torsions:
REMARK  status: ('A' for Active; 'I' for Inactive)
REMARK    1  A    between atoms: C_4  and  C_5 
REMARK    2  A    between atoms: C_13  and  C_14 
REMARK    3  A    between atoms: N_24  and  C_25 
REMARK    4  A    between atoms: C_30  and  C_31 
ROOT
ATOM      1  C   UNL d   1      31.370 -11.561   0.060  0.00  0.00     0.063 C 
ATOM      2  C   UNL d   1      29.872 -11.242  -0.071  0.00  0.00     0.004 C 
ATOM      3  C   UNL d   1      28.933 -12.057   0.437  0.00  0.00    -0.008 C 
ATOM      4  C   UNL d   1      29.023 -13.443   0.949  0.00  0.00     0.126 C 
ATOM      5  C   UNL d   1      28.117 -14.235   0.075  0.00  0.00     0.026 A 
ATOM      6  C   UNL d   1      27.077 -13.651  -0.555  0.00  0.00     0.018 A 
ATOM      7  C   UNL d   1      26.210 -14.430  -1.481  0.00  0.00     0.067 A 
ATOM      8  C   UNL d   1      26.526 -15.938  -1.624  0.00  0.00     0.038 A 
ATOM      9  C   UNL d   1      27.750 -16.542  -0.921  0.00  0.00     0.094 A 
ATOM     10  C   UNL d   1      28.524 -15.636  -0.047  0.00  0.00     0.159 A 
ATOM     11  O   UNL d   1      29.474 -16.061   0.613  0.00  0.00    -0.293 OA
ATOM     12  N   UNL d   1      26.778 -12.280  -0.352  0.00  0.00    -0.371 N 
ATOM     13  C   UNL d   1      27.563 -11.440   0.580  0.00  0.00     0.210 C 
ATOM     14  N   UNL d   1      27.807  -9.962   0.333  0.00  0.00    -0.185 NA
ATOM     15  N   UNL d   1      29.226 -10.002  -0.331  0.00  0.00    -0.222 NA
ATOM     16  H   UNL d   1      26.270 -11.789  -1.085  0.00  0.00     0.161 HD
ATOM     17  H   UNL d   1      29.802  -9.197  -0.051  0.00  0.00     0.147 HD
ENDROOT
BRANCH  14  18
ATOM     18  C   UNL d   1      27.871  -9.206   1.642  0.00  0.00     0.045 C 
ATOM     19  C   UNL d   1      28.998  -8.719   2.340  0.00  0.00     0.026 C 
ATOM     20  C   UNL d   1      28.929  -8.550   3.775  0.00  0.00     0.002 C 
ATOM     21  C   UNL d   1      27.783  -8.860   4.513  0.00  0.00     0.001 C 
ATOM     22  C   UNL d   1      26.680  -9.254   3.824  0.00  0.00     0.020 C 
ATOM     23  C   UNL d   1      26.711  -9.227   2.432  0.00  0.00     0.063 C 
BRANCH  23  24
ATOM     24  C   UNL d   1      25.408  -8.825   1.897  0.00  0.00     0.211 C 
ATOM     25  O   UNL d   1      24.443  -9.581   2.106  0.00  0.00    -0.644 OA
ATOM     26  O   UNL d   1      25.366  -7.662   1.345  0.00  0.00    -0.644 OA
ENDBRANCH  23  24
ENDBRANCH  14  18
BRANCH   4  27
ATOM     27  C   UNL d   1      28.659 -13.707   2.415  0.00  0.00     0.094 C 
ATOM     28  N   UNL d   1      27.858 -12.965   3.217  0.00  0.00    -0.354 N 
ATOM     29  C   UNL d   1      27.772 -13.511   4.473  0.00  0.00     0.106 C 
ATOM     30  H   UNL d   1      27.521 -12.047   2.957  0.00  0.00     0.166 HD
ATOM     31  C   UNL d   1      28.414 -14.710   4.414  0.00  0.00     0.106 C 
ATOM     32  N   UNL d   1      28.902 -14.825   3.136  0.00  0.00    -0.354 N 
ATOM     33  H   UNL d   1      29.487 -15.575   2.782  0.00  0.00     0.166 HD
ENDBRANCH   4  27
BRANCH   8  34
ATOM     34  C   UNL d   1      25.345 -16.687  -1.078  0.00  0.00    -0.013 A 
ATOM     35  C   UNL d   1      24.022 -16.337  -1.271  0.00  0.00     0.015 A 
ATOM     36  C   UNL d   1      23.145 -17.175  -0.551  0.00  0.00     0.008 A 
ATOM     37  C   UNL d   1      23.827 -18.152   0.138  0.00  0.00     0.050 A 
ATOM     38  S   UNL d   1      25.522 -18.053  -0.085  0.00  0.00    -0.106 SA
ENDBRANCH   8  34
TORSDOF 4
ENDMDL
MODEL 2
REMARK VINA RESULT:    -6.636      3.771      6.658
REMARK INTER + INTRA:         -10.634
REMARK INTER:                  -7.829
REMARK INTRA:                  -2.805
REMARK CONF_INDEPENDENT:        1.193
REMARK UNBOUND:                -2.805
REMARK  4 active torsions:
REMARK  status: ('A' for Active; 'I' for Inactive)
REMARK    1  A    between atoms: C_4  and  C_5 
REMARK    2  A    between atoms: C_13  and  C_14 
REMARK    3  A    between atoms: N_24  and  C_25 
REMARK    4  A    between atoms: C_30  and  C_31 
ROOT
ATOM      1  C   UNL d   1      26.658 -12.889   1.461  0.00  0.00     0.063 C 
ATOM      2  C   UNL d   1      26.784 -11.729   2.461  0.00  0.00     0.004 C 
ATOM      3  C   UNL d   1      27.854 -11.605   3.262  0.00  0.00    -0.008 C 
ATOM      4  C   UNL d   1      28.942 -12.556   3.585  0.00  0.00     0.126 C 
ATOM      5  C   UNL d   1      28.848 -12.762   5.056  0.00  0.00     0.026 A 
ATOM      6  C   UNL d   1      28.310 -11.818   5.854  0.00  0.00     0.018 A 
ATOM      7  C   UNL d   1      28.155 -12.051   7.317  0.00  0.00     0.067 A 
ATOM      8  C   UNL d   1      28.702 -13.391   7.866  0.00  0.00     0.038 A 
ATOM      9  C   UNL d   1      29.263 -14.450   6.906  0.00  0.00     0.094 A 
ATOM     10  C   UNL d   1      29.335 -14.076   5.479  0.00  0.00     0.159 A 
ATOM     11  O   UNL d   1      29.843 -14.839   4.655  0.00  0.00    -0.293 OA
ATOM     12  N   UNL d   1      27.876 -10.576   5.326  0.00  0.00    -0.371 N 
ATOM     13  C   UNL d   1      28.026 -10.243   3.891  0.00  0.00     0.210 C 
ATOM     14  N   UNL d   1      27.025  -9.377   3.149  0.00  0.00    -0.185 NA
ATOM     15  N   UNL d   1      26.123 -10.469   2.480  0.00  0.00    -0.222 NA
ATOM     16  H   UNL d   1      27.158 -10.064   5.836  0.00  0.00     0.161 HD
ATOM     17  H   UNL d   1      25.806 -10.183   1.545  0.00  0.00     0.147 HD
ENDROOT
BRANCH  14  18
ATOM     18  C   UNL d   1      27.717  -8.555   2.083  0.00  0.00     0.045 C 
ATOM     19  C   UNL d   1      29.022  -8.685   1.560  0.00  0.00     0.026 C 
ATOM     20  C   UNL d   1      29.687  -7.525   1.007  0.00  0.00     0.002 C 
ATOM     21  C   UNL d   1      29.089  -6.262   0.974  0.00  0.00     0.001 C 
ATOM     22  C   UNL d   1      27.805  -6.163   1.409  0.00  0.00     0.020 C 
ATOM     23  C   UNL d   1      27.122  -7.326   1.758  0.00  0.00     0.063 C 
BRANCH  23  24
ATOM     24  C   UNL d   1      25.714  -7.232   1.367  0.00  0.00     0.211 C 
ATOM     25  O   UNL d   1      25.154  -8.273   0.980  0.00  0.00    -0.644 OA
ATOM     26  O   UNL d   1      25.155  -6.089   1.563  0.00  0.00    -0.644 OA
ENDBRANCH  23  24
ENDBRANCH  14  18
BRANCH   4  27
ATOM     27  C   UNL d   1      30.383 -12.171   3.227  0.00  0.00     0.094 C 
ATOM     28  N   UNL d   1      30.798 -11.123   2.474  0.00  0.00    -0.354 N 
ATOM     29  C   UNL d   1      32.165 -11.104   2.364  0.00  0.00     0.106 C 
ATOM     30  H   UNL d   1      30.162 -10.549   1.935  0.00  0.00     0.166 HD
ATOM     31  C   UNL d   1      32.630 -12.077   3.195  0.00  0.00     0.106 C 
ATOM     32  N   UNL d   1      31.524 -12.678   3.743  0.00  0.00    -0.354 N 
ATOM     33  H   UNL d   1      31.522 -13.487   4.357  0.00  0.00     0.166 HD
ENDBRANCH   4  27
BRANCH   8  34
ATOM     34  C   UNL d   1      29.835 -13.055   8.793  0.00  0.00    -0.013 A 
ATOM     35  C   UNL d   1      31.151 -13.432   8.609  0.00  0.00     0.015 A 
ATOM     36  C   UNL d   1      31.964 -13.055   9.698  0.00  0.00     0.008 A 
ATOM     37  C   UNL d   1      31.247 -12.378  10.657  0.00  0.00     0.050 A 
ATOM     38  S   UNL d   1      29.596 -12.200  10.241  0.00  0.00    -0.106 SA
ENDBRANCH   8  34
TORSDOF 4
ENDMDL
MODEL 3
REMARK VINA RESULT:    -6.345      3.834      6.784
REMARK INTER + INTRA:         -10.445
REMARK INTER:                  -7.538
REMARK INTRA:                  -2.907
REMARK CONF_INDEPENDENT:        1.193
REMARK UNBOUND:                -2.907
REMARK  4 active torsions:
REMARK  status: ('A' for Active; 'I' for Inactive)
REMARK    1  A    between atoms: C_4  and  C_5 
REMARK    2  A    between atoms: C_13  and  C_14 
REMARK    3  A    between atoms: N_24  and  C_25 
REMARK    4  A    between atoms: C_30  and  C_31 
ROOT
ATOM      1  C   UNL d   1      29.556 -16.792  -1.229  0.00  0.00     0.063 C 
ATOM      2  C   UNL d   1      28.364 -15.911  -0.823  0.00  0.00     0.004 C 
ATOM      3  C   UNL d   1      28.529 -14.808  -0.074  0.00  0.00    -0.008 C 
ATOM      4  C   UNL d   1      29.689 -14.331   0.711  0.00  0.00     0.126 C 
ATOM      5  C   UNL d   1      29.199 -14.255   2.114  0.00  0.00     0.026 A 
ATOM      6  C   UNL d   1      27.890 -14.078   2.381  0.00  0.00     0.018 A 
ATOM      7  C   UNL d   1      27.391 -14.069   3.784  0.00  0.00     0.067 A 
ATOM      8  C   UNL d   1      28.455 -14.205   4.899  0.00  0.00     0.038 A 
ATOM      9  C   UNL d   1      29.928 -14.451   4.538  0.00  0.00     0.094 A 
ATOM     10  C   UNL d   1      30.264 -14.450   3.100  0.00  0.00     0.159 A 
ATOM     11  O   UNL d   1      31.434 -14.564   2.729  0.00  0.00    -0.293 OA
ATOM     12  N   UNL d   1      26.949 -13.894   1.336  0.00  0.00    -0.371 N 
ATOM     13  C   UNL d   1      27.361 -13.850  -0.085  0.00  0.00     0.210 C 
ATOM     14  N   UNL d   1      26.479 -14.373  -1.203  0.00  0.00    -0.185 NA
ATOM     15  N   UNL d   1      27.068 -15.811  -1.402  0.00  0.00    -0.222 NA
ATOM     16  H   UNL d   1      25.979 -14.141   1.518  0.00  0.00     0.161 HD
ATOM     17  H   UNL d   1      27.062 -16.095  -2.390  0.00  0.00     0.147 HD
ENDROOT
BRANCH  14  18
ATOM     18  C   UNL d   1      26.674 -13.558  -2.464  0.00  0.00     0.045 C 
ATOM     19  C   UNL d   1      27.291 -12.299  -2.628  0.00  0.00     0.026 C 
ATOM     20  C   UNL d   1      26.893 -11.449  -3.729  0.00  0.00     0.002 C 
ATOM     21  C   UNL d   1      25.905 -11.820  -4.645  0.00  0.00     0.001 C 
ATOM     22  C   UNL d   1      25.372 -13.064  -4.524  0.00  0.00     0.020 C 
ATOM     23  C   UNL d   1      25.904 -13.935  -3.576  0.00  0.00     0.063 C 
BRANCH  23  24
ATOM     24  C   UNL d   1      25.906 -15.308  -4.083  0.00  0.00     0.211 C 
ATOM     25  O   UNL d   1      26.680 -15.575  -5.020  0.00  0.00    -0.644 OA
ATOM     26  O   UNL d   1      25.172 -16.144  -3.433  0.00  0.00    -0.644 OA
ENDBRANCH  23  24
ENDBRANCH  14  18
BRANCH   4  27
ATOM     27  C   UNL d   1      30.327 -12.988   0.332  0.00  0.00     0.094 C 
ATOM     28  N   UNL d   1      31.310 -12.323   0.985  0.00  0.00    -0.354 N 
ATOM     29  C   UNL d   1      31.618 -11.146   0.351  0.00  0.00     0.106 C 
ATOM     30  H   UNL d   1      31.637 -12.592   1.905  0.00  0.00     0.166 HD
ATOM     31  C   UNL d   1      30.914 -11.143  -0.814  0.00  0.00     0.106 C 
ATOM     32  N   UNL d   1      30.174 -12.299  -0.821  0.00  0.00    -0.354 N 
ATOM     33  H   UNL d   1      29.490 -12.571  -1.521  0.00  0.00     0.166 HD
ENDBRANCH   4  27
BRANCH   8  34
ATOM     34  C   UNL d   1      28.446 -12.918   5.673  0.00  0.00    -0.013 A 
ATOM     35  C   UNL d   1      28.433 -11.654   5.115  0.00  0.00     0.015 A 
ATOM     36  C   UNL d   1      28.530 -10.645   6.096  0.00  0.00     0.008 A 
ATOM     37  C   UNL d   1      28.583 -11.173   7.365  0.00  0.00     0.050 A 
ATOM     38  S   UNL d   1      28.516 -12.884   7.369  0.00  0.00    -0.106 SA
ENDBRANCH   8  34
TORSDOF 4
ENDMDL
MODEL 4
REMARK VINA RESULT:    -6.245      3.511      7.303
REMARK INTER + INTRA:         -10.157
REMARK INTER:                  -7.438
REMARK INTRA:                  -2.719
REMARK CONF_INDEPENDENT:        1.193
REMARK UNBOUND:                -2.719
REMARK  4 active torsions:
REMARK  status: ('A' for Active; 'I' for Inactive)
REMARK    1  A    between atoms: C_4  and  C_5 
REMARK    2  A    between atoms: C_13  and  C_14 
REMARK    3  A    between atoms: N_24  and  C_25 
REMARK    4  A    between atoms: C_30  and  C_31 
ROOT
ATOM      1  C   UNL d   1      25.978 -16.850   0.143  0.00  0.00     0.063 C 
ATOM      2  C   UNL d   1      26.183 -15.451  -0.458  0.00  0.00     0.004 C 
ATOM      3  C   UNL d   1      27.178 -14.648  -0.046  0.00  0.00    -0.008 C 
ATOM      4  C   UNL d   1      28.070 -14.733   1.132  0.00  0.00     0.126 C 
ATOM      5  C   UNL d   1      27.805 -13.490   1.906  0.00  0.00     0.026 A 
ATOM      6  C   UNL d   1      27.344 -12.380   1.295  0.00  0.00     0.018 A 
ATOM      7  C   UNL d   1      27.016 -11.157   2.078  0.00  0.00     0.067 A 
ATOM      8  C   UNL d   1      27.294 -11.213   3.599  0.00  0.00     0.038 A 
ATOM      9  C   UNL d   1      27.776 -12.518   4.251  0.00  0.00     0.094 A 
ATOM     10  C   UNL d   1      28.042 -13.651   3.341  0.00  0.00     0.159 A 
ATOM     11  O   UNL d   1      28.503 -14.709   3.775  0.00  0.00    -0.293 OA
ATOM     12  N   UNL d   1      27.159 -12.343  -0.110  0.00  0.00    -0.371 N 
ATOM     13  C   UNL d   1      27.496 -13.499  -0.972  0.00  0.00     0.210 C 
ATOM     14  N   UNL d   1      26.716 -13.827  -2.232  0.00  0.00    -0.185 NA
ATOM     15  N   UNL d   1      25.726 -14.916  -1.695  0.00  0.00    -0.222 NA
ATOM     16  H   UNL d   1      26.483 -11.681  -0.487  0.00  0.00     0.161 HD
ATOM     17  H   UNL d   1      25.547 -15.649  -2.393  0.00  0.00     0.147 HD
ENDROOT
BRANCH  14  18
ATOM     18  C   UNL d   1      27.625 -14.431  -3.281  0.00  0.00     0.045 C 
ATOM     19  C   UNL d   1      29.008 -14.709  -3.214  0.00  0.00     0.026 C 
ATOM     20  C   UNL d   1      29.790 -14.734  -4.430  0.00  0.00     0.002 C 
ATOM     21  C   UNL d   1      29.232 -14.483  -5.687  0.00  0.00     0.001 C 
ATOM     22  C   UNL d   1      27.887 -14.293  -5.750  0.00  0.00     0.020 C 
ATOM     23  C   UNL d   1      27.129 -14.461  -4.594  0.00  0.00     0.063 C 
BRANCH  23  24
ATOM     24  C   UNL d   1      25.833 -15.064  -4.912  0.00  0.00     0.211 C 
ATOM     25  O   UNL d   1      25.812 -15.959  -5.777  0.00  0.00    -0.644 OA
ATOM     26  O   UNL d   1      24.844 -14.679  -4.183  0.00  0.00    -0.644 OA
ENDBRANCH  23  24
ENDBRANCH  14  18
BRANCH   4  27
ATOM     27  C   UNL d   1      29.581 -14.863   0.899  0.00  0.00     0.094 C 
ATOM     28  N   UNL d   1      30.272 -14.586  -0.233  0.00  0.00    -0.354 N 
ATOM     29  C   UNL d   1      31.611 -14.832  -0.067  0.00  0.00     0.106 C 
ATOM     30  H   UNL d   1      29.820 -14.392  -1.118  0.00  0.00     0.166 HD
ATOM     31  C   UNL d   1      31.787 -15.126   1.250  0.00  0.00     0.106 C 
ATOM     32  N   UNL d   1      30.540 -15.090   1.824  0.00  0.00    -0.354 N 
ATOM     33  H   UNL d   1      30.314 -15.328   2.785  0.00  0.00     0.166 HD
ENDBRANCH   4  27
BRANCH   8  34
ATOM     34  C   UNL d   1      28.372 -10.206   3.885  0.00  0.00    -0.013 A 
ATOM     35  C   UNL d   1      29.729 -10.452   3.814  0.00  0.00     0.015 A 
ATOM     36  C   UNL d   1      30.488  -9.340   4.237  0.00  0.00     0.008 A 
ATOM     37  C   UNL d   1      29.684  -8.280   4.585  0.00  0.00     0.050 A 
ATOM     38  S   UNL d   1      28.018  -8.627   4.402  0.00  0.00    -0.106 SA
ENDBRANCH   8  34
TORSDOF 4
ENDMDL
MODEL 5
REMARK VINA RESULT:    -6.054      4.783      8.362
REMARK INTER + INTRA:          -9.771
REMARK INTER:                  -7.247
REMARK INTRA:                  -2.524
REMARK CONF_INDEPENDENT:        1.193
REMARK UNBOUND:                -2.524
REMARK  4 active torsions:
REMARK  status: ('A' for Active; 'I' for Inactive)
REMARK    1  A    between atoms: C_4  and  C_5 
REMARK    2  A    between atoms: C_13  and  C_14 
REMARK    3  A    between atoms: N_24  and  C_25 
REMARK    4  A    between atoms: C_30  and  C_31 
ROOT
ATOM      1  C   UNL d   1      32.111 -13.619  -2.128  0.00  0.00     0.063 C 
ATOM      2  C   UNL d   1      31.707 -15.084  -2.357  0.00  0.00     0.004 C 
ATOM      3  C   UNL d   1      30.446 -15.424  -2.671  0.00  0.00    -0.008 C 
ATOM      4  C   UNL d   1      29.188 -14.646  -2.619  0.00  0.00     0.126 C 
ATOM      5  C   UNL d   1      28.317 -15.387  -1.668  0.00  0.00     0.026 A 
ATOM      6  C   UNL d   1      28.480 -16.710  -1.466  0.00  0.00     0.018 A 
ATOM      7  C   UNL d   1      27.653 -17.439  -0.465  0.00  0.00     0.067 A 
ATOM      8  C   UNL d   1      26.567 -16.615   0.267  0.00  0.00     0.038 A 
ATOM      9  C   UNL d   1      26.453 -15.101   0.033  0.00  0.00     0.094 A 
ATOM     10  C   UNL d   1      27.358 -14.520  -0.980  0.00  0.00     0.159 A 
ATOM     11  O   UNL d   1      27.278 -13.328  -1.283  0.00  0.00    -0.293 OA
ATOM     12  N   UNL d   1      29.444 -17.447  -2.200  0.00  0.00    -0.371 N 
ATOM     13  C   UNL d   1      30.284 -16.813  -3.241  0.00  0.00     0.210 C 
ATOM     14  N   UNL d   1      31.709 -17.257  -3.517  0.00  0.00    -0.185 NA
ATOM     15  N   UNL d   1      32.515 -16.211  -2.673  0.00  0.00    -0.222 NA
ATOM     16  H   UNL d   1      29.807 -18.304  -1.786  0.00  0.00     0.161 HD
ATOM     17  H   UNL d   1      33.394 -15.942  -3.135  0.00  0.00     0.147 HD
ENDROOT
BRANCH  14  18
ATOM     18  C   UNL d   1      32.041 -17.101  -4.985  0.00  0.00     0.045 C 
ATOM     19  C   UNL d   1      33.009 -16.278  -5.601  0.00  0.00     0.026 C 
ATOM     20  C   UNL d   1      32.806 -15.836  -6.964  0.00  0.00     0.002 C 
ATOM     21  C   UNL d   1      31.675 -16.186  -7.706  0.00  0.00     0.001 C 
ATOM     22  C   UNL d   1      30.787 -17.040  -7.132  0.00  0.00     0.020 C 
ATOM     23  C   UNL d   1      31.097 -17.601  -5.895  0.00  0.00     0.063 C 
BRANCH  23  24
ATOM     24  C   UNL d   1      30.617 -18.983  -5.824  0.00  0.00     0.211 C 
ATOM     25  O   UNL d   1      30.032 -19.336  -4.783  0.00  0.00    -0.644 OA
ATOM     26  O   UNL d   1      30.755 -19.678  -6.899  0.00  0.00    -0.644 OA
ENDBRANCH  23  24
ENDBRANCH  14  18
BRANCH   4  27
ATOM     27  C   UNL d   1      28.417 -14.413  -3.925  0.00  0.00     0.094 C 
ATOM     28  N   UNL d   1      28.745 -14.838  -5.168  0.00  0.00    -0.354 N 
ATOM     29  C   UNL d   1      27.816 -14.431  -6.092  0.00  0.00     0.106 C 
ATOM     30  H   UNL d   1      29.644 -15.248  -5.389  0.00  0.00     0.166 HD
ATOM     31  C   UNL d   1      26.798 -13.865  -5.387  0.00  0.00     0.106 C 
ATOM     32  N   UNL d   1      27.170 -13.912  -4.066  0.00  0.00    -0.354 N 
ATOM     33  H   UNL d   1      26.660 -13.512  -3.284  0.00  0.00     0.166 HD
ENDBRANCH   4  27
BRANCH   8  34
ATOM     34  C   UNL d   1      25.236 -17.180  -0.143  0.00  0.00    -0.013 A 
ATOM     35  C   UNL d   1      24.571 -18.199   0.509  0.00  0.00     0.015 A 
ATOM     36  C   UNL d   1      23.394 -18.579  -0.171  0.00  0.00     0.008 A 
ATOM     37  C   UNL d   1      23.190 -17.816  -1.297  0.00  0.00     0.050 A 
ATOM     38  S   UNL d   1      24.417 -16.646  -1.531  0.00  0.00    -0.106 SA
ENDBRANCH   8  34
TORSDOF 4
ENDMDL
MODEL 6
REMARK VINA RESULT:    -6.004      1.951      2.435
REMARK INTER + INTRA:         -10.245
REMARK INTER:                  -7.197
REMARK INTRA:                  -3.048
REMARK CONF_INDEPENDENT:        1.193
REMARK UNBOUND:                -3.048
REMARK  4 active torsions:
REMARK  status: ('A' for Active; 'I' for Inactive)
REMARK    1  A    between atoms: C_4  and  C_5 
REMARK    2  A    between atoms: C_13  and  C_14 
REMARK    3  A    between atoms: N_24  and  C_25 
REMARK    4  A    between atoms: C_30  and  C_31 
ROOT
ATOM      1  C   UNL d   1      30.902 -12.408  -0.806  0.00  0.00     0.063 C 
ATOM      2  C   UNL d   1      29.428 -12.035  -1.028  0.00  0.00     0.004 C 
ATOM      3  C   UNL d   1      28.437 -12.674  -0.385  0.00  0.00    -0.008 C 
ATOM      4  C   UNL d   1      28.438 -13.933   0.395  0.00  0.00     0.126 C 
ATOM      5  C   UNL d   1      27.491 -14.829  -0.320  0.00  0.00     0.026 A 
ATOM      6  C   UNL d   1      26.493 -14.324  -1.074  0.00  0.00     0.018 A 
ATOM      7  C   UNL d   1      25.586 -15.220  -1.843  0.00  0.00     0.067 A 
ATOM      8  C   UNL d   1      25.811 -16.742  -1.675  0.00  0.00     0.038 A 
ATOM      9  C   UNL d   1      26.990 -17.263  -0.841  0.00  0.00     0.094 A 
ATOM     10  C   UNL d   1      27.811 -16.248  -0.151  0.00  0.00     0.159 A 
ATOM     11  O   UNL d   1      28.729 -16.587   0.599  0.00  0.00    -0.293 OA
ATOM     12  N   UNL d   1      26.277 -12.925  -1.156  0.00  0.00    -0.371 N 
ATOM     13  C   UNL d   1      27.106 -11.962  -0.395  0.00  0.00     0.210 C 
ATOM     14  N   UNL d   1      27.442 -10.581  -0.928  0.00  0.00    -0.185 NA
ATOM     15  N   UNL d   1      28.861 -10.836  -1.543  0.00  0.00    -0.222 NA
ATOM     16  H   UNL d   1      25.806 -12.561  -1.982  0.00  0.00     0.161 HD
ATOM     17  H   UNL d   1      29.483 -10.027  -1.418  0.00  0.00     0.147 HD
ENDROOT
BRANCH  14  18
ATOM     18  C   UNL d   1      27.544  -9.582   0.204  0.00  0.00     0.045 C 
ATOM     19  C   UNL d   1      26.957  -9.621   1.487  0.00  0.00     0.026 C 
ATOM     20  C   UNL d   1      26.690  -8.383   2.187  0.00  0.00     0.002 C 
ATOM     21  C   UNL d   1      26.984  -7.132   1.639  0.00  0.00     0.001 C 
ATOM     22  C   UNL d   1      27.618  -7.107   0.437  0.00  0.00     0.020 C 
ATOM     23  C   UNL d   1      28.035  -8.310  -0.129  0.00  0.00     0.063 C 
BRANCH  23  24
ATOM     24  C   UNL d   1      29.314  -8.136  -0.821  0.00  0.00     0.211 C 
ATOM     25  O   UNL d   1      30.353  -8.342  -0.169  0.00  0.00    -0.644 OA
ATOM     26  O   UNL d   1      29.237  -7.886  -2.082  0.00  0.00    -0.644 OA
ENDBRANCH  23  24
ENDBRANCH  14  18
BRANCH   4  27
ATOM     27  C   UNL d   1      28.047 -13.875   1.878  0.00  0.00     0.094 C 
ATOM     28  N   UNL d   1      28.231 -14.829   2.821  0.00  0.00    -0.354 N 
ATOM     29  C   UNL d   1      27.745 -14.422   4.038  0.00  0.00     0.106 C 
ATOM     30  H   UNL d   1      28.530 -15.770   2.599  0.00  0.00     0.166 HD
ATOM     31  C   UNL d   1      27.382 -13.119   3.889  0.00  0.00     0.106 C 
ATOM     32  N   UNL d   1      27.623 -12.798   2.576  0.00  0.00    -0.354 N 
ATOM     33  H   UNL d   1      27.399 -11.918   2.122  0.00  0.00     0.166 HD
ENDBRANCH   4  27
BRANCH   8  34
ATOM     34  C   UNL d   1      24.581 -17.296  -1.012  0.00  0.00    -0.013 A 
ATOM     35  C   UNL d   1      24.456 -18.578  -0.514  0.00  0.00     0.015 A 
ATOM     36  C   UNL d   1      23.151 -18.835  -0.043  0.00  0.00     0.008 A 
ATOM     37  C   UNL d   1      22.339 -17.732  -0.171  0.00  0.00     0.050 A 
ATOM     38  S   UNL d   1      23.152 -16.391  -0.859  0.00  0.00    -0.106 SA
ENDBRANCH   8  34
TORSDOF 4
ENDMDL
MODEL 7
REMARK VINA RESULT:    -5.903      4.414      7.165
REMARK INTER + INTRA:         -10.216
REMARK INTER:                  -7.096
REMARK INTRA:                  -3.120
REMARK CONF_INDEPENDENT:        1.193
REMARK UNBOUND:                -3.120
REMARK  4 active torsions:
REMARK  status: ('A' for Active; 'I' for Inactive)
REMARK    1  A    between atoms: C_4  and  C_5 
REMARK    2  A    between atoms: C_13  and  C_14 
REMARK    3  A    between atoms: N_24  and  C_25 
REMARK    4  A    between atoms: C_30  and  C_31 
ROOT
ATOM      1  C   UNL d   1      31.327 -11.751  -1.893  0.00  0.00     0.063 C 
ATOM      2  C   UNL d   1      31.081 -13.126  -2.534  0.00  0.00     0.004 C 
ATOM      3  C   UNL d   1      29.839 -13.598  -2.731  0.00  0.00    -0.008 C 
ATOM      4  C   UNL d   1      28.531 -13.138  -2.210  0.00  0.00     0.126 C 
ATOM      5  C   UNL d   1      27.999 -14.291  -1.436  0.00  0.00     0.026 A 
ATOM      6  C   UNL d   1      28.378 -15.553  -1.724  0.00  0.00     0.018 A 
ATOM      7  C   UNL d   1      27.897 -16.701  -0.906  0.00  0.00     0.067 A 
ATOM      8  C   UNL d   1      26.901 -16.372   0.231  0.00  0.00     0.038 A 
ATOM      9  C   UNL d   1      26.538 -14.913   0.546  0.00  0.00     0.094 A 
ATOM     10  C   UNL d   1      27.110 -13.884  -0.346  0.00  0.00     0.159 A 
ATOM     11  O   UNL d   1      26.807 -12.697  -0.209  0.00  0.00    -0.293 OA
ATOM     12  N   UNL d   1      29.244 -15.825  -2.813  0.00  0.00    -0.371 N 
ATOM     13  C   UNL d   1      29.740 -14.749  -3.702  0.00  0.00     0.210 C 
ATOM     14  N   UNL d   1      31.114 -14.796  -4.344  0.00  0.00    -0.185 NA
ATOM     15  N   UNL d   1      31.941 -13.919  -3.343  0.00  0.00    -0.222 NA
ATOM     16  H   UNL d   1      29.800 -16.676  -2.780  0.00  0.00     0.161 HD
ATOM     17  H   UNL d   1      32.651 -13.354  -3.825  0.00  0.00     0.147 HD
ENDROOT
BRANCH  14  18
ATOM     18  C   UNL d   1      31.089 -14.136  -5.707  0.00  0.00     0.045 C 
ATOM     19  C   UNL d   1      32.050 -13.299  -6.313  0.00  0.00     0.026 C 
ATOM     20  C   UNL d   1      31.631 -12.338  -7.311  0.00  0.00     0.002 C 
ATOM     21  C   UNL d   1      30.297 -12.194  -7.700  0.00  0.00     0.001 C 
ATOM     22  C   UNL d   1      29.390 -13.056  -7.167  0.00  0.00     0.020 C 
ATOM     23  C   UNL d   1      29.845 -14.093  -6.356  0.00  0.00     0.063 C 
BRANCH  23  24
ATOM     24  C   UNL d   1      29.048 -15.302  -6.574  0.00  0.00     0.211 C 
ATOM     25  O   UNL d   1      29.655 -16.340  -6.894  0.00  0.00    -0.644 OA
ATOM     26  O   UNL d   1      27.792 -15.200  -6.308  0.00  0.00    -0.644 OA
ENDBRANCH  23  24
ENDBRANCH  14  18
BRANCH   4  27
ATOM     27  C   UNL d   1      27.465 -12.676  -3.212  0.00  0.00     0.094 C 
ATOM     28  N   UNL d   1      27.365 -12.999  -4.524  0.00  0.00    -0.354 N 
ATOM     29  C   UNL d   1      26.282 -12.388  -5.103  0.00  0.00     0.106 C 
ATOM     30  H   UNL d   1      28.096 -13.487  -5.026  0.00  0.00     0.166 HD
ATOM     31  C   UNL d   1      25.597 -11.784  -4.093  0.00  0.00     0.106 C 
ATOM     32  N   UNL d   1      26.315 -12.017  -2.946  0.00  0.00    -0.354 N 
ATOM     33  H   UNL d   1      26.110 -11.647  -2.024  0.00  0.00     0.166 HD
ENDBRANCH   4  27
BRANCH   8  34
ATOM     34  C   UNL d   1      25.600 -17.037  -0.120  0.00  0.00    -0.013 A 
ATOM     35  C   UNL d   1      25.122 -18.200   0.453  0.00  0.00     0.015 A 
ATOM     36  C   UNL d   1      23.924 -18.632  -0.154  0.00  0.00     0.008 A 
ATOM     37  C   UNL d   1      23.516 -17.767  -1.144  0.00  0.00     0.050 A 
ATOM     38  S   UNL d   1      24.579 -16.439  -1.338  0.00  0.00    -0.106 SA
ENDBRANCH   8  34
TORSDOF 4
ENDMDL
MODEL 8
REMARK VINA RESULT:    -5.567      7.210      9.393
REMARK INTER + INTRA:          -9.893
REMARK INTER:                  -6.760
REMARK INTRA:                  -3.132
REMARK CONF_INDEPENDENT:        1.193
REMARK UNBOUND:                -3.132
REMARK  4 active torsions:
REMARK  status: ('A' for Active; 'I' for Inactive)
REMARK    1  A    between atoms: C_4  and  C_5 
REMARK    2  A    between atoms: C_13  and  C_14 
REMARK    3  A    between atoms: N_24  and  C_25 
REMARK    4  A    between atoms: C_30  and  C_31 
ROOT
ATOM      1  C   UNL d   1      28.513 -13.034  -7.566  0.00  0.00     0.063 C 
ATOM      2  C   UNL d   1      28.526 -14.389  -6.842  0.00  0.00     0.004 C 
ATOM      3  C   UNL d   1      29.673 -14.960  -6.439  0.00  0.00    -0.008 C 
ATOM      4  C   UNL d   1      31.082 -14.648  -6.771  0.00  0.00     0.126 C 
ATOM      5  C   UNL d   1      31.609 -15.884  -7.409  0.00  0.00     0.026 A 
ATOM      6  C   UNL d   1      31.071 -17.090  -7.133  0.00  0.00     0.018 A 
ATOM      7  C   UNL d   1      31.554 -18.318  -7.822  0.00  0.00     0.067 A 
ATOM      8  C   UNL d   1      32.735 -18.142  -8.805  0.00  0.00     0.038 A 
ATOM      9  C   UNL d   1      33.281 -16.740  -9.117  0.00  0.00     0.094 A 
ATOM     10  C   UNL d   1      32.685 -15.617  -8.365  0.00  0.00     0.159 A 
ATOM     11  O   UNL d   1      33.119 -14.471  -8.500  0.00  0.00    -0.293 OA
ATOM     12  N   UNL d   1      30.030 -17.224  -6.180  0.00  0.00    -0.371 N 
ATOM     13  C   UNL d   1      29.514 -16.062  -5.420  0.00  0.00     0.210 C 
ATOM     14  N   UNL d   1      28.062 -15.950  -4.994  0.00  0.00    -0.185 NA
ATOM     15  N   UNL d   1      27.482 -15.057  -6.144  0.00  0.00    -0.222 NA
ATOM     16  H   UNL d   1      29.404 -18.022  -6.264  0.00  0.00     0.161 HD
ATOM     17  H   UNL d   1      26.766 -14.405  -5.798  0.00  0.00     0.147 HD
ENDROOT
BRANCH  14  18
ATOM     18  C   UNL d   1      27.948 -15.224  -3.671  0.00  0.00     0.045 C 
ATOM     19  C   UNL d   1      28.906 -15.078  -2.645  0.00  0.00     0.026 C 
ATOM     20  C   UNL d   1      28.466 -14.873  -1.282  0.00  0.00     0.002 C 
ATOM     21  C   UNL d   1      27.114 -14.820  -0.930  0.00  0.00     0.001 C 
ATOM     22  C   UNL d   1      26.201 -14.884  -1.934  0.00  0.00     0.020 C 
ATOM     23  C   UNL d   1      26.650 -14.890  -3.252  0.00  0.00     0.063 C 
BRANCH  23  24
ATOM     24  C   UNL d   1      25.736 -14.132  -4.110  0.00  0.00     0.211 C 
ATOM     25  O   UNL d   1      26.011 -12.939  -4.330  0.00  0.00    -0.644 OA
ATOM     26  O   UNL d   1      24.781 -14.810  -4.645  0.00  0.00    -0.644 OA
ENDBRANCH  23  24
ENDBRANCH  14  18
BRANCH   4  27
ATOM     27  C   UNL d   1      32.027 -14.231  -5.636  0.00  0.00     0.094 C 
ATOM     28  N   UNL d   1      31.712 -13.998  -4.339  0.00  0.00    -0.354 N 
ATOM     29  C   UNL d   1      32.822 -13.636  -3.618  0.00  0.00     0.106 C 
ATOM     30  H   UNL d   1      30.757 -13.938  -4.008  0.00  0.00     0.166 HD
ATOM     31  C   UNL d   1      33.887 -13.793  -4.451  0.00  0.00     0.106 C 
ATOM     32  N   UNL d   1      33.378 -14.202  -5.658  0.00  0.00    -0.354 N 
ATOM     33  H   UNL d   1      33.904 -14.345  -6.515  0.00  0.00     0.166 HD
ENDBRANCH   4  27
BRANCH   8  34
ATOM     34  C   UNL d   1      33.898 -18.901  -8.234  0.00  0.00    -0.013 A 
ATOM     35  C   UNL d   1      34.389 -20.094  -8.730  0.00  0.00     0.015 A 
ATOM     36  C   UNL d   1      35.422 -20.615  -7.921  0.00  0.00     0.008 A 
ATOM     37  C   UNL d   1      35.701 -19.786  -6.858  0.00  0.00     0.050 A 
ATOM     38  S   UNL d   1      34.718 -18.385  -6.839  0.00  0.00    -0.106 SA
ENDBRANCH   8  34
TORSDOF 4
ENDMDL
MODEL 9
REMARK VINA RESULT:    -5.528      5.222      6.860
REMARK INTER + INTRA:          -9.846
REMARK INTER:                  -6.721
REMARK INTRA:                  -3.125
REMARK CONF_INDEPENDENT:        1.193
REMARK UNBOUND:                -3.125
REMARK  4 active torsions:
REMARK  status: ('A' for Active; 'I' for Inactive)
REMARK    1  A    between atoms: C_4  and  C_5 
REMARK    2  A    between atoms: C_13  and  C_14 
REMARK    3  A    between atoms: N_24  and  C_25 
REMARK    4  A    between atoms: C_30  and  C_31 
ROOT
ATOM      1  C   UNL d   1      26.665 -10.993  -8.740  0.00  0.00     0.063 C 
ATOM      2  C   UNL d   1      26.230 -10.528  -7.341  0.00  0.00     0.004 C 
ATOM      3  C   UNL d   1      26.736 -11.083  -6.228  0.00  0.00    -0.008 C 
ATOM      4  C   UNL d   1      27.530 -12.317  -6.031  0.00  0.00     0.126 C 
ATOM      5  C   UNL d   1      26.702 -13.167  -5.133  0.00  0.00     0.026 A 
ATOM      6  C   UNL d   1      25.806 -12.616  -4.290  0.00  0.00     0.018 A 
ATOM      7  C   UNL d   1      24.931 -13.470  -3.440  0.00  0.00     0.067 A 
ATOM      8  C   UNL d   1      25.155 -14.998  -3.531  0.00  0.00     0.038 A 
ATOM      9  C   UNL d   1      26.157 -15.575  -4.542  0.00  0.00     0.094 A 
ATOM     10  C   UNL d   1      26.939 -14.599  -5.327  0.00  0.00     0.159 A 
ATOM     11  O   UNL d   1      27.817 -14.978  -6.105  0.00  0.00    -0.293 OA
ATOM     12  N   UNL d   1      25.671 -11.209  -4.186  0.00  0.00    -0.371 N 
ATOM     13  C   UNL d   1      26.525 -10.283  -4.964  0.00  0.00     0.210 C 
ATOM     14  N   UNL d   1      26.022  -8.943  -5.468  0.00  0.00    -0.185 NA
ATOM     15  N   UNL d   1      25.620  -9.308  -6.937  0.00  0.00    -0.222 NA
ATOM     16  H   UNL d   1      24.780 -10.836  -3.862  0.00  0.00     0.161 HD
ATOM     17  H   UNL d   1      25.818  -8.540  -7.591  0.00  0.00     0.147 HD
ENDROOT
BRANCH  14  18
ATOM     18  C   UNL d   1      27.141  -7.923  -5.478  0.00  0.00     0.045 C 
ATOM     19  C   UNL d   1      27.446  -6.940  -6.444  0.00  0.00     0.026 C 
ATOM     20  C   UNL d   1      28.809  -6.472  -6.579  0.00  0.00     0.002 C 
ATOM     21  C   UNL d   1      29.852  -6.962  -5.790  0.00  0.00     0.001 C 
ATOM     22  C   UNL d   1      29.535  -7.851  -4.811  0.00  0.00     0.020 C 
ATOM     23  C   UNL d   1      28.194  -8.143  -4.576  0.00  0.00     0.063 C 
BRANCH  23  24
ATOM     24  C   UNL d   1      27.953  -8.335  -3.145  0.00  0.00     0.211 C 
ATOM     25  O   UNL d   1      27.314  -7.451  -2.545  0.00  0.00    -0.644 OA
ATOM     26  O   UNL d   1      28.339  -9.464  -2.660  0.00  0.00    -0.644 OA
ENDBRANCH  23  24
ENDBRANCH  14  18
BRANCH   4  27
ATOM     27  C   UNL d   1      28.940 -12.194  -5.440  0.00  0.00     0.094 C 
ATOM     28  N   UNL d   1      29.439 -11.183  -4.689  0.00  0.00    -0.354 N 
ATOM     29  C   UNL d   1      30.747 -11.420  -4.347  0.00  0.00     0.106 C 
ATOM     30  H   UNL d   1      28.952 -10.306  -4.555  0.00  0.00     0.166 HD
ATOM     31  C   UNL d   1      31.031 -12.683  -4.768  0.00  0.00     0.106 C 
ATOM     32  N   UNL d   1      29.897 -13.147  -5.387  0.00  0.00    -0.354 N 
ATOM     33  H   UNL d   1      29.797 -14.035  -5.870  0.00  0.00     0.166 HD
ENDBRANCH   4  27
BRANCH   8  34
ATOM     34  C   UNL d   1      25.645 -15.451  -2.186  0.00  0.00    -0.013 A 
ATOM     35  C   UNL d   1      26.750 -14.945  -1.530  0.00  0.00     0.015 A 
ATOM     36  C   UNL d   1      27.016 -15.640  -0.332  0.00  0.00     0.008 A 
ATOM     37  C   UNL d   1      26.088 -16.629  -0.102  0.00  0.00     0.050 A 
ATOM     38  S   UNL d   1      24.900 -16.716  -1.332  0.00  0.00    -0.106 SA
ENDBRANCH   8  34
TORSDOF 4
ENDMDL
