MODEL 1
REMARK VINA RESULT:    -8.834      0.000      0.000
REMARK INTER + INTRA:         -15.790
REMARK INTER:                 -13.010
REMARK INTRA:                  -2.780
REMARK CONF_INDEPENDENT:        4.176
REMARK UNBOUND:                -2.780
REMARK  14 active torsions:
REMARK  status: ('A' for Active; 'I' for Inactive)
REMARK    1  A    between atoms: C_2  and  C_3 
REMARK    2  A    between atoms: C_3  and  C_4 
REMARK    3  A    between atoms: C_4  and  C_5 
REMARK    4  A    between atoms: C_5  and  C_6 
REMARK    5  A    between atoms: C_6  and  N_7 
REMARK       I    between atoms: N_7  and  C_8 
REMARK    6  A    between atoms: N_7  and  C_18 
REMARK    7  A    between atoms: C_8  and  C_10 
REMARK    8  A    between atoms: C_11  and  C_12 
REMARK    9  A    between atoms: C_18  and  C_19 
REMARK   10  A    between atoms: C_18  and  C_28 
REMARK       I    between atoms: C_19  and  N_21 
REMARK   11  A    between atoms: N_21  and  C_22 
REMARK   12  A    between atoms: C_29  and  O_30 
REMARK   13  A    between atoms: C_32  and  O_33 
REMARK   14  A    between atoms: C_35  and  O_36 
ROOT
ATOM      1  C   UNL d   1      27.470 -15.181  -2.579  0.00  0.00     0.219 C 
ENDROOT
BRANCH   1   2
ATOM      2  N   UNL d   1      26.701 -16.124  -1.686  0.00  0.00    -0.324 N 
ATOM      3  C   UNL d   1      27.253 -16.718  -0.520  0.00  0.00     0.299 C 
ATOM      4  O   UNL d   1      27.273 -17.928  -0.328  0.00  0.00    -0.258 OA
BRANCH   2   5
ATOM      5  C   UNL d   1      25.466 -16.697  -2.229  0.00  0.00     0.128 C 
BRANCH   5   6
ATOM      6  C   UNL d   1      24.272 -16.595  -1.305  0.00  0.00     0.020 C 
BRANCH   6   7
ATOM      7  C   UNL d   1      23.787 -17.936  -0.811  0.00  0.00     0.002 C 
BRANCH   7   8
ATOM      8  C   UNL d   1      22.281 -17.835  -0.626  0.00  0.00    -0.000 C 
BRANCH   8   9
ATOM      9  C   UNL d   1      21.692 -19.212  -0.402  0.00  0.00    -0.005 C 
ATOM     10  C   UNL d   1      20.248 -19.243  -0.858  0.00  0.00     0.005 C 
ENDBRANCH   8   9
ENDBRANCH   7   8
ENDBRANCH   6   7
ENDBRANCH   5   6
ENDBRANCH   2   5
BRANCH   3  11
ATOM     11  C   UNL d   1      27.671 -15.905   0.626  0.00  0.00     0.000 C 
ATOM     12  C   UNL d   1      27.946 -15.195   1.555  0.00  0.00    -0.057 C 
BRANCH  12  13
ATOM     13  C   UNL d   1      28.009 -14.319   2.710  0.00  0.00     0.018 A 
ATOM     14  C   UNL d   1      27.730 -12.958   2.549  0.00  0.00     0.020 A 
ATOM     15  C   UNL d   1      27.744 -12.095   3.649  0.00  0.00     0.001 A 
ATOM     16  C   UNL d   1      27.997 -12.592   4.926  0.00  0.00     0.000 A 
ATOM     17  C   UNL d   1      28.160 -13.963   5.114  0.00  0.00     0.001 A 
ATOM     18  C   UNL d   1      28.160 -14.824   4.012  0.00  0.00     0.020 A 
ENDBRANCH  12  13
ENDBRANCH   3  11
ENDBRANCH   1   2
BRANCH   1  19
ATOM     19  C   UNL d   1      28.053 -15.779  -3.918  0.00  0.00     0.245 C 
ATOM     20  O   UNL d   1      27.516 -15.576  -5.011  0.00  0.00    -0.271 OA
ATOM     21  N   UNL d   1      29.279 -16.418  -3.887  0.00  0.00    -0.354 N 
ATOM     22  H   UNL d   1      29.942 -16.230  -3.149  0.00  0.00     0.162 HD
BRANCH  21  23
ATOM     23  C   UNL d   1      29.733 -17.199  -5.032  0.00  0.00     0.084 C 
ATOM     24  C   UNL d   1      30.538 -16.312  -6.001  0.00  0.00     0.025 C 
ATOM     25  C   UNL d   1      31.106 -17.075  -7.179  0.00  0.00     0.002 C 
ATOM     26  C   UNL d   1      31.907 -18.283  -6.708  0.00  0.00     0.000 C 
ATOM     27  C   UNL d   1      31.055 -19.195  -5.832  0.00  0.00     0.002 C 
ATOM     28  C   UNL d   1      30.508 -18.454  -4.615  0.00  0.00     0.025 C 
ENDBRANCH  21  23
ENDBRANCH   1  19
BRANCH   1  29
ATOM     29  C   UNL d   1      26.701 -13.902  -2.889  0.00  0.00     0.040 A 
ATOM     30  C   UNL d   1      25.657 -13.775  -3.814  0.00  0.00     0.080 A 
ATOM     31  C   UNL d   1      25.158 -12.511  -4.166  0.00  0.00     0.073 A 
ATOM     32  C   UNL d   1      25.684 -11.370  -3.576  0.00  0.00     0.071 A 
ATOM     33  C   UNL d   1      26.636 -11.478  -2.584  0.00  0.00     0.073 A 
ATOM     34  C   UNL d   1      27.144 -12.728  -2.259  0.00  0.00     0.080 A 
BRANCH  30  35
ATOM     35  O   UNL d   1      25.065 -14.825  -4.455  0.00  0.00    -0.360 OA
ATOM     36  H   UNL d   1      25.708 -15.330  -4.970  0.00  0.00     0.217 HD
ENDBRANCH  30  35
BRANCH  32  37
ATOM     37  O   UNL d   1      25.327 -10.107  -3.946  0.00  0.00    -0.361 OA
ATOM     38  H   UNL d   1      24.620 -10.157  -4.607  0.00  0.00     0.217 HD
ENDBRANCH  32  37
BRANCH  34  39
ATOM     39  O   UNL d   1      28.233 -12.829  -1.425  0.00  0.00    -0.360 OA
ATOM     40  H   UNL d   1      27.963 -12.615  -0.522  0.00  0.00     0.217 HD
ENDBRANCH  34  39
ENDBRANCH   1  29
TORSDOF 14
ENDMDL
MODEL 2
REMARK VINA RESULT:    -7.983      2.159      7.242
REMARK INTER + INTRA:         -15.925
REMARK INTER:                 -12.159
REMARK INTRA:                  -3.766
REMARK CONF_INDEPENDENT:        4.176
REMARK UNBOUND:                -3.766
REMARK  14 active torsions:
REMARK  status: ('A' for Active; 'I' for Inactive)
REMARK    1  A    between atoms: C_2  and  C_3 
REMARK    2  A    between atoms: C_3  and  C_4 
REMARK    3  A    between atoms: C_4  and  C_5 
REMARK    4  A    between atoms: C_5  and  C_6 
REMARK    5  A    between atoms: C_6  and  N_7 
REMARK       I    between atoms: N_7  and  C_8 
REMARK    6  A    between atoms: N_7  and  C_18 
REMARK    7  A    between atoms: C_8  and  C_10 
REMARK    8  A    between atoms: C_11  and  C_12 
REMARK    9  A    between atoms: C_18  and  C_19 
REMARK   10  A    between atoms: C_18  and  C_28 
REMARK       I    between atoms: C_19  and  N_21 
REMARK   11  A    between atoms: N_21  and  C_22 
REMARK   12  A    between atoms: C_29  and  O_30 
REMARK   13  A    between atoms: C_32  and  O_33 
REMARK   14  A    between atoms: C_35  and  O_36 
ROOT
ATOM      1  C   UNL d   1      25.915 -15.152  -0.505  0.00  0.00     0.219 C 
ENDROOT
BRANCH   1   2
ATOM      2  N   UNL d   1      26.236 -16.623  -0.602  0.00  0.00    -0.324 N 
ATOM      3  C   UNL d   1      25.580 -17.617   0.171  0.00  0.00     0.299 C 
ATOM      4  O   UNL d   1      26.177 -18.416   0.884  0.00  0.00    -0.258 OA
BRANCH   2   5
ATOM      5  C   UNL d   1      27.489 -16.988  -1.270  0.00  0.00     0.128 C 
BRANCH   5   6
ATOM      6  C   UNL d   1      28.675 -17.119  -0.340  0.00  0.00     0.020 C 
BRANCH   6   7
ATOM      7  C   UNL d   1      29.886 -16.349  -0.809  0.00  0.00     0.002 C 
BRANCH   7   8
ATOM      8  C   UNL d   1      30.265 -16.889  -2.179  0.00  0.00    -0.000 C 
BRANCH   8   9
ATOM      9  C   UNL d   1      30.179 -15.786  -3.214  0.00  0.00    -0.005 C 
ATOM     10  C   UNL d   1      28.898 -15.916  -4.011  0.00  0.00     0.005 C 
ENDBRANCH   8   9
ENDBRANCH   7   8
ENDBRANCH   6   7
ENDBRANCH   5   6
ENDBRANCH   2   5
BRANCH   3  11
ATOM     11  C   UNL d   1      24.145 -17.877   0.023  0.00  0.00     0.000 C 
ATOM     12  C   UNL d   1      22.985 -18.169  -0.091  0.00  0.00    -0.057 C 
BRANCH  12  13
ATOM     13  C   UNL d   1      21.647 -18.728  -0.063  0.00  0.00     0.018 A 
ATOM     14  C   UNL d   1      21.027 -19.075  -1.268  0.00  0.00     0.020 A 
ATOM     15  C   UNL d   1      19.753 -19.652  -1.271  0.00  0.00     0.001 A 
ATOM     16  C   UNL d   1      19.105 -19.925  -0.068  0.00  0.00     0.000 A 
ATOM     17  C   UNL d   1      19.761 -19.693   1.139  0.00  0.00     0.001 A 
ATOM     18  C   UNL d   1      21.029 -19.103   1.142  0.00  0.00     0.020 A 
ENDBRANCH  12  13
ENDBRANCH   3  11
ENDBRANCH   1   2
BRANCH   1  19
ATOM     19  C   UNL d   1      26.644 -14.333   0.630  0.00  0.00     0.245 C 
ATOM     20  O   UNL d   1      26.450 -13.124   0.789  0.00  0.00    -0.271 OA
ATOM     21  N   UNL d   1      27.401 -15.015   1.565  0.00  0.00    -0.354 N 
ATOM     22  H   UNL d   1      27.239 -15.994   1.746  0.00  0.00     0.162 HD
BRANCH  21  23
ATOM     23  C   UNL d   1      28.289 -14.289   2.467  0.00  0.00     0.084 C 
ATOM     24  C   UNL d   1      28.013 -14.689   3.928  0.00  0.00     0.025 C 
ATOM     25  C   UNL d   1      28.950 -14.029   4.917  0.00  0.00     0.002 C 
ATOM     26  C   UNL d   1      30.404 -14.262   4.524  0.00  0.00     0.000 C 
ATOM     27  C   UNL d   1      30.673 -13.764   3.108  0.00  0.00     0.002 C 
ATOM     28  C   UNL d   1      29.766 -14.451   2.090  0.00  0.00     0.025 C 
ENDBRANCH  21  23
ENDBRANCH   1  19
BRANCH   1  29
ATOM     29  C   UNL d   1      26.073 -14.423  -1.834  0.00  0.00     0.040 A 
ATOM     30  C   UNL d   1      27.111 -13.547  -2.173  0.00  0.00     0.080 A 
ATOM     31  C   UNL d   1      27.051 -12.777  -3.345  0.00  0.00     0.073 A 
ATOM     32  C   UNL d   1      25.961 -12.898  -4.196  0.00  0.00     0.071 A 
ATOM     33  C   UNL d   1      24.980 -13.833  -3.939  0.00  0.00     0.073 A 
ATOM     34  C   UNL d   1      25.033 -14.572  -2.767  0.00  0.00     0.080 A 
BRANCH  30  35
ATOM     35  O   UNL d   1      28.229 -13.348  -1.413  0.00  0.00    -0.360 OA
ATOM     36  H   UNL d   1      28.040 -12.779  -0.655  0.00  0.00     0.217 HD
ENDBRANCH  30  35
BRANCH  32  37
ATOM     37  O   UNL d   1      25.781 -12.107  -5.292  0.00  0.00    -0.361 OA
ATOM     38  H   UNL d   1      25.049 -11.494  -5.127  0.00  0.00     0.217 HD
ENDBRANCH  32  37
BRANCH  34  39
ATOM     39  O   UNL d   1      23.961 -15.353  -2.400  0.00  0.00    -0.360 OA
ATOM     40  H   UNL d   1      23.383 -14.845  -1.816  0.00  0.00     0.217 HD
ENDBRANCH  34  39
ENDBRANCH   1  29
TORSDOF 14
ENDMDL
MODEL 3
REMARK VINA RESULT:    -7.907      2.280      4.864
REMARK INTER + INTRA:         -15.697
REMARK INTER:                 -12.083
REMARK INTRA:                  -3.614
REMARK CONF_INDEPENDENT:        4.176
REMARK UNBOUND:                -3.614
REMARK  14 active torsions:
REMARK  status: ('A' for Active; 'I' for Inactive)
REMARK    1  A    between atoms: C_2  and  C_3 
REMARK    2  A    between atoms: C_3  and  C_4 
REMARK    3  A    between atoms: C_4  and  C_5 
REMARK    4  A    between atoms: C_5  and  C_6 
REMARK    5  A    between atoms: C_6  and  N_7 
REMARK       I    between atoms: N_7  and  C_8 
REMARK    6  A    between atoms: N_7  and  C_18 
REMARK    7  A    between atoms: C_8  and  C_10 
REMARK    8  A    between atoms: C_11  and  C_12 
REMARK    9  A    between atoms: C_18  and  C_19 
REMARK   10  A    between atoms: C_18  and  C_28 
REMARK       I    between atoms: C_19  and  N_21 
REMARK   11  A    between atoms: N_21  and  C_22 
REMARK   12  A    between atoms: C_29  and  O_30 
REMARK   13  A    between atoms: C_32  and  O_33 
REMARK   14  A    between atoms: C_35  and  O_36 
ROOT
ATOM      1  C   UNL d   1      26.181 -14.444  -1.484  0.00  0.00     0.219 C 
ENDROOT
BRANCH   1   2
ATOM      2  N   UNL d   1      26.441 -15.757  -0.786  0.00  0.00    -0.324 N 
ATOM      3  C   UNL d   1      27.556 -15.981   0.063  0.00  0.00     0.299 C 
ATOM      4  O   UNL d   1      28.352 -16.899  -0.102  0.00  0.00    -0.258 OA
BRANCH   2   5
ATOM      5  C   UNL d   1      25.701 -16.926  -1.272  0.00  0.00     0.128 C 
BRANCH   5   6
ATOM      6  C   UNL d   1      24.205 -16.847  -1.065  0.00  0.00     0.020 C 
BRANCH   6   7
ATOM      7  C   UNL d   1      23.615 -18.118  -0.504  0.00  0.00     0.002 C 
BRANCH   7   8
ATOM      8  C   UNL d   1      22.141 -18.141  -0.882  0.00  0.00    -0.000 C 
BRANCH   8   9
ATOM      9  C   UNL d   1      21.449 -19.304  -0.203  0.00  0.00    -0.005 C 
ATOM     10  C   UNL d   1      20.022 -19.422  -0.695  0.00  0.00     0.005 C 
ENDBRANCH   8   9
ENDBRANCH   7   8
ENDBRANCH   6   7
ENDBRANCH   5   6
ENDBRANCH   2   5
BRANCH   3  11
ATOM     11  C   UNL d   1      27.725 -15.235   1.313  0.00  0.00     0.000 C 
ATOM     12  C   UNL d   1      27.854 -14.693   2.378  0.00  0.00    -0.057 C 
BRANCH  12  13
ATOM     13  C   UNL d   1      28.116 -14.277   3.743  0.00  0.00     0.018 A 
ATOM     14  C   UNL d   1      27.806 -12.969   4.129  0.00  0.00     0.020 A 
ATOM     15  C   UNL d   1      28.010 -12.549   5.446  0.00  0.00     0.001 A 
ATOM     16  C   UNL d   1      28.488 -13.445   6.400  0.00  0.00     0.000 A 
ATOM     17  C   UNL d   1      28.689 -14.780   6.056  0.00  0.00     0.001 A 
ATOM     18  C   UNL d   1      28.497 -15.197   4.734  0.00  0.00     0.020 A 
ENDBRANCH  12  13
ENDBRANCH   3  11
ENDBRANCH   1   2
BRANCH   1  19
ATOM     19  C   UNL d   1      26.719 -13.139  -0.779  0.00  0.00     0.245 C 
ATOM     20  O   UNL d   1      26.281 -12.758   0.311  0.00  0.00    -0.271 OA
ATOM     21  N   UNL d   1      27.815 -12.491  -1.320  0.00  0.00    -0.354 N 
ATOM     22  H   UNL d   1      28.461 -12.981  -1.920  0.00  0.00     0.162 HD
BRANCH  21  23
ATOM     23  C   UNL d   1      28.185 -11.158  -0.857  0.00  0.00     0.084 C 
ATOM     24  C   UNL d   1      27.035 -10.164  -1.108  0.00  0.00     0.025 C 
ATOM     25  C   UNL d   1      27.321  -8.773  -0.583  0.00  0.00     0.002 C 
ATOM     26  C   UNL d   1      27.727  -8.820   0.885  0.00  0.00     0.000 C 
ATOM     27  C   UNL d   1      28.931  -9.733   1.089  0.00  0.00     0.002 C 
ATOM     28  C   UNL d   1      28.647 -11.153   0.605  0.00  0.00     0.025 C 
ENDBRANCH  21  23
ENDBRANCH   1  19
BRANCH   1  29
ATOM     29  C   UNL d   1      26.626 -14.451  -2.941  0.00  0.00     0.040 A 
ATOM     30  C   UNL d   1      25.787 -14.357  -4.058  0.00  0.00     0.080 A 
ATOM     31  C   UNL d   1      26.283 -14.577  -5.353  0.00  0.00     0.073 A 
ATOM     32  C   UNL d   1      27.627 -14.869  -5.538  0.00  0.00     0.071 A 
ATOM     33  C   UNL d   1      28.493 -14.861  -4.465  0.00  0.00     0.073 A 
ATOM     34  C   UNL d   1      27.992 -14.668  -3.186  0.00  0.00     0.080 A 
BRANCH  30  35
ATOM     35  O   UNL d   1      24.452 -14.075  -3.995  0.00  0.00    -0.360 OA
ATOM     36  H   UNL d   1      24.110 -13.802  -4.857  0.00  0.00     0.217 HD
ENDBRANCH  30  35
BRANCH  32  37
ATOM     37  O   UNL d   1      28.157 -15.201  -6.750  0.00  0.00    -0.361 OA
ATOM     38  H   UNL d   1      28.786 -14.516  -7.021  0.00  0.00     0.217 HD
ENDBRANCH  32  37
BRANCH  34  39
ATOM     39  O   UNL d   1      28.808 -14.861  -2.094  0.00  0.00    -0.360 OA
ATOM     40  H   UNL d   1      28.851 -15.805  -1.893  0.00  0.00     0.217 HD
ENDBRANCH  34  39
ENDBRANCH   1  29
TORSDOF 14
ENDMDL
MODEL 4
REMARK VINA RESULT:    -7.817      2.101      4.726
REMARK INTER + INTRA:         -16.007
REMARK INTER:                 -11.993
REMARK INTRA:                  -4.014
REMARK CONF_INDEPENDENT:        4.176
REMARK UNBOUND:                -4.014
REMARK  14 active torsions:
REMARK  status: ('A' for Active; 'I' for Inactive)
REMARK    1  A    between atoms: C_2  and  C_3 
REMARK    2  A    between atoms: C_3  and  C_4 
REMARK    3  A    between atoms: C_4  and  C_5 
REMARK    4  A    between atoms: C_5  and  C_6 
REMARK    5  A    between atoms: C_6  and  N_7 
REMARK       I    between atoms: N_7  and  C_8 
REMARK    6  A    between atoms: N_7  and  C_18 
REMARK    7  A    between atoms: C_8  and  C_10 
REMARK    8  A    between atoms: C_11  and  C_12 
REMARK    9  A    between atoms: C_18  and  C_19 
REMARK   10  A    between atoms: C_18  and  C_28 
REMARK       I    between atoms: C_19  and  N_21 
REMARK   11  A    between atoms: N_21  and  C_22 
REMARK   12  A    between atoms: C_29  and  O_30 
REMARK   13  A    between atoms: C_32  and  O_33 
REMARK   14  A    between atoms: C_35  and  O_36 
ROOT
ATOM      1  C   UNL d   1      26.077 -14.879  -1.761  0.00  0.00     0.219 C 
ENDROOT
BRANCH   1   2
ATOM      2  N   UNL d   1      25.918 -16.128  -0.928  0.00  0.00    -0.324 N 
ATOM      3  C   UNL d   1      26.942 -16.640  -0.089  0.00  0.00     0.299 C 
ATOM      4  O   UNL d   1      27.366 -17.787  -0.171  0.00  0.00    -0.258 OA
BRANCH   2   5
ATOM      5  C   UNL d   1      24.796 -17.011  -1.260  0.00  0.00     0.128 C 
BRANCH   5   6
ATOM      6  C   UNL d   1      24.324 -17.877  -0.113  0.00  0.00     0.020 C 
BRANCH   6   7
ATOM      7  C   UNL d   1      23.226 -18.836  -0.505  0.00  0.00     0.002 C 
BRANCH   7   8
ATOM      8  C   UNL d   1      21.939 -18.033  -0.615  0.00  0.00    -0.000 C 
BRANCH   8   9
ATOM      9  C   UNL d   1      20.773 -18.958  -0.896  0.00  0.00    -0.005 C 
ATOM     10  C   UNL d   1      20.394 -19.716   0.358  0.00  0.00     0.005 C 
ENDBRANCH   8   9
ENDBRANCH   7   8
ENDBRANCH   6   7
ENDBRANCH   5   6
ENDBRANCH   2   5
BRANCH   3  11
ATOM     11  C   UNL d   1      27.434 -15.882   1.065  0.00  0.00     0.000 C 
ATOM     12  C   UNL d   1      27.780 -15.206   1.997  0.00  0.00    -0.057 C 
BRANCH  12  13
ATOM     13  C   UNL d   1      27.934 -14.323   3.137  0.00  0.00     0.018 A 
ATOM     14  C   UNL d   1      27.663 -12.959   2.985  0.00  0.00     0.020 A 
ATOM     15  C   UNL d   1      27.765 -12.089   4.074  0.00  0.00     0.001 A 
ATOM     16  C   UNL d   1      28.098 -12.580   5.334  0.00  0.00     0.000 A 
ATOM     17  C   UNL d   1      28.255 -13.951   5.522  0.00  0.00     0.001 A 
ATOM     18  C   UNL d   1      28.167 -14.821   4.430  0.00  0.00     0.020 A 
ENDBRANCH  12  13
ENDBRANCH   3  11
ENDBRANCH   1   2
BRANCH   1  19
ATOM     19  C   UNL d   1      26.744 -13.632  -1.062  0.00  0.00     0.245 C 
ATOM     20  O   UNL d   1      26.280 -13.136  -0.030  0.00  0.00    -0.271 OA
ATOM     21  N   UNL d   1      27.964 -13.176  -1.529  0.00  0.00    -0.354 N 
ATOM     22  H   UNL d   1      28.577 -13.785  -2.050  0.00  0.00     0.162 HD
BRANCH  21  23
ATOM     23  C   UNL d   1      28.489 -11.889  -1.087  0.00  0.00     0.084 C 
ATOM     24  C   UNL d   1      27.407 -10.800  -1.205  0.00  0.00     0.025 C 
ATOM     25  C   UNL d   1      27.859  -9.449  -0.691  0.00  0.00     0.002 C 
ATOM     26  C   UNL d   1      28.405  -9.563   0.727  0.00  0.00     0.000 C 
ATOM     27  C   UNL d   1      29.543 -10.576   0.794  0.00  0.00     0.002 C 
ATOM     28  C   UNL d   1      29.095 -11.956   0.320  0.00  0.00     0.025 C 
ENDBRANCH  21  23
ENDBRANCH   1  19
BRANCH   1  29
ATOM     29  C   UNL d   1      26.770 -15.142  -3.093  0.00  0.00     0.040 A 
ATOM     30  C   UNL d   1      28.095 -15.561  -3.262  0.00  0.00     0.080 A 
ATOM     31  C   UNL d   1      28.689 -15.577  -4.534  0.00  0.00     0.073 A 
ATOM     32  C   UNL d   1      27.952 -15.195  -5.646  0.00  0.00     0.071 A 
ATOM     33  C   UNL d   1      26.615 -14.883  -5.518  0.00  0.00     0.073 A 
ATOM     34  C   UNL d   1      26.041 -14.845  -4.256  0.00  0.00     0.080 A 
BRANCH  30  35
ATOM     35  O   UNL d   1      28.912 -15.958  -2.241  0.00  0.00    -0.360 OA
ATOM     36  H   UNL d   1      28.475 -16.606  -1.674  0.00  0.00     0.217 HD
ENDBRANCH  30  35
BRANCH  32  37
ATOM     37  O   UNL d   1      28.491 -15.081  -6.893  0.00  0.00    -0.361 OA
ATOM     38  H   UNL d   1      27.929 -14.504  -7.432  0.00  0.00     0.217 HD
ENDBRANCH  32  37
BRANCH  34  39
ATOM     39  O   UNL d   1      24.772 -14.338  -4.096  0.00  0.00    -0.360 OA
ATOM     40  H   UNL d   1      24.431 -14.059  -4.955  0.00  0.00     0.217 HD
ENDBRANCH  34  39
ENDBRANCH   1  29
TORSDOF 14
ENDMDL
MODEL 5
REMARK VINA RESULT:    -7.416      2.110      7.495
REMARK INTER + INTRA:         -15.115
REMARK INTER:                 -11.592
REMARK INTRA:                  -3.523
REMARK CONF_INDEPENDENT:        4.176
REMARK UNBOUND:                -3.523
REMARK  14 active torsions:
REMARK  status: ('A' for Active; 'I' for Inactive)
REMARK    1  A    between atoms: C_2  and  C_3 
REMARK    2  A    between atoms: C_3  and  C_4 
REMARK    3  A    between atoms: C_4  and  C_5 
REMARK    4  A    between atoms: C_5  and  C_6 
REMARK    5  A    between atoms: C_6  and  N_7 
REMARK       I    between atoms: N_7  and  C_8 
REMARK    6  A    between atoms: N_7  and  C_18 
REMARK    7  A    between atoms: C_8  and  C_10 
REMARK    8  A    between atoms: C_11  and  C_12 
REMARK    9  A    between atoms: C_18  and  C_19 
REMARK   10  A    between atoms: C_18  and  C_28 
REMARK       I    between atoms: C_19  and  N_21 
REMARK   11  A    between atoms: N_21  and  C_22 
REMARK   12  A    between atoms: C_29  and  O_30 
REMARK   13  A    between atoms: C_32  and  O_33 
REMARK   14  A    between atoms: C_35  and  O_36 
ROOT
ATOM      1  C   UNL d   1      26.943 -14.017  -0.533  0.00  0.00     0.219 C 
ENDROOT
BRANCH   1   2
ATOM      2  N   UNL d   1      25.961 -14.990  -1.140  0.00  0.00    -0.324 N 
ATOM      3  C   UNL d   1      25.501 -14.898  -2.480  0.00  0.00     0.299 C 
ATOM      4  O   UNL d   1      24.313 -14.846  -2.780  0.00  0.00    -0.258 OA
BRANCH   2   5
ATOM      5  C   UNL d   1      25.215 -15.847  -0.214  0.00  0.00     0.128 C 
BRANCH   5   6
ATOM      6  C   UNL d   1      25.695 -17.281  -0.167  0.00  0.00     0.020 C 
BRANCH   6   7
ATOM      7  C   UNL d   1      24.595 -18.266   0.144  0.00  0.00     0.002 C 
BRANCH   7   8
ATOM      8  C   UNL d   1      23.621 -18.245  -1.024  0.00  0.00    -0.000 C 
BRANCH   8   9
ATOM      9  C   UNL d   1      22.244 -17.835  -0.546  0.00  0.00    -0.005 C 
ATOM     10  C   UNL d   1      21.244 -18.936  -0.830  0.00  0.00     0.005 C 
ENDBRANCH   8   9
ENDBRANCH   7   8
ENDBRANCH   6   7
ENDBRANCH   5   6
ENDBRANCH   2   5
BRANCH   3  11
ATOM     11  C   UNL d   1      26.417 -15.049  -3.614  0.00  0.00     0.000 C 
ATOM     12  C   UNL d   1      27.219 -15.123  -4.506  0.00  0.00    -0.057 C 
BRANCH  12  13
ATOM     13  C   UNL d   1      28.372 -15.180  -5.385  0.00  0.00     0.018 A 
ATOM     14  C   UNL d   1      28.561 -14.165  -6.328  0.00  0.00     0.020 A 
ATOM     15  C   UNL d   1      29.682 -14.171  -7.163  0.00  0.00     0.001 A 
ATOM     16  C   UNL d   1      30.645 -15.169  -7.034  0.00  0.00     0.000 A 
ATOM     17  C   UNL d   1      30.527 -16.118  -6.022  0.00  0.00     0.001 A 
ATOM     18  C   UNL d   1      29.398 -16.121  -5.196  0.00  0.00     0.020 A 
ENDBRANCH  12  13
ENDBRANCH   3  11
ENDBRANCH   1   2
BRANCH   1  19
ATOM     19  C   UNL d   1      26.738 -13.648   0.987  0.00  0.00     0.245 C 
ATOM     20  O   UNL d   1      25.905 -12.811   1.349  0.00  0.00    -0.271 OA
ATOM     21  N   UNL d   1      27.400 -14.388   1.950  0.00  0.00    -0.354 N 
ATOM     22  H   UNL d   1      27.725 -15.323   1.751  0.00  0.00     0.162 HD
BRANCH  21  23
ATOM     23  C   UNL d   1      27.443 -13.928   3.333  0.00  0.00     0.084 C 
ATOM     24  C   UNL d   1      28.158 -14.964   4.221  0.00  0.00     0.025 C 
ATOM     25  C   UNL d   1      28.306 -14.518   5.661  0.00  0.00     0.002 C 
ATOM     26  C   UNL d   1      28.964 -13.146   5.739  0.00  0.00     0.000 C 
ATOM     27  C   UNL d   1      28.178 -12.118   4.932  0.00  0.00     0.002 C 
ATOM     28  C   UNL d   1      28.055 -12.529   3.467  0.00  0.00     0.025 C 
ENDBRANCH  21  23
ENDBRANCH   1  19
BRANCH   1  29
ATOM     29  C   UNL d   1      28.394 -14.422  -0.764  0.00  0.00     0.040 A 
ATOM     30  C   UNL d   1      29.051 -15.504  -0.165  0.00  0.00     0.080 A 
ATOM     31  C   UNL d   1      30.440 -15.664  -0.293  0.00  0.00     0.073 A 
ATOM     32  C   UNL d   1      31.175 -14.754  -1.040  0.00  0.00     0.071 A 
ATOM     33  C   UNL d   1      30.536 -13.744  -1.727  0.00  0.00     0.073 A 
ATOM     34  C   UNL d   1      29.167 -13.576  -1.576  0.00  0.00     0.080 A 
BRANCH  30  35
ATOM     35  O   UNL d   1      28.430 -16.458   0.590  0.00  0.00    -0.360 OA
ATOM     36  H   UNL d   1      28.967 -16.704   1.355  0.00  0.00     0.217 HD
ENDBRANCH  30  35
BRANCH  32  37
ATOM     37  O   UNL d   1      32.536 -14.782  -1.119  0.00  0.00    -0.361 OA
ATOM     38  H   UNL d   1      32.823 -15.673  -1.371  0.00  0.00     0.217 HD
ENDBRANCH  32  37
BRANCH  34  39
ATOM     39  O   UNL d   1      28.553 -12.456  -2.087  0.00  0.00    -0.360 OA
ATOM     40  H   UNL d   1      28.654 -12.449  -3.048  0.00  0.00     0.217 HD
ENDBRANCH  34  39
ENDBRANCH   1  29
TORSDOF 14
ENDMDL
MODEL 6
REMARK VINA RESULT:    -6.557      3.234      7.841
REMARK INTER + INTRA:         -14.755
REMARK INTER:                 -10.733
REMARK INTRA:                  -4.022
REMARK CONF_INDEPENDENT:        4.176
REMARK UNBOUND:                -4.022
REMARK  14 active torsions:
REMARK  status: ('A' for Active; 'I' for Inactive)
REMARK    1  A    between atoms: C_2  and  C_3 
REMARK    2  A    between atoms: C_3  and  C_4 
REMARK    3  A    between atoms: C_4  and  C_5 
REMARK    4  A    between atoms: C_5  and  C_6 
REMARK    5  A    between atoms: C_6  and  N_7 
REMARK       I    between atoms: N_7  and  C_8 
REMARK    6  A    between atoms: N_7  and  C_18 
REMARK    7  A    between atoms: C_8  and  C_10 
REMARK    8  A    between atoms: C_11  and  C_12 
REMARK    9  A    between atoms: C_18  and  C_19 
REMARK   10  A    between atoms: C_18  and  C_28 
REMARK       I    between atoms: C_19  and  N_21 
REMARK   11  A    between atoms: N_21  and  C_22 
REMARK   12  A    between atoms: C_29  and  O_30 
REMARK   13  A    between atoms: C_32  and  O_33 
REMARK   14  A    between atoms: C_35  and  O_36 
ROOT
ATOM      1  C   UNL d   1      27.673 -13.124  -5.363  0.00  0.00     0.219 C 
ENDROOT
BRANCH   1   2
ATOM      2  N   UNL d   1      29.148 -12.837  -5.508  0.00  0.00    -0.324 N 
ATOM      3  C   UNL d   1      30.161 -13.679  -4.980  0.00  0.00     0.299 C 
ATOM      4  O   UNL d   1      31.038 -13.280  -4.221  0.00  0.00    -0.258 OA
BRANCH   2   5
ATOM      5  C   UNL d   1      29.525 -11.479  -5.914  0.00  0.00     0.128 C 
BRANCH   5   6
ATOM      6  C   UNL d   1      29.192 -11.143  -7.351  0.00  0.00     0.020 C 
BRANCH   6   7
ATOM      7  C   UNL d   1      28.757 -12.342  -8.157  0.00  0.00     0.002 C 
BRANCH   7   8
ATOM      8  C   UNL d   1      29.053 -12.040  -9.618  0.00  0.00    -0.000 C 
BRANCH   8   9
ATOM      9  C   UNL d   1      27.847 -11.397 -10.269  0.00  0.00    -0.005 C 
ATOM     10  C   UNL d   1      26.658 -11.447  -9.333  0.00  0.00     0.005 C 
ENDBRANCH   8   9
ENDBRANCH   7   8
ENDBRANCH   6   7
ENDBRANCH   5   6
ENDBRANCH   2   5
BRANCH   3  11
ATOM     11  C   UNL d   1      30.338 -15.053  -5.458  0.00  0.00     0.000 C 
ATOM     12  C   UNL d   1      30.480 -16.204  -5.773  0.00  0.00    -0.057 C 
BRANCH  12  13
ATOM     13  C   UNL d   1      30.496 -17.646  -5.935  0.00  0.00     0.018 A 
ATOM     14  C   UNL d   1      30.782 -18.187  -7.192  0.00  0.00     0.020 A 
ATOM     15  C   UNL d   1      30.843 -19.572  -7.372  0.00  0.00     0.001 A 
ATOM     16  C   UNL d   1      30.660 -20.428  -6.288  0.00  0.00     0.000 A 
ATOM     17  C   UNL d   1      30.492 -19.899  -5.011  0.00  0.00     0.001 A 
ATOM     18  C   UNL d   1      30.417 -18.513  -4.833  0.00  0.00     0.020 A 
ENDBRANCH  12  13
ENDBRANCH   3  11
ENDBRANCH   1   2
BRANCH   1  19
ATOM     19  C   UNL d   1      27.272 -14.527  -4.763  0.00  0.00     0.245 C 
ATOM     20  O   UNL d   1      26.965 -15.481  -5.485  0.00  0.00    -0.271 OA
ATOM     21  N   UNL d   1      27.413 -14.738  -3.404  0.00  0.00    -0.354 N 
ATOM     22  H   UNL d   1      28.050 -14.178  -2.857  0.00  0.00     0.162 HD
BRANCH  21  23
ATOM     23  C   UNL d   1      26.823 -15.914  -2.775  0.00  0.00     0.084 C 
ATOM     24  C   UNL d   1      27.565 -16.252  -1.468  0.00  0.00     0.025 C 
ATOM     25  C   UNL d   1      26.958 -17.421  -0.720  0.00  0.00     0.002 C 
ATOM     26  C   UNL d   1      25.466 -17.203  -0.492  0.00  0.00     0.000 C 
ATOM     27  C   UNL d   1      24.741 -16.970  -1.813  0.00  0.00     0.002 C 
ATOM     28  C   UNL d   1      25.312 -15.769  -2.563  0.00  0.00     0.025 C 
ENDBRANCH  21  23
ENDBRANCH   1  19
BRANCH   1  29
ATOM     29  C   UNL d   1      26.928 -12.023  -4.617  0.00  0.00     0.040 A 
ATOM     30  C   UNL d   1      25.910 -11.217  -5.142  0.00  0.00     0.080 A 
ATOM     31  C   UNL d   1      25.435 -10.104  -4.432  0.00  0.00     0.073 A 
ATOM     32  C   UNL d   1      25.960  -9.804  -3.183  0.00  0.00     0.071 A 
ATOM     33  C   UNL d   1      26.885 -10.644  -2.599  0.00  0.00     0.073 A 
ATOM     34  C   UNL d   1      27.369 -11.729  -3.316  0.00  0.00     0.080 A 
BRANCH  30  35
ATOM     35  O   UNL d   1      25.321 -11.418  -6.358  0.00  0.00    -0.360 OA
ATOM     36  H   UNL d   1      24.369 -11.559  -6.267  0.00  0.00     0.217 HD
ENDBRANCH  30  35
BRANCH  32  37
ATOM     37  O   UNL d   1      25.628  -8.681  -2.485  0.00  0.00    -0.361 OA
ATOM     38  H   UNL d   1      24.781  -8.342  -2.810  0.00  0.00     0.217 HD
ENDBRANCH  32  37
BRANCH  34  39
ATOM     39  O   UNL d   1      28.435 -12.451  -2.831  0.00  0.00    -0.360 OA
ATOM     40  H   UNL d   1      29.124 -12.492  -3.506  0.00  0.00     0.217 HD
ENDBRANCH  34  39
ENDBRANCH   1  29
TORSDOF 14
ENDMDL
MODEL 7
REMARK VINA RESULT:    -6.425      2.674      7.021
REMARK INTER + INTRA:         -14.892
REMARK INTER:                 -10.601
REMARK INTRA:                  -4.290
REMARK CONF_INDEPENDENT:        4.176
REMARK UNBOUND:                -4.290
REMARK  14 active torsions:
REMARK  status: ('A' for Active; 'I' for Inactive)
REMARK    1  A    between atoms: C_2  and  C_3 
REMARK    2  A    between atoms: C_3  and  C_4 
REMARK    3  A    between atoms: C_4  and  C_5 
REMARK    4  A    between atoms: C_5  and  C_6 
REMARK    5  A    between atoms: C_6  and  N_7 
REMARK       I    between atoms: N_7  and  C_8 
REMARK    6  A    between atoms: N_7  and  C_18 
REMARK    7  A    between atoms: C_8  and  C_10 
REMARK    8  A    between atoms: C_11  and  C_12 
REMARK    9  A    between atoms: C_18  and  C_19 
REMARK   10  A    between atoms: C_18  and  C_28 
REMARK       I    between atoms: C_19  and  N_21 
REMARK   11  A    between atoms: N_21  and  C_22 
REMARK   12  A    between atoms: C_29  and  O_30 
REMARK   13  A    between atoms: C_32  and  O_33 
REMARK   14  A    between atoms: C_35  and  O_36 
ROOT
ATOM      1  C   UNL d   1      27.445 -15.038  -0.305  0.00  0.00     0.219 C 
ENDROOT
BRANCH   1   2
ATOM      2  N   UNL d   1      27.537 -14.054  -1.445  0.00  0.00    -0.324 N 
ATOM      3  C   UNL d   1      26.876 -12.798  -1.446  0.00  0.00     0.299 C 
ATOM      4  O   UNL d   1      26.113 -12.441  -2.337  0.00  0.00    -0.258 OA
BRANCH   2   5
ATOM      5  C   UNL d   1      28.052 -14.560  -2.721  0.00  0.00     0.128 C 
BRANCH   5   6
ATOM      6  C   UNL d   1      28.352 -13.485  -3.743  0.00  0.00     0.020 C 
BRANCH   6   7
ATOM      7  C   UNL d   1      27.735 -13.759  -5.093  0.00  0.00     0.002 C 
BRANCH   7   8
ATOM      8  C   UNL d   1      27.236 -15.196  -5.081  0.00  0.00    -0.000 C 
BRANCH   8   9
ATOM      9  C   UNL d   1      25.723 -15.219  -5.018  0.00  0.00    -0.005 C 
ATOM     10  C   UNL d   1      25.195 -13.849  -4.646  0.00  0.00     0.005 C 
ENDBRANCH   8   9
ENDBRANCH   7   8
ENDBRANCH   6   7
ENDBRANCH   5   6
ENDBRANCH   2   5
BRANCH   3  11
ATOM     11  C   UNL d   1      27.208 -11.759  -0.467  0.00  0.00     0.000 C 
ATOM     12  C   UNL d   1      27.406 -10.917   0.367  0.00  0.00    -0.057 C 
BRANCH  12  13
ATOM     13  C   UNL d   1      27.481 -10.052   1.529  0.00  0.00     0.018 A 
ATOM     14  C   UNL d   1      27.003 -10.518   2.759  0.00  0.00     0.020 A 
ATOM     15  C   UNL d   1      27.095  -9.724   3.905  0.00  0.00     0.001 A 
ATOM     16  C   UNL d   1      27.704  -8.472   3.841  0.00  0.00     0.000 A 
ATOM     17  C   UNL d   1      28.288  -8.046   2.651  0.00  0.00     0.001 A 
ATOM     18  C   UNL d   1      28.183  -8.836   1.500  0.00  0.00     0.020 A 
ENDBRANCH  12  13
ENDBRANCH   3  11
ENDBRANCH   1   2
BRANCH   1  19
ATOM     19  C   UNL d   1      27.260 -14.441   1.144  0.00  0.00     0.245 C 
ATOM     20  O   UNL d   1      26.318 -13.694   1.426  0.00  0.00    -0.271 OA
ATOM     21  N   UNL d   1      28.086 -14.885   2.161  0.00  0.00    -0.354 N 
ATOM     22  H   UNL d   1      28.552 -15.777   2.095  0.00  0.00     0.162 HD
BRANCH  21  23
ATOM     23  C   UNL d   1      28.122 -14.185   3.440  0.00  0.00     0.084 C 
ATOM     24  C   UNL d   1      28.174 -15.195   4.602  0.00  0.00     0.025 C 
ATOM     25  C   UNL d   1      28.289 -14.537   5.962  0.00  0.00     0.002 C 
ATOM     26  C   UNL d   1      29.461 -13.564   5.996  0.00  0.00     0.000 C 
ATOM     27  C   UNL d   1      29.332 -12.515   4.896  0.00  0.00     0.002 C 
ATOM     28  C   UNL d   1      29.257 -13.157   3.514  0.00  0.00     0.025 C 
ENDBRANCH  21  23
ENDBRANCH   1  19
BRANCH   1  29
ATOM     29  C   UNL d   1      26.399 -16.120  -0.542  0.00  0.00     0.040 A 
ATOM     30  C   UNL d   1      25.237 -15.986  -1.313  0.00  0.00     0.080 A 
ATOM     31  C   UNL d   1      24.245 -16.979  -1.298  0.00  0.00     0.073 A 
ATOM     32  C   UNL d   1      24.420 -18.121  -0.531  0.00  0.00     0.071 A 
ATOM     33  C   UNL d   1      25.602 -18.325   0.150  0.00  0.00     0.073 A 
ATOM     34  C   UNL d   1      26.568 -17.329   0.152  0.00  0.00     0.080 A 
BRANCH  30  35
ATOM     35  O   UNL d   1      24.959 -14.907  -2.104  0.00  0.00    -0.360 OA
ATOM     36  H   UNL d   1      24.936 -14.091  -1.587  0.00  0.00     0.217 HD
ENDBRANCH  30  35
BRANCH  32  37
ATOM     37  O   UNL d   1      23.456 -19.074  -0.381  0.00  0.00    -0.361 OA
ATOM     38  H   UNL d   1      23.483 -19.416   0.525  0.00  0.00     0.217 HD
ENDBRANCH  32  37
BRANCH  34  39
ATOM     39  O   UNL d   1      27.656 -17.432   0.989  0.00  0.00    -0.360 OA
ATOM     40  H   UNL d   1      28.239 -18.131   0.667  0.00  0.00     0.217 HD
ENDBRANCH  34  39
ENDBRANCH   1  29
TORSDOF 14
ENDMDL
MODEL 8
REMARK VINA RESULT:    -6.326      3.310      8.345
REMARK INTER + INTRA:         -14.786
REMARK INTER:                 -10.502
REMARK INTRA:                  -4.284
REMARK CONF_INDEPENDENT:        4.176
REMARK UNBOUND:                -4.284
REMARK  14 active torsions:
REMARK  status: ('A' for Active; 'I' for Inactive)
REMARK    1  A    between atoms: C_2  and  C_3 
REMARK    2  A    between atoms: C_3  and  C_4 
REMARK    3  A    between atoms: C_4  and  C_5 
REMARK    4  A    between atoms: C_5  and  C_6 
REMARK    5  A    between atoms: C_6  and  N_7 
REMARK       I    between atoms: N_7  and  C_8 
REMARK    6  A    between atoms: N_7  and  C_18 
REMARK    7  A    between atoms: C_8  and  C_10 
REMARK    8  A    between atoms: C_11  and  C_12 
REMARK    9  A    between atoms: C_18  and  C_19 
REMARK   10  A    between atoms: C_18  and  C_28 
REMARK       I    between atoms: C_19  and  N_21 
REMARK   11  A    between atoms: N_21  and  C_22 
REMARK   12  A    between atoms: C_29  and  O_30 
REMARK   13  A    between atoms: C_32  and  O_33 
REMARK   14  A    between atoms: C_35  and  O_36 
ROOT
ATOM      1  C   UNL d   1      27.420 -12.885  -5.935  0.00  0.00     0.219 C 
ENDROOT
BRANCH   1   2
ATOM      2  N   UNL d   1      28.822 -12.807  -6.490  0.00  0.00    -0.324 N 
ATOM      3  C   UNL d   1      29.921 -13.509  -5.930  0.00  0.00     0.299 C 
ATOM      4  O   UNL d   1      30.958 -12.959  -5.573  0.00  0.00    -0.258 OA
BRANCH   2   5
ATOM      5  C   UNL d   1      29.108 -11.714  -7.424  0.00  0.00     0.128 C 
BRANCH   5   6
ATOM      6  C   UNL d   1      29.798 -12.148  -8.699  0.00  0.00     0.020 C 
BRANCH   6   7
ATOM      7  C   UNL d   1      31.298 -12.003  -8.641  0.00  0.00     0.002 C 
BRANCH   7   8
ATOM      8  C   UNL d   1      31.895 -13.096  -9.514  0.00  0.00    -0.000 C 
BRANCH   8   9
ATOM      9  C   UNL d   1      32.311 -14.274  -8.659  0.00  0.00    -0.005 C 
ATOM     10  C   UNL d   1      33.209 -13.810  -7.531  0.00  0.00     0.005 C 
ENDBRANCH   8   9
ENDBRANCH   7   8
ENDBRANCH   6   7
ENDBRANCH   5   6
ENDBRANCH   2   5
BRANCH   3  11
ATOM     11  C   UNL d   1      29.964 -14.974  -5.914  0.00  0.00     0.000 C 
ATOM     12  C   UNL d   1      30.072 -16.171  -5.936  0.00  0.00    -0.057 C 
BRANCH  12  13
ATOM     13  C   UNL d   1      30.468 -17.566  -5.940  0.00  0.00     0.018 A 
ATOM     14  C   UNL d   1      30.368 -18.306  -4.757  0.00  0.00     0.020 A 
ATOM     15  C   UNL d   1      30.706 -19.662  -4.737  0.00  0.00     0.001 A 
ATOM     16  C   UNL d   1      31.107 -20.301  -5.908  0.00  0.00     0.000 A 
ATOM     17  C   UNL d   1      31.098 -19.604  -7.114  0.00  0.00     0.001 A 
ATOM     18  C   UNL d   1      30.774 -18.244  -7.132  0.00  0.00     0.020 A 
ENDBRANCH  12  13
ENDBRANCH   3  11
ENDBRANCH   1   2
BRANCH   1  19
ATOM     19  C   UNL d   1      27.020 -14.214  -5.184  0.00  0.00     0.245 C 
ATOM     20  O   UNL d   1      26.686 -15.233  -5.796  0.00  0.00    -0.271 OA
ATOM     21  N   UNL d   1      27.193 -14.286  -3.814  0.00  0.00    -0.354 N 
ATOM     22  H   UNL d   1      27.849 -13.681  -3.344  0.00  0.00     0.162 HD
BRANCH  21  23
ATOM     23  C   UNL d   1      26.607 -15.384  -3.054  0.00  0.00     0.084 C 
ATOM     24  C   UNL d   1      27.521 -15.767  -1.874  0.00  0.00     0.025 C 
ATOM     25  C   UNL d   1      26.938 -16.853  -0.994  0.00  0.00     0.002 C 
ATOM     26  C   UNL d   1      25.534 -16.482  -0.533  0.00  0.00     0.000 C 
ATOM     27  C   UNL d   1      24.624 -16.205  -1.725  0.00  0.00     0.002 C 
ATOM     28  C   UNL d   1      25.173 -15.083  -2.602  0.00  0.00     0.025 C 
ENDBRANCH  21  23
ENDBRANCH   1  19
BRANCH   1  29
ATOM     29  C   UNL d   1      27.062 -11.686  -5.065  0.00  0.00     0.040 A 
ATOM     30  C   UNL d   1      27.720 -11.295  -3.893  0.00  0.00     0.080 A 
ATOM     31  C   UNL d   1      27.183 -10.297  -3.064  0.00  0.00     0.073 A 
ATOM     32  C   UNL d   1      25.996  -9.670  -3.416  0.00  0.00     0.071 A 
ATOM     33  C   UNL d   1      25.388  -9.962  -4.619  0.00  0.00     0.073 A 
ATOM     34  C   UNL d   1      25.910 -10.966  -5.422  0.00  0.00     0.080 A 
BRANCH  30  35
ATOM     35  O   UNL d   1      28.891 -11.841  -3.450  0.00  0.00    -0.360 OA
ATOM     36  H   UNL d   1      29.471 -12.073  -4.187  0.00  0.00     0.217 HD
ENDBRANCH  30  35
BRANCH  32  37
ATOM     37  O   UNL d   1      25.359  -8.774  -2.610  0.00  0.00    -0.361 OA
ATOM     38  H   UNL d   1      24.405  -8.821  -2.771  0.00  0.00     0.217 HD
ENDBRANCH  32  37
BRANCH  34  39
ATOM     39  O   UNL d   1      25.201 -11.406  -6.516  0.00  0.00    -0.360 OA
ATOM     40  H   UNL d   1      24.335 -11.721  -6.227  0.00  0.00     0.217 HD
ENDBRANCH  34  39
ENDBRANCH   1  29
TORSDOF 14
ENDMDL
