MODEL 1
REMARK VINA RESULT:    -9.053      0.000      0.000
REMARK INTER + INTRA:         -13.563
REMARK INTER:                 -10.843
REMARK INTRA:                  -2.720
REMARK CONF_INDEPENDENT:        1.790
REMARK UNBOUND:                -2.720
REMARK  6 active torsions:
REMARK  status: ('A' for Active; 'I' for Inactive)
REMARK    1  A    between atoms: C_2  and  N_3 
REMARK    2  A    between atoms: C_2  and  C_13 
REMARK       I    between atoms: N_3  and  C_4 
REMARK    3  A    between atoms: C_4  and  C_6 
REMARK       I    between atoms: C_13  and  N_15 
REMARK    4  A    between atoms: N_15  and  N_16 
REMARK       I    between atoms: N_16  and  C_17 
REMARK    5  A    between atoms: C_17  and  C_19 
REMARK    6  A    between atoms: C_19  and  C_20 
ROOT
ATOM      1  C   UNL d   1      25.150 -17.783  -0.204  0.00  0.00     0.258 C 
ATOM      2  O   UNL d   1      25.521 -18.958  -0.139  0.00  0.00    -0.269 OA
ATOM      3  N   UNL d   1      23.828 -17.490  -0.462  0.00  0.00    -0.266 N 
ATOM      4  H   UNL d   1      23.419 -16.556  -0.407  0.00  0.00     0.190 HD
ENDROOT
BRANCH   1   5
ATOM      5  C   UNL d   1      26.101 -16.567   0.053  0.00  0.00     0.174 C 
ATOM      6  C   UNL d   1      27.331 -17.079   0.815  0.00  0.00     0.042 C 
BRANCH   5   7
ATOM      7  N   UNL d   1      26.487 -15.854  -1.183  0.00  0.00    -0.344 N 
ATOM      8  C   UNL d   1      25.547 -15.355  -2.076  0.00  0.00     0.252 C 
ATOM      9  O   UNL d   1      24.333 -15.509  -1.965  0.00  0.00    -0.268 OA
ATOM     10  H   UNL d   1      27.456 -15.578  -1.291  0.00  0.00     0.163 HD
BRANCH   8  11
ATOM     11  C   UNL d   1      26.062 -14.566  -3.226  0.00  0.00     0.032 A 
ATOM     12  C   UNL d   1      26.150 -13.174  -3.129  0.00  0.00     0.018 A 
ATOM     13  C   UNL d   1      26.657 -12.428  -4.197  0.00  0.00     0.025 A 
ATOM     14  C   UNL d   1      27.079 -13.069  -5.361  0.00  0.00     0.034 A 
ATOM     15 CL   UNL d   1      27.665 -12.135  -6.681  0.00  0.00    -0.084 Cl
ATOM     16  C   UNL d   1      27.027 -14.460  -5.456  0.00  0.00     0.025 A 
ATOM     17  C   UNL d   1      26.528 -15.212  -4.383  0.00  0.00     0.018 A 
ENDBRANCH   8  11
ENDBRANCH   5   7
ENDBRANCH   1   5
BRANCH   3  18
ATOM     18  N   UNL d   1      22.911 -18.555  -0.703  0.00  0.00    -0.267 N 
ATOM     19  C   UNL d   1      21.605 -18.199  -0.952  0.00  0.00     0.236 C 
ATOM     20  O   UNL d   1      21.298 -17.007  -0.894  0.00  0.00    -0.272 OA
ATOM     21  H   UNL d   1      23.240 -19.507  -0.545  0.00  0.00     0.190 HD
BRANCH  19  22
ATOM     22  C   UNL d   1      20.626 -19.332  -1.297  0.00  0.00     0.109 C 
BRANCH  22  23
ATOM     23  C   UNL d   1      20.143 -20.145  -0.064  0.00  0.00    -0.006 C 
ATOM     24  C   UNL d   1      20.526 -19.422   1.238  0.00  0.00     0.005 C 
ATOM     25  C   UNL d   1      19.945 -20.092   2.480  0.00  0.00     0.000 C 
ATOM     26  C   UNL d   1      18.439 -20.275   2.357  0.00  0.00     0.000 C 
ATOM     27  C   UNL d   1      18.092 -21.110   1.129  0.00  0.00     0.000 C 
ATOM     28  C   UNL d   1      18.639 -20.472  -0.137  0.00  0.00     0.005 C 
ENDBRANCH  22  23
ENDBRANCH  19  22
ENDBRANCH   3  18
TORSDOF 6
ENDMDL
MODEL 2
REMARK VINA RESULT:    -8.954      4.030      5.483
REMARK INTER + INTRA:         -12.683
REMARK INTER:                 -10.744
REMARK INTRA:                  -1.939
REMARK CONF_INDEPENDENT:        1.790
REMARK UNBOUND:                -1.939
REMARK  6 active torsions:
REMARK  status: ('A' for Active; 'I' for Inactive)
REMARK    1  A    between atoms: C_2  and  N_3 
REMARK    2  A    between atoms: C_2  and  C_13 
REMARK       I    between atoms: N_3  and  C_4 
REMARK    3  A    between atoms: C_4  and  C_6 
REMARK       I    between atoms: C_13  and  N_15 
REMARK    4  A    between atoms: N_15  and  N_16 
REMARK       I    between atoms: N_16  and  C_17 
REMARK    5  A    between atoms: C_17  and  C_19 
REMARK    6  A    between atoms: C_19  and  C_20 
ROOT
ATOM      1  C   UNL d   1      25.961 -16.207  -0.467  0.00  0.00     0.258 C 
ATOM      2  O   UNL d   1      25.519 -15.233  -1.082  0.00  0.00    -0.269 OA
ATOM      3  N   UNL d   1      25.129 -17.259  -0.150  0.00  0.00    -0.266 N 
ATOM      4  H   UNL d   1      25.442 -18.149   0.242  0.00  0.00     0.190 HD
ENDROOT
BRANCH   1   5
ATOM      5  C   UNL d   1      27.466 -16.355  -0.060  0.00  0.00     0.174 C 
ATOM      6  C   UNL d   1      28.323 -15.790  -1.200  0.00  0.00     0.042 C 
BRANCH   5   7
ATOM      7  N   UNL d   1      27.788 -15.713   1.232  0.00  0.00    -0.344 N 
ATOM      8  C   UNL d   1      27.404 -14.413   1.532  0.00  0.00     0.252 C 
ATOM      9  O   UNL d   1      26.829 -13.660   0.749  0.00  0.00    -0.268 OA
ATOM     10  H   UNL d   1      28.150 -16.298   1.976  0.00  0.00     0.163 HD
BRANCH   8  11
ATOM     11  C   UNL d   1      27.697 -13.922   2.904  0.00  0.00     0.032 A 
ATOM     12  C   UNL d   1      27.578 -12.560   3.194  0.00  0.00     0.018 A 
ATOM     13  C   UNL d   1      27.828 -12.096   4.489  0.00  0.00     0.025 A 
ATOM     14  C   UNL d   1      28.193 -12.990   5.495  0.00  0.00     0.034 A 
ATOM     15 CL   UNL d   1      28.534 -12.399   7.075  0.00  0.00    -0.084 Cl
ATOM     16  C   UNL d   1      28.281 -14.355   5.225  0.00  0.00     0.025 A 
ATOM     17  C   UNL d   1      28.023 -14.825   3.930  0.00  0.00     0.018 A 
ENDBRANCH   8  11
ENDBRANCH   5   7
ENDBRANCH   1   5
BRANCH   3  18
ATOM     18  N   UNL d   1      23.747 -17.184  -0.495  0.00  0.00    -0.267 N 
ATOM     19  C   UNL d   1      23.069 -18.378  -0.578  0.00  0.00     0.236 C 
ATOM     20  O   UNL d   1      23.695 -19.426  -0.410  0.00  0.00    -0.272 OA
ATOM     21  H   UNL d   1      23.382 -16.280  -0.790  0.00  0.00     0.190 HD
BRANCH  19  22
ATOM     22  C   UNL d   1      21.560 -18.305  -0.866  0.00  0.00     0.109 C 
BRANCH  22  23
ATOM     23  C   UNL d   1      20.742 -19.465  -0.236  0.00  0.00    -0.006 C 
ATOM     24  C   UNL d   1      20.703 -19.325   1.296  0.00  0.00     0.005 C 
ATOM     25  C   UNL d   1      19.787 -20.347   1.961  0.00  0.00     0.000 C 
ATOM     26  C   UNL d   1      18.390 -20.316   1.355  0.00  0.00     0.000 C 
ATOM     27  C   UNL d   1      18.443 -20.592  -0.144  0.00  0.00     0.000 C 
ATOM     28  C   UNL d   1      19.335 -19.587  -0.853  0.00  0.00     0.005 C 
ENDBRANCH  22  23
ENDBRANCH  19  22
ENDBRANCH   3  18
TORSDOF 6
ENDMDL
MODEL 3
REMARK VINA RESULT:    -8.228      4.555      6.271
REMARK INTER + INTRA:         -11.980
REMARK INTER:                 -10.018
REMARK INTRA:                  -1.963
REMARK CONF_INDEPENDENT:        1.790
REMARK UNBOUND:                -1.963
REMARK  6 active torsions:
REMARK  status: ('A' for Active; 'I' for Inactive)
REMARK    1  A    between atoms: C_2  and  N_3 
REMARK    2  A    between atoms: C_2  and  C_13 
REMARK       I    between atoms: N_3  and  C_4 
REMARK    3  A    between atoms: C_4  and  C_6 
REMARK       I    between atoms: C_13  and  N_15 
REMARK    4  A    between atoms: N_15  and  N_16 
REMARK       I    between atoms: N_16  and  C_17 
REMARK    5  A    between atoms: C_17  and  C_19 
REMARK    6  A    between atoms: C_19  and  C_20 
ROOT
ATOM      1  C   UNL d   1      26.957 -16.727   0.017  0.00  0.00     0.258 C 
ATOM      2  O   UNL d   1      27.489 -17.838   0.083  0.00  0.00    -0.269 OA
ATOM      3  N   UNL d   1      25.612 -16.621  -0.260  0.00  0.00    -0.266 N 
ATOM      4  H   UNL d   1      25.074 -15.754  -0.207  0.00  0.00     0.190 HD
ENDROOT
BRANCH   1   5
ATOM      5  C   UNL d   1      27.724 -15.390   0.294  0.00  0.00     0.174 C 
ATOM      6  C   UNL d   1      26.885 -14.236  -0.272  0.00  0.00     0.042 C 
BRANCH   5   7
ATOM      7  N   UNL d   1      28.041 -15.181   1.722  0.00  0.00    -0.344 N 
ATOM      8  C   UNL d   1      28.560 -13.985   2.200  0.00  0.00     0.252 C 
ATOM      9  O   UNL d   1      28.862 -13.027   1.494  0.00  0.00    -0.268 OA
ATOM     10  H   UNL d   1      27.711 -15.870   2.388  0.00  0.00     0.163 HD
BRANCH   8  11
ATOM     11  C   UNL d   1      28.734 -13.866   3.672  0.00  0.00     0.032 A 
ATOM     12  C   UNL d   1      28.341 -14.917   4.505  0.00  0.00     0.018 A 
ATOM     13  C   UNL d   1      28.526 -14.823   5.887  0.00  0.00     0.025 A 
ATOM     14  C   UNL d   1      29.106 -13.681   6.439  0.00  0.00     0.034 A 
ATOM     15 CL   UNL d   1      29.293 -13.562   8.146  0.00  0.00    -0.084 Cl
ATOM     16  C   UNL d   1      29.533 -12.640   5.615  0.00  0.00     0.025 A 
ATOM     17  C   UNL d   1      29.357 -12.735   4.228  0.00  0.00     0.018 A 
ENDBRANCH   8  11
ENDBRANCH   5   7
ENDBRANCH   1   5
BRANCH   3  18
ATOM     18  N   UNL d   1      24.858 -17.803  -0.520  0.00  0.00    -0.267 N 
ATOM     19  C   UNL d   1      23.488 -17.673  -0.515  0.00  0.00     0.236 C 
ATOM     20  O   UNL d   1      23.000 -16.577  -0.233  0.00  0.00    -0.272 OA
ATOM     21  H   UNL d   1      25.363 -18.687  -0.558  0.00  0.00     0.190 HD
BRANCH  19  22
ATOM     22  C   UNL d   1      22.666 -18.921  -0.878  0.00  0.00     0.109 C 
BRANCH  22  23
ATOM     23  C   UNL d   1      21.187 -18.859  -0.409  0.00  0.00    -0.006 C 
ATOM     24  C   UNL d   1      20.283 -19.635  -1.382  0.00  0.00     0.005 C 
ATOM     25  C   UNL d   1      18.841 -19.742  -0.893  0.00  0.00     0.000 C 
ATOM     26  C   UNL d   1      18.775 -20.312   0.518  0.00  0.00     0.000 C 
ATOM     27  C   UNL d   1      19.571 -19.448   1.490  0.00  0.00     0.000 C 
ATOM     28  C   UNL d   1      21.020 -19.325   1.051  0.00  0.00     0.005 C 
ENDBRANCH  22  23
ENDBRANCH  19  22
ENDBRANCH   3  18
TORSDOF 6
ENDMDL
MODEL 4
REMARK VINA RESULT:    -8.209      2.370      2.867
REMARK INTER + INTRA:         -12.002
REMARK INTER:                  -9.999
REMARK INTRA:                  -2.003
REMARK CONF_INDEPENDENT:        1.790
REMARK UNBOUND:                -2.003
REMARK  6 active torsions:
REMARK  status: ('A' for Active; 'I' for Inactive)
REMARK    1  A    between atoms: C_2  and  N_3 
REMARK    2  A    between atoms: C_2  and  C_13 
REMARK       I    between atoms: N_3  and  C_4 
REMARK    3  A    between atoms: C_4  and  C_6 
REMARK       I    between atoms: C_13  and  N_15 
REMARK    4  A    between atoms: N_15  and  N_16 
REMARK       I    between atoms: N_16  and  C_17 
REMARK    5  A    between atoms: C_17  and  C_19 
REMARK    6  A    between atoms: C_19  and  C_20 
ROOT
ATOM      1  C   UNL d   1      25.512 -16.353  -1.062  0.00  0.00     0.258 C 
ATOM      2  O   UNL d   1      24.950 -15.384  -1.578  0.00  0.00    -0.269 OA
ATOM      3  N   UNL d   1      24.786 -17.477  -0.732  0.00  0.00    -0.266 N 
ATOM      4  H   UNL d   1      25.193 -18.360  -0.421  0.00  0.00     0.190 HD
ENDROOT
BRANCH   1   5
ATOM      5  C   UNL d   1      27.055 -16.412  -0.801  0.00  0.00     0.174 C 
ATOM      6  C   UNL d   1      27.319 -17.515   0.233  0.00  0.00     0.042 C 
BRANCH   5   7
ATOM      7  N   UNL d   1      27.849 -16.617  -2.030  0.00  0.00    -0.344 N 
ATOM      8  C   UNL d   1      27.909 -15.668  -3.042  0.00  0.00     0.252 C 
ATOM      9  O   UNL d   1      27.272 -14.617  -3.048  0.00  0.00    -0.268 OA
ATOM     10  H   UNL d   1      28.497 -17.396  -2.053  0.00  0.00     0.163 HD
BRANCH   8  11
ATOM     11  C   UNL d   1      28.827 -15.949  -4.177  0.00  0.00     0.032 A 
ATOM     12  C   UNL d   1      28.701 -15.228  -5.367  0.00  0.00     0.018 A 
ATOM     13  C   UNL d   1      29.577 -15.469  -6.429  0.00  0.00     0.025 A 
ATOM     14  C   UNL d   1      30.582 -16.428  -6.303  0.00  0.00     0.034 A 
ATOM     15 CL   UNL d   1      31.630 -16.742  -7.631  0.00  0.00    -0.084 Cl
ATOM     16  C   UNL d   1      30.739 -17.130  -5.108  0.00  0.00     0.025 A 
ATOM     17  C   UNL d   1      29.867 -16.884  -4.038  0.00  0.00     0.018 A 
ENDBRANCH   8  11
ENDBRANCH   5   7
ENDBRANCH   1   5
BRANCH   3  18
ATOM     18  N   UNL d   1      23.376 -17.485  -0.947  0.00  0.00    -0.267 N 
ATOM     19  C   UNL d   1      22.724 -18.672  -0.704  0.00  0.00     0.236 C 
ATOM     20  O   UNL d   1      23.390 -19.656  -0.378  0.00  0.00    -0.272 OA
ATOM     21  H   UNL d   1      22.961 -16.667  -1.391  0.00  0.00     0.190 HD
BRANCH  19  22
ATOM     22  C   UNL d   1      21.193 -18.670  -0.850  0.00  0.00     0.109 C 
BRANCH  22  23
ATOM     23  C   UNL d   1      20.477 -19.749   0.007  0.00  0.00    -0.006 C 
ATOM     24  C   UNL d   1      20.465 -19.337   1.489  0.00  0.00     0.005 C 
ATOM     25  C   UNL d   1      19.641 -20.282   2.359  0.00  0.00     0.000 C 
ATOM     26  C   UNL d   1      18.233 -20.456   1.809  0.00  0.00     0.000 C 
ATOM     27  C   UNL d   1      18.270 -20.994   0.383  0.00  0.00     0.000 C 
ATOM     28  C   UNL d   1      19.069 -20.075  -0.527  0.00  0.00     0.005 C 
ENDBRANCH  22  23
ENDBRANCH  19  22
ENDBRANCH   3  18
TORSDOF 6
ENDMDL
MODEL 5
REMARK VINA RESULT:    -8.070      5.548      9.004
REMARK INTER + INTRA:         -11.881
REMARK INTER:                  -9.860
REMARK INTRA:                  -2.021
REMARK CONF_INDEPENDENT:        1.790
REMARK UNBOUND:                -2.021
REMARK  6 active torsions:
REMARK  status: ('A' for Active; 'I' for Inactive)
REMARK    1  A    between atoms: C_2  and  N_3 
REMARK    2  A    between atoms: C_2  and  C_13 
REMARK       I    between atoms: N_3  and  C_4 
REMARK    3  A    between atoms: C_4  and  C_6 
REMARK       I    between atoms: C_13  and  N_15 
REMARK    4  A    between atoms: N_15  and  N_16 
REMARK       I    between atoms: N_16  and  C_17 
REMARK    5  A    between atoms: C_17  and  C_19 
REMARK    6  A    between atoms: C_19  and  C_20 
ROOT
ATOM      1  C   UNL d   1      28.122 -14.704   0.889  0.00  0.00     0.258 C 
ATOM      2  O   UNL d   1      29.264 -15.161   0.796  0.00  0.00    -0.269 OA
ATOM      3  N   UNL d   1      27.568 -14.478   2.131  0.00  0.00    -0.266 N 
ATOM      4  H   UNL d   1      26.687 -13.988   2.293  0.00  0.00     0.190 HD
ENDROOT
BRANCH   1   5
ATOM      5  C   UNL d   1      27.255 -14.298  -0.350  0.00  0.00     0.174 C 
ATOM      6  C   UNL d   1      28.132 -14.420  -1.603  0.00  0.00     0.042 C 
BRANCH   5   7
ATOM      7  N   UNL d   1      26.012 -15.087  -0.478  0.00  0.00    -0.344 N 
ATOM      8  C   UNL d   1      26.012 -16.476  -0.485  0.00  0.00     0.252 C 
ATOM      9  O   UNL d   1      27.024 -17.172  -0.452  0.00  0.00    -0.268 OA
ATOM     10  H   UNL d   1      25.128 -14.600  -0.388  0.00  0.00     0.163 HD
BRANCH   8  11
ATOM     11  C   UNL d   1      24.686 -17.150  -0.512  0.00  0.00     0.032 A 
ATOM     12  C   UNL d   1      23.536 -16.407  -0.792  0.00  0.00     0.018 A 
ATOM     13  C   UNL d   1      22.290 -17.039  -0.844  0.00  0.00     0.025 A 
ATOM     14  C   UNL d   1      22.192 -18.412  -0.621  0.00  0.00     0.034 A 
ATOM     15 CL   UNL d   1      20.647 -19.170  -0.651  0.00  0.00    -0.084 Cl
ATOM     16  C   UNL d   1      23.337 -19.169  -0.375  0.00  0.00     0.025 A 
ATOM     17  C   UNL d   1      24.589 -18.540  -0.330  0.00  0.00     0.018 A 
ENDBRANCH   8  11
ENDBRANCH   5   7
ENDBRANCH   1   5
BRANCH   3  18
ATOM     18  N   UNL d   1      28.309 -14.825   3.299  0.00  0.00    -0.267 N 
ATOM     19  C   UNL d   1      27.783 -14.420   4.504  0.00  0.00     0.236 C 
ATOM     20  O   UNL d   1      26.754 -13.742   4.501  0.00  0.00    -0.272 OA
ATOM     21  H   UNL d   1      29.237 -15.226   3.168  0.00  0.00     0.190 HD
BRANCH  19  22
ATOM     22  C   UNL d   1      28.528 -14.862   5.775  0.00  0.00     0.109 C 
BRANCH  22  23
ATOM     23  C   UNL d   1      29.078 -13.684   6.624  0.00  0.00    -0.006 C 
ATOM     24  C   UNL d   1      28.449 -12.355   6.170  0.00  0.00     0.005 C 
ATOM     25  C   UNL d   1      28.833 -11.182   7.067  0.00  0.00     0.000 C 
ATOM     26  C   UNL d   1      28.531 -11.480   8.529  0.00  0.00     0.000 C 
ATOM     27  C   UNL d   1      29.274 -12.728   8.993  0.00  0.00     0.000 C 
ATOM     28  C   UNL d   1      28.911 -13.930   8.136  0.00  0.00     0.005 C 
ENDBRANCH  22  23
ENDBRANCH  19  22
ENDBRANCH   3  18
TORSDOF 6
ENDMDL
MODEL 6
REMARK VINA RESULT:    -7.774      3.293      9.057
REMARK INTER + INTRA:         -12.166
REMARK INTER:                  -9.563
REMARK INTRA:                  -2.603
REMARK CONF_INDEPENDENT:        1.790
REMARK UNBOUND:                -2.603
REMARK  6 active torsions:
REMARK  status: ('A' for Active; 'I' for Inactive)
REMARK    1  A    between atoms: C_2  and  N_3 
REMARK    2  A    between atoms: C_2  and  C_13 
REMARK       I    between atoms: N_3  and  C_4 
REMARK    3  A    between atoms: C_4  and  C_6 
REMARK       I    between atoms: C_13  and  N_15 
REMARK    4  A    between atoms: N_15  and  N_16 
REMARK       I    between atoms: N_16  and  C_17 
REMARK    5  A    between atoms: C_17  and  C_19 
REMARK    6  A    between atoms: C_19  and  C_20 
ROOT
ATOM      1  C   UNL d   1      26.024 -15.999  -0.625  0.00  0.00     0.258 C 
ATOM      2  O   UNL d   1      26.424 -15.154   0.179  0.00  0.00    -0.269 OA
ATOM      3  N   UNL d   1      25.609 -15.616  -1.882  0.00  0.00    -0.266 N 
ATOM      4  H   UNL d   1      25.385 -16.261  -2.641  0.00  0.00     0.190 HD
ENDROOT
BRANCH   1   5
ATOM      5  C   UNL d   1      26.011 -17.535  -0.320  0.00  0.00     0.174 C 
ATOM      6  C   UNL d   1      26.965 -17.794   0.854  0.00  0.00     0.042 C 
BRANCH   5   7
ATOM      7  N   UNL d   1      24.659 -18.066  -0.048  0.00  0.00    -0.344 N 
ATOM      8  C   UNL d   1      23.593 -17.862  -0.915  0.00  0.00     0.252 C 
ATOM      9  O   UNL d   1      23.648 -17.181  -1.936  0.00  0.00    -0.268 OA
ATOM     10  H   UNL d   1      24.553 -18.737   0.704  0.00  0.00     0.163 HD
BRANCH   8  11
ATOM     11  C   UNL d   1      22.312 -18.538  -0.580  0.00  0.00     0.032 A 
ATOM     12  C   UNL d   1      21.937 -18.692   0.758  0.00  0.00     0.018 A 
ATOM     13  C   UNL d   1      20.722 -19.304   1.079  0.00  0.00     0.025 A 
ATOM     14  C   UNL d   1      19.879 -19.761   0.066  0.00  0.00     0.034 A 
ATOM     15 CL   UNL d   1      18.405 -20.547   0.477  0.00  0.00    -0.084 Cl
ATOM     16  C   UNL d   1      20.227 -19.583  -1.273  0.00  0.00     0.025 A 
ATOM     17  C   UNL d   1      21.441 -18.961  -1.598  0.00  0.00     0.018 A 
ENDBRANCH   8  11
ENDBRANCH   5   7
ENDBRANCH   1   5
BRANCH   3  18
ATOM     18  N   UNL d   1      25.599 -14.231  -2.220  0.00  0.00    -0.267 N 
ATOM     19  C   UNL d   1      25.320 -13.920  -3.532  0.00  0.00     0.236 C 
ATOM     20  O   UNL d   1      25.157 -14.840  -4.335  0.00  0.00    -0.272 OA
ATOM     21  H   UNL d   1      25.927 -13.569  -1.518  0.00  0.00     0.190 HD
BRANCH  19  22
ATOM     22  C   UNL d   1      25.223 -12.428  -3.890  0.00  0.00     0.109 C 
BRANCH  22  23
ATOM     23  C   UNL d   1      26.372 -11.924  -4.806  0.00  0.00    -0.006 C 
ATOM     24  C   UNL d   1      27.147 -13.113  -5.399  0.00  0.00     0.005 C 
ATOM     25  C   UNL d   1      28.190 -12.687  -6.428  0.00  0.00     0.000 C 
ATOM     26  C   UNL d   1      27.572 -11.816  -7.514  0.00  0.00     0.000 C 
ATOM     27  C   UNL d   1      26.926 -10.573  -6.911  0.00  0.00     0.000 C 
ATOM     28  C   UNL d   1      25.867 -10.950  -5.889  0.00  0.00     0.005 C 
ENDBRANCH  22  23
ENDBRANCH  19  22
ENDBRANCH   3  18
TORSDOF 6
ENDMDL
MODEL 7
REMARK VINA RESULT:    -7.352      4.774      8.363
REMARK INTER + INTRA:         -11.969
REMARK INTER:                  -9.142
REMARK INTRA:                  -2.827
REMARK CONF_INDEPENDENT:        1.790
REMARK UNBOUND:                -2.827
REMARK  6 active torsions:
REMARK  status: ('A' for Active; 'I' for Inactive)
REMARK    1  A    between atoms: C_2  and  N_3 
REMARK    2  A    between atoms: C_2  and  C_13 
REMARK       I    between atoms: N_3  and  C_4 
REMARK    3  A    between atoms: C_4  and  C_6 
REMARK       I    between atoms: C_13  and  N_15 
REMARK    4  A    between atoms: N_15  and  N_16 
REMARK       I    between atoms: N_16  and  C_17 
REMARK    5  A    between atoms: C_17  and  C_19 
REMARK    6  A    between atoms: C_19  and  C_20 
ROOT
ATOM      1  C   UNL d   1      28.875 -15.603   0.231  0.00  0.00     0.258 C 
ATOM      2  O   UNL d   1      30.044 -15.481   0.609  0.00  0.00    -0.269 OA
ATOM      3  N   UNL d   1      27.888 -14.810   0.775  0.00  0.00    -0.266 N 
ATOM      4  H   UNL d   1      26.928 -14.761   0.430  0.00  0.00     0.190 HD
ENDROOT
BRANCH   1   5
ATOM      5  C   UNL d   1      28.438 -16.592  -0.901  0.00  0.00     0.174 C 
ATOM      6  C   UNL d   1      29.506 -17.688  -1.013  0.00  0.00     0.042 C 
BRANCH   5   7
ATOM      7  N   UNL d   1      27.091 -17.164  -0.690  0.00  0.00    -0.344 N 
ATOM      8  C   UNL d   1      25.932 -16.422  -0.875  0.00  0.00     0.252 C 
ATOM      9  O   UNL d   1      25.910 -15.227  -1.161  0.00  0.00    -0.268 OA
ATOM     10  H   UNL d   1      27.014 -18.167  -0.573  0.00  0.00     0.163 HD
BRANCH   8  11
ATOM     11  C   UNL d   1      24.640 -17.143  -0.735  0.00  0.00     0.032 A 
ATOM     12  C   UNL d   1      23.437 -16.447  -0.878  0.00  0.00     0.018 A 
ATOM     13  C   UNL d   1      22.218 -17.124  -0.772  0.00  0.00     0.025 A 
ATOM     14  C   UNL d   1      22.200 -18.496  -0.527  0.00  0.00     0.034 A 
ATOM     15 CL   UNL d   1      20.692 -19.310  -0.361  0.00  0.00    -0.084 Cl
ATOM     16  C   UNL d   1      23.394 -19.208  -0.415  0.00  0.00     0.025 A 
ATOM     17  C   UNL d   1      24.618 -18.533  -0.530  0.00  0.00     0.018 A 
ENDBRANCH   8  11
ENDBRANCH   5   7
ENDBRANCH   1   5
BRANCH   3  18
ATOM     18  N   UNL d   1      28.224 -13.888   1.810  0.00  0.00    -0.267 N 
ATOM     19  C   UNL d   1      27.193 -13.134   2.321  0.00  0.00     0.236 C 
ATOM     20  O   UNL d   1      26.072 -13.254   1.824  0.00  0.00    -0.272 OA
ATOM     21  H   UNL d   1      29.213 -13.745   2.012  0.00  0.00     0.190 HD
BRANCH  19  22
ATOM     22  C   UNL d   1      27.527 -12.199   3.494  0.00  0.00     0.109 C 
BRANCH  22  23
ATOM     23  C   UNL d   1      27.670 -12.927   4.859  0.00  0.00    -0.006 C 
ATOM     24  C   UNL d   1      28.602 -14.143   4.723  0.00  0.00     0.005 C 
ATOM     25  C   UNL d   1      28.905 -14.809   6.062  0.00  0.00     0.000 C 
ATOM     26  C   UNL d   1      29.433 -13.803   7.075  0.00  0.00     0.000 C 
ATOM     27  C   UNL d   1      28.430 -12.675   7.292  0.00  0.00     0.000 C 
ATOM     28  C   UNL d   1      28.108 -11.970   5.985  0.00  0.00     0.005 C 
ENDBRANCH  22  23
ENDBRANCH  19  22
ENDBRANCH   3  18
TORSDOF 6
ENDMDL
MODEL 8
REMARK VINA RESULT:    -7.309      3.605      8.517
REMARK INTER + INTRA:         -11.982
REMARK INTER:                  -9.099
REMARK INTRA:                  -2.883
REMARK CONF_INDEPENDENT:        1.790
REMARK UNBOUND:                -2.883
REMARK  6 active torsions:
REMARK  status: ('A' for Active; 'I' for Inactive)
REMARK    1  A    between atoms: C_2  and  N_3 
REMARK    2  A    between atoms: C_2  and  C_13 
REMARK       I    between atoms: N_3  and  C_4 
REMARK    3  A    between atoms: C_4  and  C_6 
REMARK       I    between atoms: C_13  and  N_15 
REMARK    4  A    between atoms: N_15  and  N_16 
REMARK       I    between atoms: N_16  and  C_17 
REMARK    5  A    between atoms: C_17  and  C_19 
REMARK    6  A    between atoms: C_19  and  C_20 
ROOT
ATOM      1  C   UNL d   1      28.342 -15.606  -2.097  0.00  0.00     0.258 C 
ATOM      2  O   UNL d   1      29.435 -15.227  -2.526  0.00  0.00    -0.269 OA
ATOM      3  N   UNL d   1      27.177 -15.128  -2.656  0.00  0.00    -0.266 N 
ATOM      4  H   UNL d   1      26.243 -15.485  -2.446  0.00  0.00     0.190 HD
ENDROOT
BRANCH   1   5
ATOM      5  C   UNL d   1      28.189 -16.672  -0.960  0.00  0.00     0.174 C 
ATOM      6  C   UNL d   1      28.587 -16.011   0.366  0.00  0.00     0.042 C 
BRANCH   5   7
ATOM      7  N   UNL d   1      26.835 -17.261  -0.888  0.00  0.00    -0.344 N 
ATOM      8  C   UNL d   1      25.708 -16.500  -0.608  0.00  0.00     0.252 C 
ATOM      9  O   UNL d   1      25.729 -15.303  -0.332  0.00  0.00    -0.268 OA
ATOM     10  H   UNL d   1      26.712 -18.211  -1.220  0.00  0.00     0.163 HD
BRANCH   8  11
ATOM     11  C   UNL d   1      24.394 -17.193  -0.670  0.00  0.00     0.032 A 
ATOM     12  C   UNL d   1      24.328 -18.575  -0.473  0.00  0.00     0.018 A 
ATOM     13  C   UNL d   1      23.093 -19.229  -0.505  0.00  0.00     0.025 A 
ATOM     14  C   UNL d   1      21.923 -18.504  -0.731  0.00  0.00     0.034 A 
ATOM     15 CL   UNL d   1      20.414 -19.327  -0.805  0.00  0.00    -0.084 Cl
ATOM     16  C   UNL d   1      21.973 -17.120  -0.895  0.00  0.00     0.025 A 
ATOM     17  C   UNL d   1      23.209 -16.460  -0.854  0.00  0.00     0.018 A 
ENDBRANCH   8  11
ENDBRANCH   5   7
ENDBRANCH   1   5
BRANCH   3  18
ATOM     18  N   UNL d   1      27.250 -14.156  -3.697  0.00  0.00    -0.267 N 
ATOM     19  C   UNL d   1      26.069 -13.842  -4.330  0.00  0.00     0.236 C 
ATOM     20  O   UNL d   1      25.047 -14.449  -4.007  0.00  0.00    -0.272 OA
ATOM     21  H   UNL d   1      28.176 -13.858  -4.001  0.00  0.00     0.190 HD
BRANCH  19  22
ATOM     22  C   UNL d   1      26.121 -12.734  -5.395  0.00  0.00     0.109 C 
BRANCH  22  23
ATOM     23  C   UNL d   1      26.340 -11.310  -4.813  0.00  0.00    -0.006 C 
ATOM     24  C   UNL d   1      25.628 -10.260  -5.683  0.00  0.00     0.005 C 
ATOM     25  C   UNL d   1      25.676  -8.860  -5.078  0.00  0.00     0.000 C 
ATOM     26  C   UNL d   1      25.156  -8.856  -3.647  0.00  0.00     0.000 C 
ATOM     27  C   UNL d   1      25.966  -9.807  -2.773  0.00  0.00     0.000 C 
ATOM     28  C   UNL d   1      25.934 -11.221  -3.329  0.00  0.00     0.005 C 
ENDBRANCH  22  23
ENDBRANCH  19  22
ENDBRANCH   3  18
TORSDOF 6
ENDMDL
MODEL 9
REMARK VINA RESULT:    -7.220      4.079      6.189
REMARK INTER + INTRA:         -11.915
REMARK INTER:                  -9.010
REMARK INTRA:                  -2.905
REMARK CONF_INDEPENDENT:        1.790
REMARK UNBOUND:                -2.905
REMARK  6 active torsions:
REMARK  status: ('A' for Active; 'I' for Inactive)
REMARK    1  A    between atoms: C_2  and  N_3 
REMARK    2  A    between atoms: C_2  and  C_13 
REMARK       I    between atoms: N_3  and  C_4 
REMARK    3  A    between atoms: C_4  and  C_6 
REMARK       I    between atoms: C_13  and  N_15 
REMARK    4  A    between atoms: N_15  and  N_16 
REMARK       I    between atoms: N_16  and  C_17 
REMARK    5  A    between atoms: C_17  and  C_19 
REMARK    6  A    between atoms: C_19  and  C_20 
ROOT
ATOM      1  C   UNL d   1      26.684 -14.944  -4.649  0.00  0.00     0.258 C 
ATOM      2  O   UNL d   1      25.508 -15.202  -4.917  0.00  0.00    -0.269 OA
ATOM      3  N   UNL d   1      27.208 -15.299  -3.425  0.00  0.00    -0.266 N 
ATOM      4  H   UNL d   1      28.196 -15.237  -3.175  0.00  0.00     0.190 HD
ENDROOT
BRANCH   1   5
ATOM      5  C   UNL d   1      27.668 -14.271  -5.664  0.00  0.00     0.174 C 
ATOM      6  C   UNL d   1      28.408 -13.144  -4.931  0.00  0.00     0.042 C 
BRANCH   5   7
ATOM      7  N   UNL d   1      28.611 -15.224  -6.286  0.00  0.00    -0.344 N 
ATOM      8  C   UNL d   1      29.574 -15.902  -5.551  0.00  0.00     0.252 C 
ATOM      9  O   UNL d   1      29.779 -15.734  -4.351  0.00  0.00    -0.268 OA
ATOM     10  H   UNL d   1      28.435 -15.513  -7.241  0.00  0.00     0.163 HD
BRANCH   8  11
ATOM     11  C   UNL d   1      30.389 -16.912  -6.276  0.00  0.00     0.032 A 
ATOM     12  C   UNL d   1      31.202 -16.513  -7.341  0.00  0.00     0.018 A 
ATOM     13  C   UNL d   1      31.990 -17.454  -8.011  0.00  0.00     0.025 A 
ATOM     14  C   UNL d   1      31.971 -18.791  -7.617  0.00  0.00     0.034 A 
ATOM     15 CL   UNL d   1      32.917 -19.944  -8.475  0.00  0.00    -0.084 Cl
ATOM     16  C   UNL d   1      31.190 -19.195  -6.534  0.00  0.00     0.025 A 
ATOM     17  C   UNL d   1      30.405 -18.253  -5.854  0.00  0.00     0.018 A 
ENDBRANCH   8  11
ENDBRANCH   5   7
ENDBRANCH   1   5
BRANCH   3  18
ATOM     18  N   UNL d   1      26.362 -15.917  -2.457  0.00  0.00    -0.267 N 
ATOM     19  C   UNL d   1      26.973 -16.393  -1.320  0.00  0.00     0.236 C 
ATOM     20  O   UNL d   1      28.199 -16.313  -1.231  0.00  0.00    -0.272 OA
ATOM     21  H   UNL d   1      25.392 -16.091  -2.719  0.00  0.00     0.190 HD
BRANCH  19  22
ATOM     22  C   UNL d   1      26.061 -16.985  -0.232  0.00  0.00     0.109 C 
BRANCH  22  23
ATOM     23  C   UNL d   1      24.688 -17.482  -0.763  0.00  0.00    -0.006 C 
ATOM     24  C   UNL d   1      24.344 -18.853  -0.158  0.00  0.00     0.005 C 
ATOM     25  C   UNL d   1      22.938 -19.324  -0.521  0.00  0.00     0.000 C 
ATOM     26  C   UNL d   1      21.894 -18.273  -0.171  0.00  0.00     0.000 C 
ATOM     27  C   UNL d   1      22.184 -16.960  -0.891  0.00  0.00     0.000 C 
ATOM     28  C   UNL d   1      23.571 -16.443  -0.547  0.00  0.00     0.005 C 
ENDBRANCH  22  23
ENDBRANCH  19  22
ENDBRANCH   3  18
TORSDOF 6
ENDMDL
