MODEL 1
REMARK VINA RESULT:    -7.959      0.000      0.000
REMARK INTER + INTRA:         -11.266
REMARK INTER:                  -9.749
REMARK INTRA:                  -1.517
REMARK CONF_INDEPENDENT:        1.790
REMARK UNBOUND:                -1.517
REMARK  6 active torsions:
REMARK  status: ('A' for Active; 'I' for Inactive)
REMARK    1  A    between atoms: C_2  and  O_3 
REMARK    2  A    between atoms: O_3  and  C_4 
REMARK    3  A    between atoms: C_4  and  C_5 
REMARK       I    between atoms: C_5  and  N_7 
REMARK    4  A    between atoms: N_7  and  N_8 
REMARK       I    between atoms: N_8  and  C_9 
REMARK    5  A    between atoms: C_9  and  C_11 
REMARK    6  A    between atoms: C_13  and  C_14 
ROOT
ATOM      1  C   UNL d   1      24.135 -17.353  -0.748  0.00  0.00     0.148 A 
ATOM      2  C   UNL d   1      22.730 -17.313  -0.518  0.00  0.00     0.071 A 
ATOM      3  C   UNL d   1      22.365 -18.563  -0.058  0.00  0.00     0.062 A 
ATOM      4  N   UNL d   1      23.535 -19.275  -0.021  0.00  0.00    -0.277 N 
ATOM      5  N   UNL d   1      24.614 -18.573  -0.429  0.00  0.00    -0.169 NA
ATOM      6  H   UNL d   1      23.656 -20.253   0.228  0.00  0.00     0.189 HD
ENDROOT
BRANCH   1   7
ATOM      7  C   UNL d   1      24.977 -16.275  -1.328  0.00  0.00     0.290 C 
ATOM      8  N   UNL d   1      25.160 -16.326  -2.708  0.00  0.00    -0.262 N 
ATOM      9  H   UNL d   1      24.649 -16.966  -3.314  0.00  0.00     0.190 HD
ATOM     10  O   UNL d   1      25.520 -15.396  -0.647  0.00  0.00    -0.264 OA
BRANCH   8  11
ATOM     11  N   UNL d   1      25.977 -15.355  -3.363  0.00  0.00    -0.265 N 
ATOM     12  C   UNL d   1      26.115 -15.428  -4.746  0.00  0.00     0.259 C 
ATOM     13  O   UNL d   1      25.527 -16.296  -5.394  0.00  0.00    -0.269 OA
ATOM     14  H   UNL d   1      26.430 -14.664  -2.767  0.00  0.00     0.190 HD
BRANCH  12  15
ATOM     15  C   UNL d   1      27.047 -14.365  -5.387  0.00  0.00     0.272 C 
BRANCH  15  16
ATOM     16  O   UNL d   1      27.767 -14.875  -6.513  0.00  0.00    -0.382 OA
BRANCH  16  17
ATOM     17  C   UNL d   1      29.165 -15.025  -6.270  0.00  0.00     0.163 C 
ATOM     18  C   UNL d   1      29.373 -15.953  -5.081  0.00  0.00     0.033 C 
ENDBRANCH  16  17
ENDBRANCH  15  16
ENDBRANCH  12  15
ENDBRANCH   8  11
ENDBRANCH   1   7
BRANCH   3  19
ATOM     19  C   UNL d   1      21.051 -19.131   0.220  0.00  0.00    -0.008 A 
ATOM     20  C   UNL d   1      20.166 -19.470  -0.809  0.00  0.00     0.014 A 
ATOM     21  C   UNL d   1      18.889 -19.958  -0.510  0.00  0.00     0.001 A 
ATOM     22  C   UNL d   1      18.512 -20.173   0.815  0.00  0.00     0.000 A 
ATOM     23  C   UNL d   1      19.397 -19.867   1.845  0.00  0.00     0.001 A 
ATOM     24  C   UNL d   1      20.658 -19.343   1.549  0.00  0.00     0.014 A 
ENDBRANCH   3  19
TORSDOF 6
ENDMDL
MODEL 2
REMARK VINA RESULT:    -7.277      1.079      1.960
REMARK INTER + INTRA:         -11.158
REMARK INTER:                  -9.067
REMARK INTRA:                  -2.092
REMARK CONF_INDEPENDENT:        1.790
REMARK UNBOUND:                -2.092
REMARK  6 active torsions:
REMARK  status: ('A' for Active; 'I' for Inactive)
REMARK    1  A    between atoms: C_2  and  O_3 
REMARK    2  A    between atoms: O_3  and  C_4 
REMARK    3  A    between atoms: C_4  and  C_5 
REMARK       I    between atoms: C_5  and  N_7 
REMARK    4  A    between atoms: N_7  and  N_8 
REMARK       I    between atoms: N_8  and  C_9 
REMARK    5  A    between atoms: C_9  and  C_11 
REMARK    6  A    between atoms: C_13  and  C_14 
ROOT
ATOM      1  C   UNL d   1      24.108 -17.286  -0.754  0.00  0.00     0.148 A 
ATOM      2  C   UNL d   1      22.705 -17.272  -0.507  0.00  0.00     0.071 A 
ATOM      3  C   UNL d   1      22.367 -18.529  -0.047  0.00  0.00     0.062 A 
ATOM      4  N   UNL d   1      23.551 -19.220  -0.026  0.00  0.00    -0.277 N 
ATOM      5  N   UNL d   1      24.612 -18.498  -0.443  0.00  0.00    -0.169 NA
ATOM      6  H   UNL d   1      23.692 -20.196   0.220  0.00  0.00     0.189 HD
ENDROOT
BRANCH   1   7
ATOM      7  C   UNL d   1      24.923 -16.192  -1.340  0.00  0.00     0.290 C 
ATOM      8  N   UNL d   1      25.170 -16.286  -2.708  0.00  0.00    -0.262 N 
ATOM      9  H   UNL d   1      24.717 -16.973  -3.309  0.00  0.00     0.190 HD
ATOM     10  O   UNL d   1      25.394 -15.262  -0.673  0.00  0.00    -0.264 OA
BRANCH   8  11
ATOM     11  N   UNL d   1      25.969 -15.304  -3.367  0.00  0.00    -0.265 N 
ATOM     12  C   UNL d   1      26.105 -15.375  -4.750  0.00  0.00     0.259 C 
ATOM     13  O   UNL d   1      25.530 -16.254  -5.395  0.00  0.00    -0.269 OA
ATOM     14  H   UNL d   1      26.413 -14.604  -2.772  0.00  0.00     0.190 HD
BRANCH  12  15
ATOM     15  C   UNL d   1      27.017 -14.298  -5.394  0.00  0.00     0.272 C 
BRANCH  15  16
ATOM     16  O   UNL d   1      27.381 -13.266  -4.472  0.00  0.00    -0.382 OA
BRANCH  16  17
ATOM     17  C   UNL d   1      26.508 -12.138  -4.512  0.00  0.00     0.163 C 
ATOM     18  C   UNL d   1      25.613 -12.149  -3.280  0.00  0.00     0.033 C 
ENDBRANCH  16  17
ENDBRANCH  15  16
ENDBRANCH  12  15
ENDBRANCH   8  11
ENDBRANCH   1   7
BRANCH   3  19
ATOM     19  C   UNL d   1      21.067 -19.122   0.244  0.00  0.00    -0.008 A 
ATOM     20  C   UNL d   1      20.642 -19.345   1.559  0.00  0.00     0.014 A 
ATOM     21  C   UNL d   1      19.415 -19.970   1.807  0.00  0.00     0.001 A 
ATOM     22  C   UNL d   1      18.576 -20.316   0.748  0.00  0.00     0.000 A 
ATOM     23  C   UNL d   1      18.978 -20.070  -0.562  0.00  0.00     0.001 A 
ATOM     24  C   UNL d   1      20.220 -19.482  -0.812  0.00  0.00     0.014 A 
ENDBRANCH   3  19
TORSDOF 6
ENDMDL
MODEL 3
REMARK VINA RESULT:    -7.208      2.963      8.656
REMARK INTER + INTRA:         -10.925
REMARK INTER:                  -8.997
REMARK INTRA:                  -1.928
REMARK CONF_INDEPENDENT:        1.790
REMARK UNBOUND:                -1.928
REMARK  6 active torsions:
REMARK  status: ('A' for Active; 'I' for Inactive)
REMARK    1  A    between atoms: C_2  and  O_3 
REMARK    2  A    between atoms: O_3  and  C_4 
REMARK    3  A    between atoms: C_4  and  C_5 
REMARK       I    between atoms: C_5  and  N_7 
REMARK    4  A    between atoms: N_7  and  N_8 
REMARK       I    between atoms: N_8  and  C_9 
REMARK    5  A    between atoms: C_9  and  C_11 
REMARK    6  A    between atoms: C_13  and  C_14 
ROOT
ATOM      1  C   UNL d   1      25.022 -17.337  -0.947  0.00  0.00     0.148 A 
ATOM      2  C   UNL d   1      24.756 -16.574  -2.119  0.00  0.00     0.071 A 
ATOM      3  C   UNL d   1      25.929 -15.926  -2.450  0.00  0.00     0.062 A 
ATOM      4  N   UNL d   1      26.828 -16.327  -1.497  0.00  0.00    -0.277 N 
ATOM      5  N   UNL d   1      26.311 -17.176  -0.582  0.00  0.00    -0.169 NA
ATOM      6  H   UNL d   1      27.792 -16.024  -1.389  0.00  0.00     0.189 HD
ENDROOT
BRANCH   1   7
ATOM      7  C   UNL d   1      24.049 -18.137  -0.160  0.00  0.00     0.290 C 
ATOM      8  N   UNL d   1      22.811 -18.350  -0.763  0.00  0.00    -0.262 N 
ATOM      9  H   UNL d   1      22.615 -18.103  -1.732  0.00  0.00     0.190 HD
ATOM     10  O   UNL d   1      24.285 -18.569   0.975  0.00  0.00    -0.264 OA
BRANCH   8  11
ATOM     11  N   UNL d   1      21.792 -19.080  -0.080  0.00  0.00    -0.265 N 
ATOM     12  C   UNL d   1      20.695 -19.531  -0.809  0.00  0.00     0.259 C 
ATOM     13  O   UNL d   1      20.617 -19.325  -2.022  0.00  0.00    -0.269 OA
ATOM     14  H   UNL d   1      21.923 -19.216   0.922  0.00  0.00     0.190 HD
BRANCH  12  15
ATOM     15  C   UNL d   1      19.609 -20.284   0.005  0.00  0.00     0.272 C 
BRANCH  15  16
ATOM     16  O   UNL d   1      19.894 -20.308   1.406  0.00  0.00    -0.382 OA
BRANCH  16  17
ATOM     17  C   UNL d   1      18.786 -20.729   2.202  0.00  0.00     0.163 C 
ATOM     18  C   UNL d   1      17.847 -21.574   1.353  0.00  0.00     0.033 C 
ENDBRANCH  16  17
ENDBRANCH  15  16
ENDBRANCH  12  15
ENDBRANCH   8  11
ENDBRANCH   1   7
BRANCH   3  19
ATOM     19  C   UNL d   1      26.212 -14.925  -3.472  0.00  0.00    -0.008 A 
ATOM     20  C   UNL d   1      27.149 -15.158  -4.486  0.00  0.00     0.014 A 
ATOM     21  C   UNL d   1      27.443 -14.156  -5.418  0.00  0.00     0.001 A 
ATOM     22  C   UNL d   1      26.758 -12.942  -5.385  0.00  0.00     0.000 A 
ATOM     23  C   UNL d   1      25.803 -12.713  -4.398  0.00  0.00     0.001 A 
ATOM     24  C   UNL d   1      25.536 -13.698  -3.443  0.00  0.00     0.014 A 
ENDBRANCH   3  19
TORSDOF 6
ENDMDL
MODEL 4
REMARK VINA RESULT:    -6.844      1.557      1.815
REMARK INTER + INTRA:         -10.322
REMARK INTER:                  -8.634
REMARK INTRA:                  -1.688
REMARK CONF_INDEPENDENT:        1.790
REMARK UNBOUND:                -1.688
REMARK  6 active torsions:
REMARK  status: ('A' for Active; 'I' for Inactive)
REMARK    1  A    between atoms: C_2  and  O_3 
REMARK    2  A    between atoms: O_3  and  C_4 
REMARK    3  A    between atoms: C_4  and  C_5 
REMARK       I    between atoms: C_5  and  N_7 
REMARK    4  A    between atoms: N_7  and  N_8 
REMARK       I    between atoms: N_8  and  C_9 
REMARK    5  A    between atoms: C_9  and  C_11 
REMARK    6  A    between atoms: C_13  and  C_14 
ROOT
ATOM      1  C   UNL d   1      23.001 -17.931  -0.740  0.00  0.00     0.148 A 
ATOM      2  C   UNL d   1      22.457 -19.042  -0.035  0.00  0.00     0.071 A 
ATOM      3  C   UNL d   1      21.083 -18.950  -0.141  0.00  0.00     0.062 A 
ATOM      4  N   UNL d   1      20.868 -17.826  -0.895  0.00  0.00    -0.277 N 
ATOM      5  N   UNL d   1      22.001 -17.195  -1.270  0.00  0.00    -0.169 NA
ATOM      6  H   UNL d   1      19.975 -17.414  -1.149  0.00  0.00     0.189 HD
ENDROOT
BRANCH   1   7
ATOM      7  C   UNL d   1      24.432 -17.548  -0.837  0.00  0.00     0.290 C 
ATOM      8  N   UNL d   1      24.763 -16.703  -1.894  0.00  0.00    -0.262 N 
ATOM      9  H   UNL d   1      24.066 -16.256  -2.488  0.00  0.00     0.190 HD
ATOM     10  O   UNL d   1      25.301 -17.965  -0.061  0.00  0.00    -0.264 OA
BRANCH   8  11
ATOM     11  N   UNL d   1      26.117 -16.298  -2.097  0.00  0.00    -0.265 N 
ATOM     12  C   UNL d   1      26.416 -15.507  -3.203  0.00  0.00     0.259 C 
ATOM     13  O   UNL d   1      25.527 -15.145  -3.977  0.00  0.00    -0.269 OA
ATOM     14  H   UNL d   1      26.799 -16.630  -1.416  0.00  0.00     0.190 HD
BRANCH  12  15
ATOM     15  C   UNL d   1      27.911 -15.135  -3.381  0.00  0.00     0.272 C 
BRANCH  15  16
ATOM     16  O   UNL d   1      28.193 -14.607  -4.681  0.00  0.00    -0.382 OA
BRANCH  16  17
ATOM     17  C   UNL d   1      28.730 -15.575  -5.581  0.00  0.00     0.163 C 
ATOM     18  C   UNL d   1      29.421 -14.863  -6.735  0.00  0.00     0.033 C 
ENDBRANCH  16  17
ENDBRANCH  15  16
ENDBRANCH  12  15
ENDBRANCH   8  11
ENDBRANCH   1   7
BRANCH   3  19
ATOM     19  C   UNL d   1      20.023 -19.735   0.479  0.00  0.00    -0.008 A 
ATOM     20  C   UNL d   1      19.090 -20.442  -0.288  0.00  0.00     0.014 A 
ATOM     21  C   UNL d   1      18.047 -21.138   0.335  0.00  0.00     0.001 A 
ATOM     22  C   UNL d   1      17.967 -21.188   1.726  0.00  0.00     0.000 A 
ATOM     23  C   UNL d   1      18.909 -20.512   2.498  0.00  0.00     0.001 A 
ATOM     24  C   UNL d   1      19.927 -19.785   1.877  0.00  0.00     0.014 A 
ENDBRANCH   3  19
TORSDOF 6
ENDMDL
MODEL 5
REMARK VINA RESULT:    -6.736      2.985      8.799
REMARK INTER + INTRA:         -10.055
REMARK INTER:                  -8.526
REMARK INTRA:                  -1.529
REMARK CONF_INDEPENDENT:        1.790
REMARK UNBOUND:                -1.529
REMARK  6 active torsions:
REMARK  status: ('A' for Active; 'I' for Inactive)
REMARK    1  A    between atoms: C_2  and  O_3 
REMARK    2  A    between atoms: O_3  and  C_4 
REMARK    3  A    between atoms: C_4  and  C_5 
REMARK       I    between atoms: C_5  and  N_7 
REMARK    4  A    between atoms: N_7  and  N_8 
REMARK       I    between atoms: N_8  and  C_9 
REMARK    5  A    between atoms: C_9  and  C_11 
REMARK    6  A    between atoms: C_13  and  C_14 
ROOT
ATOM      1  C   UNL d   1      24.607 -17.464  -0.705  0.00  0.00     0.148 A 
ATOM      2  C   UNL d   1      25.276 -16.555  -1.573  0.00  0.00     0.071 A 
ATOM      3  C   UNL d   1      26.630 -16.751  -1.391  0.00  0.00     0.062 A 
ATOM      4  N   UNL d   1      26.714 -17.751  -0.458  0.00  0.00    -0.277 N 
ATOM      5  N   UNL d   1      25.514 -18.200  -0.029  0.00  0.00    -0.169 NA
ATOM      6  H   UNL d   1      27.555 -18.139  -0.041  0.00  0.00     0.189 HD
ENDROOT
BRANCH   1   7
ATOM      7  C   UNL d   1      23.143 -17.570  -0.477  0.00  0.00     0.290 C 
ATOM      8  N   UNL d   1      22.714 -18.716   0.190  0.00  0.00    -0.262 N 
ATOM      9  H   UNL d   1      23.355 -19.380   0.622  0.00  0.00     0.190 HD
ATOM     10  O   UNL d   1      22.331 -16.725  -0.874  0.00  0.00    -0.264 OA
BRANCH   8  11
ATOM     11  N   UNL d   1      21.324 -18.932   0.433  0.00  0.00    -0.265 N 
ATOM     12  C   UNL d   1      20.535 -19.417  -0.606  0.00  0.00     0.259 C 
ATOM     13  O   UNL d   1      21.030 -19.677  -1.705  0.00  0.00    -0.269 OA
ATOM     14  H   UNL d   1      20.983 -18.699   1.365  0.00  0.00     0.190 HD
BRANCH  12  15
ATOM     15  C   UNL d   1      19.028 -19.593  -0.282  0.00  0.00     0.272 C 
BRANCH  15  16
ATOM     16  O   UNL d   1      18.745 -19.433   1.112  0.00  0.00    -0.382 OA
BRANCH  16  17
ATOM     17  C   UNL d   1      18.525 -20.670   1.790  0.00  0.00     0.163 C 
ATOM     18  C   UNL d   1      17.669 -21.578   0.918  0.00  0.00     0.033 C 
ENDBRANCH  16  17
ENDBRANCH  15  16
ENDBRANCH  12  15
ENDBRANCH   8  11
ENDBRANCH   1   7
BRANCH   3  19
ATOM     19  C   UNL d   1      27.780 -16.026  -1.919  0.00  0.00    -0.008 A 
ATOM     20  C   UNL d   1      27.624 -14.897  -2.731  0.00  0.00     0.014 A 
ATOM     21  C   UNL d   1      28.745 -14.257  -3.272  0.00  0.00     0.001 A 
ATOM     22  C   UNL d   1      30.029 -14.698  -2.952  0.00  0.00     0.000 A 
ATOM     23  C   UNL d   1      30.194 -15.802  -2.120  0.00  0.00     0.001 A 
ATOM     24  C   UNL d   1      29.075 -16.466  -1.611  0.00  0.00     0.014 A 
ENDBRANCH   3  19
TORSDOF 6
ENDMDL
MODEL 6
REMARK VINA RESULT:    -6.661      1.882      2.718
REMARK INTER + INTRA:         -10.680
REMARK INTER:                  -8.451
REMARK INTRA:                  -2.230
REMARK CONF_INDEPENDENT:        1.790
REMARK UNBOUND:                -2.230
REMARK  6 active torsions:
REMARK  status: ('A' for Active; 'I' for Inactive)
REMARK    1  A    between atoms: C_2  and  O_3 
REMARK    2  A    between atoms: O_3  and  C_4 
REMARK    3  A    between atoms: C_4  and  C_5 
REMARK       I    between atoms: C_5  and  N_7 
REMARK    4  A    between atoms: N_7  and  N_8 
REMARK       I    between atoms: N_8  and  C_9 
REMARK    5  A    between atoms: C_9  and  C_11 
REMARK    6  A    between atoms: C_13  and  C_14 
ROOT
ATOM      1  C   UNL d   1      23.340 -18.182  -0.888  0.00  0.00     0.148 A 
ATOM      2  C   UNL d   1      22.566 -18.568   0.243  0.00  0.00     0.071 A 
ATOM      3  C   UNL d   1      21.482 -19.275  -0.236  0.00  0.00     0.062 A 
ATOM      4  N   UNL d   1      21.654 -19.295  -1.596  0.00  0.00    -0.277 N 
ATOM      5  N   UNL d   1      22.762 -18.647  -2.015  0.00  0.00    -0.169 NA
ATOM      6  H   UNL d   1      21.029 -19.693  -2.292  0.00  0.00     0.189 HD
ENDROOT
BRANCH   1   7
ATOM      7  C   UNL d   1      24.556 -17.329  -0.891  0.00  0.00     0.290 C 
ATOM      8  N   UNL d   1      24.753 -16.558  -2.035  0.00  0.00    -0.262 N 
ATOM      9  H   UNL d   1      24.054 -16.465  -2.770  0.00  0.00     0.190 HD
ATOM     10  O   UNL d   1      25.375 -17.311   0.036  0.00  0.00    -0.264 OA
BRANCH   8  11
ATOM     11  N   UNL d   1      25.906 -15.726  -2.154  0.00  0.00    -0.265 N 
ATOM     12  C   UNL d   1      26.002 -14.875  -3.251  0.00  0.00     0.259 C 
ATOM     13  O   UNL d   1      25.100 -14.824  -4.089  0.00  0.00    -0.269 OA
ATOM     14  H   UNL d   1      26.611 -15.817  -1.422  0.00  0.00     0.190 HD
BRANCH  12  15
ATOM     15  C   UNL d   1      27.299 -14.027  -3.335  0.00  0.00     0.272 C 
BRANCH  15  16
ATOM     16  O   UNL d   1      28.038 -14.033  -2.110  0.00  0.00    -0.382 OA
BRANCH  16  17
ATOM     17  C   UNL d   1      27.584 -13.061  -1.169  0.00  0.00     0.163 C 
ATOM     18  C   UNL d   1      26.920 -13.767   0.005  0.00  0.00     0.033 C 
ENDBRANCH  16  17
ENDBRANCH  15  16
ENDBRANCH  12  15
ENDBRANCH   8  11
ENDBRANCH   1   7
BRANCH   3  19
ATOM     19  C   UNL d   1      20.307 -19.802   0.448  0.00  0.00    -0.008 A 
ATOM     20  C   UNL d   1      20.223 -19.829   1.845  0.00  0.00     0.014 A 
ATOM     21  C   UNL d   1      19.109 -20.395   2.474  0.00  0.00     0.001 A 
ATOM     22  C   UNL d   1      18.042 -20.877   1.715  0.00  0.00     0.000 A 
ATOM     23  C   UNL d   1      18.104 -20.826   0.325  0.00  0.00     0.001 A 
ATOM     24  C   UNL d   1      19.233 -20.297  -0.304  0.00  0.00     0.014 A 
ENDBRANCH   3  19
TORSDOF 6
ENDMDL
MODEL 7
REMARK VINA RESULT:    -6.553      1.963      2.180
REMARK INTER + INTRA:         -10.517
REMARK INTER:                  -8.343
REMARK INTRA:                  -2.175
REMARK CONF_INDEPENDENT:        1.790
REMARK UNBOUND:                -2.175
REMARK  6 active torsions:
REMARK  status: ('A' for Active; 'I' for Inactive)
REMARK    1  A    between atoms: C_2  and  O_3 
REMARK    2  A    between atoms: O_3  and  C_4 
REMARK    3  A    between atoms: C_4  and  C_5 
REMARK       I    between atoms: C_5  and  N_7 
REMARK    4  A    between atoms: N_7  and  N_8 
REMARK       I    between atoms: N_8  and  C_9 
REMARK    5  A    between atoms: C_9  and  C_11 
REMARK    6  A    between atoms: C_13  and  C_14 
ROOT
ATOM      1  C   UNL d   1      23.296 -18.161  -0.854  0.00  0.00     0.148 A 
ATOM      2  C   UNL d   1      22.511 -18.570   0.262  0.00  0.00     0.071 A 
ATOM      3  C   UNL d   1      21.458 -19.310  -0.239  0.00  0.00     0.062 A 
ATOM      4  N   UNL d   1      21.659 -19.324  -1.595  0.00  0.00    -0.277 N 
ATOM      5  N   UNL d   1      22.755 -18.644  -1.992  0.00  0.00    -0.169 NA
ATOM      6  H   UNL d   1      21.062 -19.741  -2.304  0.00  0.00     0.189 HD
ENDROOT
BRANCH   1   7
ATOM      7  C   UNL d   1      24.485 -17.272  -0.832  0.00  0.00     0.290 C 
ATOM      8  N   UNL d   1      24.543 -16.312  -1.840  0.00  0.00    -0.262 N 
ATOM      9  H   UNL d   1      23.768 -16.124  -2.474  0.00  0.00     0.190 HD
ATOM     10  O   UNL d   1      25.398 -17.378  -0.003  0.00  0.00    -0.264 OA
BRANCH   8  11
ATOM     11  N   UNL d   1      25.659 -15.426  -1.930  0.00  0.00    -0.265 N 
ATOM     12  C   UNL d   1      25.699 -14.510  -2.977  0.00  0.00     0.259 C 
ATOM     13  O   UNL d   1      24.780 -14.450  -3.796  0.00  0.00    -0.269 OA
ATOM     14  H   UNL d   1      26.380 -15.528  -1.216  0.00  0.00     0.190 HD
BRANCH  12  15
ATOM     15  C   UNL d   1      26.958 -13.605  -3.033  0.00  0.00     0.272 C 
BRANCH  15  16
ATOM     16  O   UNL d   1      27.979 -14.030  -2.127  0.00  0.00    -0.382 OA
BRANCH  16  17
ATOM     17  C   UNL d   1      28.639 -15.227  -2.539  0.00  0.00     0.163 C 
ATOM     18  C   UNL d   1      28.768 -16.168  -1.349  0.00  0.00     0.033 C 
ENDBRANCH  16  17
ENDBRANCH  15  16
ENDBRANCH  12  15
ENDBRANCH   8  11
ENDBRANCH   1   7
BRANCH   3  19
ATOM     19  C   UNL d   1      20.286 -19.871   0.421  0.00  0.00    -0.008 A 
ATOM     20  C   UNL d   1      19.191 -20.347  -0.309  0.00  0.00     0.014 A 
ATOM     21  C   UNL d   1      18.055 -20.825   0.353  0.00  0.00     0.001 A 
ATOM     22  C   UNL d   1      18.030 -20.893   1.746  0.00  0.00     0.000 A 
ATOM     23  C   UNL d   1      19.127 -20.450   2.480  0.00  0.00     0.001 A 
ATOM     24  C   UNL d   1      20.246 -19.936   1.821  0.00  0.00     0.014 A 
ENDBRANCH   3  19
TORSDOF 6
ENDMDL
MODEL 8
REMARK VINA RESULT:    -6.284      2.361      3.101
REMARK INTER + INTRA:         -10.041
REMARK INTER:                  -8.074
REMARK INTRA:                  -1.967
REMARK CONF_INDEPENDENT:        1.790
REMARK UNBOUND:                -1.967
REMARK  6 active torsions:
REMARK  status: ('A' for Active; 'I' for Inactive)
REMARK    1  A    between atoms: C_2  and  O_3 
REMARK    2  A    between atoms: O_3  and  C_4 
REMARK    3  A    between atoms: C_4  and  C_5 
REMARK       I    between atoms: C_5  and  N_7 
REMARK    4  A    between atoms: N_7  and  N_8 
REMARK       I    between atoms: N_8  and  C_9 
REMARK    5  A    between atoms: C_9  and  C_11 
REMARK    6  A    between atoms: C_13  and  C_14 
ROOT
ATOM      1  C   UNL d   1      23.986 -17.262  -0.968  0.00  0.00     0.148 A 
ATOM      2  C   UNL d   1      22.595 -17.255  -0.662  0.00  0.00     0.071 A 
ATOM      3  C   UNL d   1      22.276 -18.522  -0.218  0.00  0.00     0.062 A 
ATOM      4  N   UNL d   1      23.459 -19.213  -0.261  0.00  0.00    -0.277 N 
ATOM      5  N   UNL d   1      24.502 -18.481  -0.707  0.00  0.00    -0.169 NA
ATOM      6  H   UNL d   1      23.609 -20.194  -0.045  0.00  0.00     0.189 HD
ENDROOT
BRANCH   1   7
ATOM      7  C   UNL d   1      24.776 -16.155  -1.563  0.00  0.00     0.290 C 
ATOM      8  N   UNL d   1      25.549 -15.414  -0.672  0.00  0.00    -0.262 N 
ATOM      9  H   UNL d   1      25.684 -15.681   0.302  0.00  0.00     0.190 HD
ATOM     10  O   UNL d   1      24.744 -15.867  -2.766  0.00  0.00    -0.264 OA
BRANCH   8  11
ATOM     11  N   UNL d   1      26.323 -14.307  -1.135  0.00  0.00    -0.265 N 
ATOM     12  C   UNL d   1      26.789 -13.385  -0.202  0.00  0.00     0.259 C 
ATOM     13  O   UNL d   1      26.558 -13.533   0.999  0.00  0.00    -0.269 OA
ATOM     14  H   UNL d   1      26.479 -14.250  -2.141  0.00  0.00     0.190 HD
BRANCH  12  15
ATOM     15  C   UNL d   1      27.592 -12.190  -0.780  0.00  0.00     0.272 C 
BRANCH  15  16
ATOM     16  O   UNL d   1      27.576 -12.159  -2.211  0.00  0.00    -0.382 OA
BRANCH  16  17
ATOM     17  C   UNL d   1      26.354 -11.656  -2.752  0.00  0.00     0.163 C 
ATOM     18  C   UNL d   1      26.310 -11.942  -4.246  0.00  0.00     0.033 C 
ENDBRANCH  16  17
ENDBRANCH  15  16
ENDBRANCH  12  15
ENDBRANCH   8  11
ENDBRANCH   1   7
BRANCH   3  19
ATOM     19  C   UNL d   1      20.989 -19.122   0.115  0.00  0.00    -0.008 A 
ATOM     20  C   UNL d   1      20.081 -19.506  -0.878  0.00  0.00     0.014 A 
ATOM     21  C   UNL d   1      18.829 -20.024  -0.528  0.00  0.00     0.001 A 
ATOM     22  C   UNL d   1      18.501 -20.223   0.814  0.00  0.00     0.000 A 
ATOM     23  C   UNL d   1      19.411 -19.872   1.807  0.00  0.00     0.001 A 
ATOM     24  C   UNL d   1      20.645 -19.318   1.460  0.00  0.00     0.014 A 
ENDBRANCH   3  19
TORSDOF 6
ENDMDL
MODEL 9
REMARK VINA RESULT:    -6.160      3.062      3.756
REMARK INTER + INTRA:         -10.065
REMARK INTER:                  -7.950
REMARK INTRA:                  -2.115
REMARK CONF_INDEPENDENT:        1.790
REMARK UNBOUND:                -2.115
REMARK  6 active torsions:
REMARK  status: ('A' for Active; 'I' for Inactive)
REMARK    1  A    between atoms: C_2  and  O_3 
REMARK    2  A    between atoms: O_3  and  C_4 
REMARK    3  A    between atoms: C_4  and  C_5 
REMARK       I    between atoms: C_5  and  N_7 
REMARK    4  A    between atoms: N_7  and  N_8 
REMARK       I    between atoms: N_8  and  C_9 
REMARK    5  A    between atoms: C_9  and  C_11 
REMARK    6  A    between atoms: C_13  and  C_14 
ROOT
ATOM      1  C   UNL d   1      24.841 -17.920  -0.118  0.00  0.00     0.148 A 
ATOM      2  C   UNL d   1      23.882 -18.966  -0.000  0.00  0.00     0.071 A 
ATOM      3  C   UNL d   1      22.643 -18.401  -0.228  0.00  0.00     0.062 A 
ATOM      4  N   UNL d   1      22.906 -17.079  -0.478  0.00  0.00    -0.277 N 
ATOM      5  N   UNL d   1      24.217 -16.763  -0.420  0.00  0.00    -0.169 NA
ATOM      6  H   UNL d   1      22.233 -16.337  -0.649  0.00  0.00     0.189 HD
ENDROOT
BRANCH   1   7
ATOM      7  C   UNL d   1      26.303 -18.016   0.128  0.00  0.00     0.290 C 
ATOM      8  N   UNL d   1      27.112 -17.286  -0.740  0.00  0.00    -0.262 N 
ATOM      9  H   UNL d   1      26.743 -16.618  -1.415  0.00  0.00     0.190 HD
ATOM     10  O   UNL d   1      26.798 -18.717   1.019  0.00  0.00    -0.264 OA
BRANCH   8  11
ATOM     11  N   UNL d   1      28.533 -17.332  -0.612  0.00  0.00    -0.265 N 
ATOM     12  C   UNL d   1      29.310 -16.746  -1.607  0.00  0.00     0.259 C 
ATOM     13  O   UNL d   1      28.782 -16.179  -2.566  0.00  0.00    -0.269 OA
ATOM     14  H   UNL d   1      28.901 -17.813   0.208  0.00  0.00     0.190 HD
BRANCH  12  15
ATOM     15  C   UNL d   1      30.846 -16.866  -1.421  0.00  0.00     0.272 C 
BRANCH  15  16
ATOM     16  O   UNL d   1      31.204 -17.831  -0.427  0.00  0.00    -0.382 OA
BRANCH  16  17
ATOM     17  C   UNL d   1      31.183 -19.174  -0.909  0.00  0.00     0.163 C 
ATOM     18  C   UNL d   1      31.589 -19.190  -2.376  0.00  0.00     0.033 C 
ENDBRANCH  16  17
ENDBRANCH  15  16
ENDBRANCH  12  15
ENDBRANCH   8  11
ENDBRANCH   1   7
BRANCH   3  19
ATOM     19  C   UNL d   1      21.302 -18.963  -0.118  0.00  0.00    -0.008 A 
ATOM     20  C   UNL d   1      20.762 -19.334   1.118  0.00  0.00     0.014 A 
ATOM     21  C   UNL d   1      19.496 -19.927   1.186  0.00  0.00     0.001 A 
ATOM     22  C   UNL d   1      18.734 -20.091   0.029  0.00  0.00     0.000 A 
ATOM     23  C   UNL d   1      19.251 -19.697  -1.202  0.00  0.00     0.001 A 
ATOM     24  C   UNL d   1      20.531 -19.142  -1.275  0.00  0.00     0.014 A 
ENDBRANCH   3  19
TORSDOF 6
ENDMDL
