MODEL 1
REMARK VINA RESULT:    -6.715      0.000      0.000
REMARK INTER + INTRA:         -11.514
REMARK INTER:                  -9.698
REMARK INTRA:                  -1.816
REMARK CONF_INDEPENDENT:        2.983
REMARK UNBOUND:                -1.816
REMARK  10 active torsions:
REMARK  status: ('A' for Active; 'I' for Inactive)
REMARK    1  A    between atoms: C_2  and  C_3 
REMARK    2  A    between atoms: C_3  and  C_4 
REMARK    3  A    between atoms: C_4  and  C_5 
REMARK    4  A    between atoms: C_5  and  N_6 
REMARK    5  A    between atoms: N_6  and  C_7 
REMARK    6  A    between atoms: C_7  and  N_9 
REMARK    7  A    between atoms: N_9  and  N_10 
REMARK       I    between atoms: N_10  and  C_11 
REMARK    8  A    between atoms: C_11  and  C_13 
REMARK    9  A    between atoms: C_15  and  N_16 
REMARK   10  A    between atoms: C_21  and  O_22 
ROOT
ATOM      1  N   UNL d   1      27.941 -15.051   2.002  0.00  0.00    -0.264 N 
ATOM      2  C   UNL d   1      27.278 -13.846   1.752  0.00  0.00     0.273 C 
ATOM      3  O   UNL d   1      26.639 -13.641   0.727  0.00  0.00    -0.266 OA
ATOM      4  H   UNL d   1      28.462 -15.200   2.863  0.00  0.00     0.190 HD
ENDROOT
BRANCH   1   5
ATOM      5  N   UNL d   1      28.348 -15.910   0.904  0.00  0.00    -0.274 N 
ATOM      6  H   UNL d   1      29.282 -16.308   0.980  0.00  0.00     0.189 HD
BRANCH   5   7
ATOM      7  C   UNL d   1      27.512 -16.103  -0.204  0.00  0.00     0.186 C 
ATOM      8  S   UNL d   1      28.078 -16.134  -1.791  0.00  0.00    -0.040 SA
BRANCH   7   9
ATOM      9  N   UNL d   1      26.173 -16.307   0.113  0.00  0.00    -0.366 N 
ATOM     10  H   UNL d   1      25.622 -15.526   0.446  0.00  0.00     0.161 HD
BRANCH   9  11
ATOM     11  C   UNL d   1      25.540 -17.640   0.148  0.00  0.00     0.122 C 
BRANCH  11  12
ATOM     12  C   UNL d   1      24.371 -17.822  -0.818  0.00  0.00     0.020 C 
BRANCH  12  13
ATOM     13  C   UNL d   1      23.213 -18.572  -0.144  0.00  0.00     0.001 C 
BRANCH  13  14
ATOM     14  C   UNL d   1      22.072 -18.832  -1.127  0.00  0.00    -0.004 C 
ATOM     15  C   UNL d   1      20.826 -19.324  -0.408  0.00  0.00     0.005 C 
ENDBRANCH  13  14
ENDBRANCH  12  13
ENDBRANCH  11  12
ENDBRANCH   9  11
ENDBRANCH   7   9
ENDBRANCH   5   7
ENDBRANCH   1   5
BRANCH   2  16
ATOM     16  C   UNL d   1      27.338 -12.759   2.808  0.00  0.00     0.069 A 
ATOM     17  C   UNL d   1      26.655 -11.559   2.482  0.00  0.00     0.056 A 
ATOM     18  C   UNL d   1      26.778 -10.407   3.288  0.00  0.00     0.104 A 
ATOM     19  C   UNL d   1      27.485 -10.452   4.487  0.00  0.00     0.039 A 
ATOM     20  C   UNL d   1      28.173 -11.620   4.807  0.00  0.00     0.040 A 
ATOM     21  C   UNL d   1      28.152 -12.758   3.966  0.00  0.00     0.084 A 
BRANCH  18  22
ATOM     22  N   UNL d   1      26.258  -9.107   2.825  0.00  0.00    -0.116 N 
ATOM     23  O   UNL d   1      26.841  -8.085   3.212  0.00  0.00    -0.532 OA
ATOM     24  O   UNL d   1      25.251  -9.111   2.102  0.00  0.00    -0.532 OA
ENDBRANCH  18  22
BRANCH  21  25
ATOM     25  O   UNL d   1      29.049 -13.687   4.430  0.00  0.00    -0.355 OA
ATOM     26  C   UNL d   1      28.557 -14.768   5.190  0.00  0.00     0.210 C 
ENDBRANCH  21  25
ENDBRANCH   2  16
TORSDOF 10
ENDMDL
MODEL 2
REMARK VINA RESULT:    -6.428      5.196      6.818
REMARK INTER + INTRA:         -10.990
REMARK INTER:                  -9.411
REMARK INTRA:                  -1.579
REMARK CONF_INDEPENDENT:        2.983
REMARK UNBOUND:                -1.579
REMARK  10 active torsions:
REMARK  status: ('A' for Active; 'I' for Inactive)
REMARK    1  A    between atoms: C_2  and  C_3 
REMARK    2  A    between atoms: C_3  and  C_4 
REMARK    3  A    between atoms: C_4  and  C_5 
REMARK    4  A    between atoms: C_5  and  N_6 
REMARK    5  A    between atoms: N_6  and  C_7 
REMARK    6  A    between atoms: C_7  and  N_9 
REMARK    7  A    between atoms: N_9  and  N_10 
REMARK       I    between atoms: N_10  and  C_11 
REMARK    8  A    between atoms: C_11  and  C_13 
REMARK    9  A    between atoms: C_15  and  N_16 
REMARK   10  A    between atoms: C_21  and  O_22 
ROOT
ATOM      1  N   UNL d   1      24.920 -15.797  -1.071  0.00  0.00    -0.264 N 
ATOM      2  C   UNL d   1      25.307 -15.296  -2.318  0.00  0.00     0.273 C 
ATOM      3  O   UNL d   1      24.504 -14.893  -3.150  0.00  0.00    -0.266 OA
ATOM      4  H   UNL d   1      25.606 -16.121  -0.394  0.00  0.00     0.190 HD
ENDROOT
BRANCH   1   5
ATOM      5  N   UNL d   1      23.588 -16.344  -0.880  0.00  0.00    -0.274 N 
ATOM      6  H   UNL d   1      22.820 -15.747  -1.182  0.00  0.00     0.189 HD
BRANCH   5   7
ATOM      7  C   UNL d   1      23.405 -17.585  -0.256  0.00  0.00     0.186 C 
ATOM      8  S   UNL d   1      24.682 -18.575   0.220  0.00  0.00    -0.040 SA
BRANCH   7   9
ATOM      9  N   UNL d   1      22.075 -17.923  -0.025  0.00  0.00    -0.366 N 
ATOM     10  H   UNL d   1      21.647 -17.661   0.854  0.00  0.00     0.161 HD
BRANCH   9  11
ATOM     11  C   UNL d   1      21.287 -18.787  -0.925  0.00  0.00     0.122 C 
BRANCH  11  12
ATOM     12  C   UNL d   1      19.955 -19.268  -0.353  0.00  0.00     0.020 C 
BRANCH  12  13
ATOM     13  C   UNL d   1      20.145 -19.870   1.048  0.00  0.00     0.001 C 
BRANCH  13  14
ATOM     14  C   UNL d   1      18.809 -20.292   1.657  0.00  0.00    -0.004 C 
ATOM     15  C   UNL d   1      18.084 -21.286   0.762  0.00  0.00     0.005 C 
ENDBRANCH  13  14
ENDBRANCH  12  13
ENDBRANCH  11  12
ENDBRANCH   9  11
ENDBRANCH   7   9
ENDBRANCH   5   7
ENDBRANCH   1   5
BRANCH   2  16
ATOM     16  C   UNL d   1      26.789 -15.232  -2.638  0.00  0.00     0.069 A 
ATOM     17  C   UNL d   1      27.106 -15.089  -4.013  0.00  0.00     0.056 A 
ATOM     18  C   UNL d   1      28.438 -15.195  -4.470  0.00  0.00     0.104 A 
ATOM     19  C   UNL d   1      29.489 -15.333  -3.567  0.00  0.00     0.039 A 
ATOM     20  C   UNL d   1      29.186 -15.492  -2.217  0.00  0.00     0.040 A 
ATOM     21  C   UNL d   1      27.853 -15.492  -1.741  0.00  0.00     0.084 A 
BRANCH  18  22
ATOM     22  N   UNL d   1      28.732 -15.277  -5.913  0.00  0.00    -0.116 N 
ATOM     23  O   UNL d   1      29.918 -15.384  -6.251  0.00  0.00    -0.532 OA
ATOM     24  O   UNL d   1      27.779 -15.200  -6.702  0.00  0.00    -0.532 OA
ENDBRANCH  18  22
BRANCH  21  25
ATOM     25  O   UNL d   1      27.840 -15.843  -0.414  0.00  0.00    -0.355 OA
ATOM     26  C   UNL d   1      28.066 -17.192  -0.079  0.00  0.00     0.210 C 
ENDBRANCH  21  25
ENDBRANCH   2  16
TORSDOF 10
ENDMDL
MODEL 3
REMARK VINA RESULT:    -6.075      5.718      6.603
REMARK INTER + INTRA:         -10.297
REMARK INTER:                  -9.058
REMARK INTRA:                  -1.239
REMARK CONF_INDEPENDENT:        2.983
REMARK UNBOUND:                -1.239
REMARK  10 active torsions:
REMARK  status: ('A' for Active; 'I' for Inactive)
REMARK    1  A    between atoms: C_2  and  C_3 
REMARK    2  A    between atoms: C_3  and  C_4 
REMARK    3  A    between atoms: C_4  and  C_5 
REMARK    4  A    between atoms: C_5  and  N_6 
REMARK    5  A    between atoms: N_6  and  C_7 
REMARK    6  A    between atoms: C_7  and  N_9 
REMARK    7  A    between atoms: N_9  and  N_10 
REMARK       I    between atoms: N_10  and  C_11 
REMARK    8  A    between atoms: C_11  and  C_13 
REMARK    9  A    between atoms: C_15  and  N_16 
REMARK   10  A    between atoms: C_21  and  O_22 
ROOT
ATOM      1  N   UNL d   1      25.846 -15.873  -2.640  0.00  0.00    -0.264 N 
ATOM      2  C   UNL d   1      25.178 -14.735  -3.102  0.00  0.00     0.273 C 
ATOM      3  O   UNL d   1      23.995 -14.519  -2.870  0.00  0.00    -0.266 OA
ATOM      4  H   UNL d   1      26.830 -16.028  -2.842  0.00  0.00     0.190 HD
ENDROOT
BRANCH   1   5
ATOM      5  N   UNL d   1      25.105 -17.080  -2.318  0.00  0.00    -0.274 N 
ATOM      6  H   UNL d   1      24.990 -17.742  -3.083  0.00  0.00     0.189 HD
BRANCH   5   7
ATOM      7  C   UNL d   1      24.543 -17.260  -1.047  0.00  0.00     0.186 C 
ATOM      8  S   UNL d   1      25.339 -18.052   0.209  0.00  0.00    -0.040 SA
BRANCH   7   9
ATOM      9  N   UNL d   1      23.280 -16.696  -0.891  0.00  0.00    -0.366 N 
ATOM     10  H   UNL d   1      23.185 -15.689  -0.919  0.00  0.00     0.161 HD
BRANCH   9  11
ATOM     11  C   UNL d   1      22.082 -17.475  -0.522  0.00  0.00     0.122 C 
BRANCH  11  12
ATOM     12  C   UNL d   1      21.940 -18.814  -1.242  0.00  0.00     0.020 C 
BRANCH  12  13
ATOM     13  C   UNL d   1      20.502 -19.345  -1.134  0.00  0.00     0.001 C 
BRANCH  13  14
ATOM     14  C   UNL d   1      20.011 -19.328   0.313  0.00  0.00    -0.004 C 
ATOM     15  C   UNL d   1      19.327 -20.636   0.679  0.00  0.00     0.005 C 
ENDBRANCH  13  14
ENDBRANCH  12  13
ENDBRANCH  11  12
ENDBRANCH   9  11
ENDBRANCH   7   9
ENDBRANCH   5   7
ENDBRANCH   1   5
BRANCH   2  16
ATOM     16  C   UNL d   1      25.965 -13.717  -3.908  0.00  0.00     0.069 A 
ATOM     17  C   UNL d   1      25.600 -12.363  -3.694  0.00  0.00     0.056 A 
ATOM     18  C   UNL d   1      26.122 -11.330  -4.503  0.00  0.00     0.104 A 
ATOM     19  C   UNL d   1      27.094 -11.603  -5.462  0.00  0.00     0.039 A 
ATOM     20  C   UNL d   1      27.445 -12.931  -5.691  0.00  0.00     0.040 A 
ATOM     21  C   UNL d   1      26.863 -13.998  -4.964  0.00  0.00     0.084 A 
BRANCH  18  22
ATOM     22  N   UNL d   1      25.567  -9.966  -4.429  0.00  0.00    -0.116 N 
ATOM     23  O   UNL d   1      25.493  -9.437  -3.312  0.00  0.00    -0.532 OA
ATOM     24  O   UNL d   1      25.179  -9.441  -5.483  0.00  0.00    -0.532 OA
ENDBRANCH  18  22
BRANCH  21  25
ATOM     25  O   UNL d   1      27.255 -15.193  -5.513  0.00  0.00    -0.355 OA
ATOM     26  C   UNL d   1      28.624 -15.384  -5.789  0.00  0.00     0.210 C 
ENDBRANCH  21  25
ENDBRANCH   2  16
TORSDOF 10
ENDMDL
MODEL 4
REMARK VINA RESULT:    -5.742      5.278      8.370
REMARK INTER + INTRA:         -10.087
REMARK INTER:                  -8.725
REMARK INTRA:                  -1.362
REMARK CONF_INDEPENDENT:        2.983
REMARK UNBOUND:                -1.362
REMARK  10 active torsions:
REMARK  status: ('A' for Active; 'I' for Inactive)
REMARK    1  A    between atoms: C_2  and  C_3 
REMARK    2  A    between atoms: C_3  and  C_4 
REMARK    3  A    between atoms: C_4  and  C_5 
REMARK    4  A    between atoms: C_5  and  N_6 
REMARK    5  A    between atoms: N_6  and  C_7 
REMARK    6  A    between atoms: C_7  and  N_9 
REMARK    7  A    between atoms: N_9  and  N_10 
REMARK       I    between atoms: N_10  and  C_11 
REMARK    8  A    between atoms: C_11  and  C_13 
REMARK    9  A    between atoms: C_15  and  N_16 
REMARK   10  A    between atoms: C_21  and  O_22 
ROOT
ATOM      1  N   UNL d   1      26.402 -14.268  -1.943  0.00  0.00    -0.264 N 
ATOM      2  C   UNL d   1      25.289 -15.043  -2.283  0.00  0.00     0.273 C 
ATOM      3  O   UNL d   1      24.535 -14.754  -3.204  0.00  0.00    -0.266 OA
ATOM      4  H   UNL d   1      27.016 -14.530  -1.177  0.00  0.00     0.190 HD
ENDROOT
BRANCH   1   5
ATOM      5  N   UNL d   1      26.450 -12.858  -2.290  0.00  0.00    -0.274 N 
ATOM      6  H   UNL d   1      26.503 -12.214  -1.503  0.00  0.00     0.189 HD
BRANCH   5   7
ATOM      7  C   UNL d   1      26.359 -12.443  -3.625  0.00  0.00     0.186 C 
ATOM      8  S   UNL d   1      27.151 -13.228  -4.889  0.00  0.00    -0.040 SA
BRANCH   7   9
ATOM      9  N   UNL d   1      25.528 -11.347  -3.833  0.00  0.00    -0.366 N 
ATOM     10  H   UNL d   1      24.614 -11.494  -4.243  0.00  0.00     0.161 HD
BRANCH   9  11
ATOM     11  C   UNL d   1      25.962  -9.950  -3.639  0.00  0.00     0.122 C 
BRANCH  11  12
ATOM     12  C   UNL d   1      26.253  -9.183  -4.927  0.00  0.00     0.020 C 
BRANCH  12  13
ATOM     13  C   UNL d   1      25.153  -9.426  -5.971  0.00  0.00     0.001 C 
BRANCH  13  14
ATOM     14  C   UNL d   1      23.986  -8.456  -5.786  0.00  0.00    -0.004 C 
ATOM     15  C   UNL d   1      24.399  -7.249  -4.957  0.00  0.00     0.005 C 
ENDBRANCH  13  14
ENDBRANCH  12  13
ENDBRANCH  11  12
ENDBRANCH   9  11
ENDBRANCH   7   9
ENDBRANCH   5   7
ENDBRANCH   1   5
BRANCH   2  16
ATOM     16  C   UNL d   1      25.023 -16.307  -1.486  0.00  0.00     0.069 A 
ATOM     17  C   UNL d   1      23.727 -16.861  -1.645  0.00  0.00     0.056 A 
ATOM     18  C   UNL d   1      23.284 -17.927  -0.832  0.00  0.00     0.104 A 
ATOM     19  C   UNL d   1      24.150 -18.535   0.074  0.00  0.00     0.039 A 
ATOM     20  C   UNL d   1      25.418 -17.987   0.249  0.00  0.00     0.040 A 
ATOM     21  C   UNL d   1      25.854 -16.854  -0.479  0.00  0.00     0.084 A 
BRANCH  18  22
ATOM     22  N   UNL d   1      21.869 -18.342  -0.843  0.00  0.00    -0.116 N 
ATOM     23  O   UNL d   1      21.628 -19.556  -0.833  0.00  0.00    -0.532 OA
ATOM     24  O   UNL d   1      21.007 -17.453  -0.895  0.00  0.00    -0.532 OA
ENDBRANCH  18  22
BRANCH  21  25
ATOM     25  O   UNL d   1      27.059 -16.426   0.017  0.00  0.00    -0.355 OA
ATOM     26  C   UNL d   1      28.195 -17.230  -0.203  0.00  0.00     0.210 C 
ENDBRANCH  21  25
ENDBRANCH   2  16
TORSDOF 10
ENDMDL
MODEL 5
REMARK VINA RESULT:    -5.633      5.940      6.810
REMARK INTER + INTRA:         -10.186
REMARK INTER:                  -8.616
REMARK INTRA:                  -1.570
REMARK CONF_INDEPENDENT:        2.983
REMARK UNBOUND:                -1.570
REMARK  10 active torsions:
REMARK  status: ('A' for Active; 'I' for Inactive)
REMARK    1  A    between atoms: C_2  and  C_3 
REMARK    2  A    between atoms: C_3  and  C_4 
REMARK    3  A    between atoms: C_4  and  C_5 
REMARK    4  A    between atoms: C_5  and  N_6 
REMARK    5  A    between atoms: N_6  and  C_7 
REMARK    6  A    between atoms: C_7  and  N_9 
REMARK    7  A    between atoms: N_9  and  N_10 
REMARK       I    between atoms: N_10  and  C_11 
REMARK    8  A    between atoms: C_11  and  C_13 
REMARK    9  A    between atoms: C_15  and  N_16 
REMARK   10  A    between atoms: C_21  and  O_22 
ROOT
ATOM      1  N   UNL d   1      25.184 -15.946  -1.741  0.00  0.00    -0.264 N 
ATOM      2  C   UNL d   1      25.095 -14.977  -2.745  0.00  0.00     0.273 C 
ATOM      3  O   UNL d   1      24.038 -14.450  -3.066  0.00  0.00    -0.266 OA
ATOM      4  H   UNL d   1      26.075 -16.367  -1.489  0.00  0.00     0.190 HD
ENDROOT
BRANCH   1   5
ATOM      5  N   UNL d   1      24.025 -16.745  -1.385  0.00  0.00    -0.274 N 
ATOM      6  H   UNL d   1      23.146 -16.459  -1.811  0.00  0.00     0.189 HD
BRANCH   5   7
ATOM      7  C   UNL d   1      24.132 -17.794  -0.461  0.00  0.00     0.186 C 
ATOM      8  S   UNL d   1      25.576 -18.206   0.301  0.00  0.00    -0.040 SA
BRANCH   7   9
ATOM      9  N   UNL d   1      22.934 -18.449  -0.192  0.00  0.00    -0.366 N 
ATOM     10  H   UNL d   1      22.943 -19.264   0.408  0.00  0.00     0.161 HD
BRANCH   9  11
ATOM     11  C   UNL d   1      21.660 -18.121  -0.861  0.00  0.00     0.122 C 
BRANCH  11  12
ATOM     12  C   UNL d   1      20.788 -19.325  -1.208  0.00  0.00     0.020 C 
BRANCH  12  13
ATOM     13  C   UNL d   1      19.596 -19.436  -0.246  0.00  0.00     0.001 C 
BRANCH  13  14
ATOM     14  C   UNL d   1      19.598 -20.775   0.490  0.00  0.00    -0.004 C 
ATOM     15  C   UNL d   1      18.186 -21.207   0.855  0.00  0.00     0.005 C 
ENDBRANCH  13  14
ENDBRANCH  12  13
ENDBRANCH  11  12
ENDBRANCH   9  11
ENDBRANCH   7   9
ENDBRANCH   5   7
ENDBRANCH   1   5
BRANCH   2  16
ATOM     16  C   UNL d   1      26.371 -14.551  -3.448  0.00  0.00     0.069 A 
ATOM     17  C   UNL d   1      26.218 -13.513  -4.403  0.00  0.00     0.056 A 
ATOM     18  C   UNL d   1      27.281 -13.142  -5.255  0.00  0.00     0.104 A 
ATOM     19  C   UNL d   1      28.543 -13.712  -5.103  0.00  0.00     0.039 A 
ATOM     20  C   UNL d   1      28.698 -14.744  -4.181  0.00  0.00     0.040 A 
ATOM     21  C   UNL d   1      27.623 -15.207  -3.384  0.00  0.00     0.084 A 
BRANCH  18  22
ATOM     22  N   UNL d   1      27.050 -12.232  -6.391  0.00  0.00    -0.116 N 
ATOM     23  O   UNL d   1      26.268 -11.287  -6.220  0.00  0.00    -0.532 OA
ATOM     24  O   UNL d   1      27.625 -12.484  -7.460  0.00  0.00    -0.532 OA
ENDBRANCH  18  22
BRANCH  21  25
ATOM     25  O   UNL d   1      28.010 -16.334  -2.703  0.00  0.00    -0.355 OA
ATOM     26  C   UNL d   1      29.388 -16.600  -2.581  0.00  0.00     0.210 C 
ENDBRANCH  21  25
ENDBRANCH   2  16
TORSDOF 10
ENDMDL
MODEL 6
REMARK VINA RESULT:    -5.609      1.214      1.604
REMARK INTER + INTRA:         -10.332
REMARK INTER:                  -8.592
REMARK INTRA:                  -1.740
REMARK CONF_INDEPENDENT:        2.983
REMARK UNBOUND:                -1.740
REMARK  10 active torsions:
REMARK  status: ('A' for Active; 'I' for Inactive)
REMARK    1  A    between atoms: C_2  and  C_3 
REMARK    2  A    between atoms: C_3  and  C_4 
REMARK    3  A    between atoms: C_4  and  C_5 
REMARK    4  A    between atoms: C_5  and  N_6 
REMARK    5  A    between atoms: N_6  and  C_7 
REMARK    6  A    between atoms: C_7  and  N_9 
REMARK    7  A    between atoms: N_9  and  N_10 
REMARK       I    between atoms: N_10  and  C_11 
REMARK    8  A    between atoms: C_11  and  C_13 
REMARK    9  A    between atoms: C_15  and  N_16 
REMARK   10  A    between atoms: C_21  and  O_22 
ROOT
ATOM      1  N   UNL d   1      28.017 -14.235   0.562  0.00  0.00    -0.264 N 
ATOM      2  C   UNL d   1      27.274 -13.052   0.613  0.00  0.00     0.273 C 
ATOM      3  O   UNL d   1      26.636 -12.627  -0.342  0.00  0.00    -0.266 OA
ATOM      4  H   UNL d   1      28.536 -14.570   1.370  0.00  0.00     0.190 HD
ENDROOT
BRANCH   1   5
ATOM      5  N   UNL d   1      28.495 -14.750  -0.709  0.00  0.00    -0.274 N 
ATOM      6  H   UNL d   1      28.635 -14.055  -1.440  0.00  0.00     0.189 HD
BRANCH   5   7
ATOM      7  C   UNL d   1      28.677 -16.126  -0.904  0.00  0.00     0.186 C 
ATOM      8  S   UNL d   1      29.265 -16.783  -2.340  0.00  0.00    -0.040 SA
BRANCH   7   9
ATOM      9  N   UNL d   1      28.368 -16.911   0.202  0.00  0.00    -0.366 N 
ATOM     10  H   UNL d   1      29.088 -17.496   0.607  0.00  0.00     0.161 HD
BRANCH   9  11
ATOM     11  C   UNL d   1      26.999 -17.066   0.731  0.00  0.00     0.122 C 
BRANCH  11  12
ATOM     12  C   UNL d   1      26.076 -17.935  -0.121  0.00  0.00     0.020 C 
BRANCH  12  13
ATOM     13  C   UNL d   1      25.060 -17.072  -0.884  0.00  0.00     0.001 C 
BRANCH  13  14
ATOM     14  C   UNL d   1      23.625 -17.444  -0.513  0.00  0.00    -0.004 C 
ATOM     15  C   UNL d   1      23.396 -18.944  -0.631  0.00  0.00     0.005 C 
ENDBRANCH  13  14
ENDBRANCH  12  13
ENDBRANCH  11  12
ENDBRANCH   9  11
ENDBRANCH   7   9
ENDBRANCH   5   7
ENDBRANCH   1   5
BRANCH   2  16
ATOM     16  C   UNL d   1      27.247 -12.276   1.917  0.00  0.00     0.069 A 
ATOM     17  C   UNL d   1      26.628 -11.001   1.850  0.00  0.00     0.056 A 
ATOM     18  C   UNL d   1      26.690 -10.102   2.937  0.00  0.00     0.104 A 
ATOM     19  C   UNL d   1      27.266 -10.488   4.144  0.00  0.00     0.039 A 
ATOM     20  C   UNL d   1      27.892 -11.730   4.214  0.00  0.00     0.040 A 
ATOM     21  C   UNL d   1      27.934 -12.612   3.107  0.00  0.00     0.084 A 
BRANCH  18  22
ATOM     22  N   UNL d   1      26.250  -8.703   2.780  0.00  0.00    -0.116 N 
ATOM     23  O   UNL d   1      25.520  -8.436   1.816  0.00  0.00    -0.532 OA
ATOM     24  O   UNL d   1      26.663  -7.872   3.601  0.00  0.00    -0.532 OA
ENDBRANCH  18  22
BRANCH  21  25
ATOM     25  O   UNL d   1      28.757 -13.671   3.398  0.00  0.00    -0.355 OA
ATOM     26  C   UNL d   1      28.271 -14.678   4.255  0.00  0.00     0.210 C 
ENDBRANCH  21  25
ENDBRANCH   2  16
TORSDOF 10
ENDMDL
MODEL 7
REMARK VINA RESULT:    -5.608      5.154      6.400
REMARK INTER + INTRA:         -10.527
REMARK INTER:                  -8.591
REMARK INTRA:                  -1.936
REMARK CONF_INDEPENDENT:        2.983
REMARK UNBOUND:                -1.936
REMARK  10 active torsions:
REMARK  status: ('A' for Active; 'I' for Inactive)
REMARK    1  A    between atoms: C_2  and  C_3 
REMARK    2  A    between atoms: C_3  and  C_4 
REMARK    3  A    between atoms: C_4  and  C_5 
REMARK    4  A    between atoms: C_5  and  N_6 
REMARK    5  A    between atoms: N_6  and  C_7 
REMARK    6  A    between atoms: C_7  and  N_9 
REMARK    7  A    between atoms: N_9  and  N_10 
REMARK       I    between atoms: N_10  and  C_11 
REMARK    8  A    between atoms: C_11  and  C_13 
REMARK    9  A    between atoms: C_15  and  N_16 
REMARK   10  A    between atoms: C_21  and  O_22 
ROOT
ATOM      1  N   UNL d   1      25.499 -11.710  -4.573  0.00  0.00    -0.264 N 
ATOM      2  C   UNL d   1      25.913 -11.156  -3.358  0.00  0.00     0.273 C 
ATOM      3  O   UNL d   1      26.336 -11.834  -2.430  0.00  0.00    -0.266 OA
ATOM      4  H   UNL d   1      25.155 -11.126  -5.331  0.00  0.00     0.190 HD
ENDROOT
BRANCH   1   5
ATOM      5  N   UNL d   1      25.063 -13.093  -4.641  0.00  0.00    -0.274 N 
ATOM      6  H   UNL d   1      24.129 -13.242  -5.019  0.00  0.00     0.189 HD
BRANCH   5   7
ATOM      7  C   UNL d   1      25.872 -14.126  -4.148  0.00  0.00     0.186 C 
ATOM      8  S   UNL d   1      27.072 -14.874  -5.064  0.00  0.00    -0.040 SA
BRANCH   7   9
ATOM      9  N   UNL d   1      25.630 -14.463  -2.820  0.00  0.00    -0.366 N 
ATOM     10  H   UNL d   1      25.923 -13.826  -2.090  0.00  0.00     0.161 HD
BRANCH   9  11
ATOM     11  C   UNL d   1      25.112 -15.779  -2.396  0.00  0.00     0.122 C 
BRANCH  11  12
ATOM     12  C   UNL d   1      25.713 -16.319  -1.101  0.00  0.00     0.020 C 
BRANCH  12  13
ATOM     13  C   UNL d   1      24.853 -17.458  -0.530  0.00  0.00     0.001 C 
BRANCH  13  14
ATOM     14  C   UNL d   1      23.372 -17.247  -0.843  0.00  0.00    -0.004 C 
ATOM     15  C   UNL d   1      22.626 -18.571  -0.900  0.00  0.00     0.005 C 
ENDBRANCH  13  14
ENDBRANCH  12  13
ENDBRANCH  11  12
ENDBRANCH   9  11
ENDBRANCH   7   9
ENDBRANCH   5   7
ENDBRANCH   1   5
BRANCH   2  16
ATOM     16  C   UNL d   1      25.851  -9.648  -3.197  0.00  0.00     0.069 A 
ATOM     17  C   UNL d   1      26.079  -9.170  -1.880  0.00  0.00     0.056 A 
ATOM     18  C   UNL d   1      25.875  -7.812  -1.552  0.00  0.00     0.104 A 
ATOM     19  C   UNL d   1      25.553  -6.884  -2.539  0.00  0.00     0.039 A 
ATOM     20  C   UNL d   1      25.310  -7.347  -3.830  0.00  0.00     0.040 A 
ATOM     21  C   UNL d   1      25.407  -8.719  -4.167  0.00  0.00     0.084 A 
BRANCH  18  22
ATOM     22  N   UNL d   1      25.888  -7.370  -0.145  0.00  0.00    -0.116 N 
ATOM     23  O   UNL d   1      26.793  -6.601   0.206  0.00  0.00    -0.532 OA
ATOM     24  O   UNL d   1      25.014  -7.819   0.610  0.00  0.00    -0.532 OA
ENDBRANCH  18  22
BRANCH  21  25
ATOM     25  O   UNL d   1      24.946  -8.910  -5.445  0.00  0.00    -0.355 OA
ATOM     26  C   UNL d   1      23.657  -8.443  -5.767  0.00  0.00     0.210 C 
ENDBRANCH  21  25
ENDBRANCH   2  16
TORSDOF 10
ENDMDL
MODEL 8
REMARK VINA RESULT:    -5.502      2.297      3.106
REMARK INTER + INTRA:         -10.476
REMARK INTER:                  -8.485
REMARK INTRA:                  -1.992
REMARK CONF_INDEPENDENT:        2.983
REMARK UNBOUND:                -1.992
REMARK  10 active torsions:
REMARK  status: ('A' for Active; 'I' for Inactive)
REMARK    1  A    between atoms: C_2  and  C_3 
REMARK    2  A    between atoms: C_3  and  C_4 
REMARK    3  A    between atoms: C_4  and  C_5 
REMARK    4  A    between atoms: C_5  and  N_6 
REMARK    5  A    between atoms: N_6  and  C_7 
REMARK    6  A    between atoms: C_7  and  N_9 
REMARK    7  A    between atoms: N_9  and  N_10 
REMARK       I    between atoms: N_10  and  C_11 
REMARK    8  A    between atoms: C_11  and  C_13 
REMARK    9  A    between atoms: C_15  and  N_16 
REMARK   10  A    between atoms: C_21  and  O_22 
ROOT
ATOM      1  N   UNL d   1      27.785 -15.038   2.049  0.00  0.00    -0.264 N 
ATOM      2  C   UNL d   1      27.212 -13.799   1.749  0.00  0.00     0.273 C 
ATOM      3  O   UNL d   1      26.627 -13.575   0.697  0.00  0.00    -0.266 OA
ATOM      4  H   UNL d   1      28.262 -15.202   2.932  0.00  0.00     0.190 HD
ENDROOT
BRANCH   1   5
ATOM      5  N   UNL d   1      28.176 -15.945   0.983  0.00  0.00    -0.274 N 
ATOM      6  H   UNL d   1      29.166 -16.182   0.949  0.00  0.00     0.189 HD
BRANCH   5   7
ATOM      7  C   UNL d   1      27.240 -16.391   0.041  0.00  0.00     0.186 C 
ATOM      8  S   UNL d   1      26.318 -17.786   0.247  0.00  0.00    -0.040 SA
BRANCH   7   9
ATOM      9  N   UNL d   1      27.103 -15.565  -1.071  0.00  0.00    -0.366 N 
ATOM     10  H   UNL d   1      27.431 -14.609  -1.017  0.00  0.00     0.161 HD
BRANCH   9  11
ATOM     11  C   UNL d   1      26.355 -15.953  -2.283  0.00  0.00     0.122 C 
BRANCH  11  12
ATOM     12  C   UNL d   1      25.313 -14.938  -2.748  0.00  0.00     0.020 C 
BRANCH  12  13
ATOM     13  C   UNL d   1      25.531 -14.562  -4.221  0.00  0.00     0.001 C 
BRANCH  13  14
ATOM     14  C   UNL d   1      25.505 -13.047  -4.419  0.00  0.00    -0.004 C 
ATOM     15  C   UNL d   1      25.911 -12.318  -3.147  0.00  0.00     0.005 C 
ENDBRANCH  13  14
ENDBRANCH  12  13
ENDBRANCH  11  12
ENDBRANCH   9  11
ENDBRANCH   7   9
ENDBRANCH   5   7
ENDBRANCH   1   5
BRANCH   2  16
ATOM     16  C   UNL d   1      27.303 -12.695   2.787  0.00  0.00     0.069 A 
ATOM     17  C   UNL d   1      26.644 -11.486   2.444  0.00  0.00     0.056 A 
ATOM     18  C   UNL d   1      26.797 -10.324   3.230  0.00  0.00     0.104 A 
ATOM     19  C   UNL d   1      27.511 -10.364   4.425  0.00  0.00     0.039 A 
ATOM     20  C   UNL d   1      28.176 -11.541   4.760  0.00  0.00     0.040 A 
ATOM     21  C   UNL d   1      28.125 -12.693   3.939  0.00  0.00     0.084 A 
BRANCH  18  22
ATOM     22  N   UNL d   1      26.302  -9.021   2.748  0.00  0.00    -0.116 N 
ATOM     23  O   UNL d   1      25.466  -9.027   1.835  0.00  0.00    -0.532 OA
ATOM     24  O   UNL d   1      26.776  -7.997   3.261  0.00  0.00    -0.532 OA
ENDBRANCH  18  22
BRANCH  21  25
ATOM     25  O   UNL d   1      29.004 -13.633   4.413  0.00  0.00    -0.355 OA
ATOM     26  C   UNL d   1      28.587 -14.464   5.472  0.00  0.00     0.210 C 
ENDBRANCH  21  25
ENDBRANCH   2  16
TORSDOF 10
ENDMDL
MODEL 9
REMARK VINA RESULT:    -4.870      5.189      7.692
REMARK INTER + INTRA:         -10.303
REMARK INTER:                  -7.853
REMARK INTRA:                  -2.450
REMARK CONF_INDEPENDENT:        2.983
REMARK UNBOUND:                -2.450
REMARK  10 active torsions:
REMARK  status: ('A' for Active; 'I' for Inactive)
REMARK    1  A    between atoms: C_2  and  C_3 
REMARK    2  A    between atoms: C_3  and  C_4 
REMARK    3  A    between atoms: C_4  and  C_5 
REMARK    4  A    between atoms: C_5  and  N_6 
REMARK    5  A    between atoms: N_6  and  C_7 
REMARK    6  A    between atoms: C_7  and  N_9 
REMARK    7  A    between atoms: N_9  and  N_10 
REMARK       I    between atoms: N_10  and  C_11 
REMARK    8  A    between atoms: C_11  and  C_13 
REMARK    9  A    between atoms: C_15  and  N_16 
REMARK   10  A    between atoms: C_21  and  O_22 
ROOT
ATOM      1  N   UNL d   1      26.308 -13.963  -1.956  0.00  0.00    -0.264 N 
ATOM      2  C   UNL d   1      25.237 -14.821  -2.223  0.00  0.00     0.273 C 
ATOM      3  O   UNL d   1      24.352 -14.548  -3.024  0.00  0.00    -0.266 OA
ATOM      4  H   UNL d   1      27.034 -14.214  -1.290  0.00  0.00     0.190 HD
ENDROOT
BRANCH   1   5
ATOM      5  N   UNL d   1      26.185 -12.536  -2.194  0.00  0.00    -0.274 N 
ATOM      6  H   UNL d   1      26.000 -11.967  -1.370  0.00  0.00     0.189 HD
BRANCH   5   7
ATOM      7  C   UNL d   1      26.254 -12.016  -3.494  0.00  0.00     0.186 C 
ATOM      8  S   UNL d   1      26.902 -10.502  -3.847  0.00  0.00    -0.040 SA
BRANCH   7   9
ATOM      9  N   UNL d   1      25.777 -12.871  -4.483  0.00  0.00    -0.366 N 
ATOM     10  H   UNL d   1      24.784 -13.059  -4.532  0.00  0.00     0.161 HD
BRANCH   9  11
ATOM     11  C   UNL d   1      26.656 -13.654  -5.373  0.00  0.00     0.122 C 
BRANCH  11  12
ATOM     12  C   UNL d   1      26.677 -15.156  -5.097  0.00  0.00     0.020 C 
BRANCH  12  13
ATOM     13  C   UNL d   1      28.005 -15.575  -4.448  0.00  0.00     0.001 C 
BRANCH  13  14
ATOM     14  C   UNL d   1      29.185 -14.825  -5.062  0.00  0.00    -0.004 C 
ATOM     15  C   UNL d   1      29.399 -15.226  -6.514  0.00  0.00     0.005 C 
ENDBRANCH  13  14
ENDBRANCH  12  13
ENDBRANCH  11  12
ENDBRANCH   9  11
ENDBRANCH   7   9
ENDBRANCH   5   7
ENDBRANCH   1   5
BRANCH   2  16
ATOM     16  C   UNL d   1      25.187 -16.155  -1.502  0.00  0.00     0.069 A 
ATOM     17  C   UNL d   1      23.973 -16.876  -1.644  0.00  0.00     0.056 A 
ATOM     18  C   UNL d   1      23.723 -18.040  -0.886  0.00  0.00     0.104 A 
ATOM     19  C   UNL d   1      24.708 -18.574  -0.059  0.00  0.00     0.039 A 
ATOM     20  C   UNL d   1      25.895 -17.864   0.101  0.00  0.00     0.040 A 
ATOM     21  C   UNL d   1      26.134 -16.640  -0.568  0.00  0.00     0.084 A 
BRANCH  18  22
ATOM     22  N   UNL d   1      22.380 -18.649  -0.868  0.00  0.00    -0.116 N 
ATOM     23  O   UNL d   1      22.042 -19.325  -1.849  0.00  0.00    -0.532 OA
ATOM     24  O   UNL d   1      21.656 -18.422   0.113  0.00  0.00    -0.532 OA
ENDBRANCH  18  22
BRANCH  21  25
ATOM     25  O   UNL d   1      27.292 -16.077  -0.094  0.00  0.00    -0.355 OA
ATOM     26  C   UNL d   1      28.521 -16.590  -0.555  0.00  0.00     0.210 C 
ENDBRANCH  21  25
ENDBRANCH   2  16
TORSDOF 10
ENDMDL
