MODEL 1
REMARK VINA RESULT:    -8.717      0.000      0.000
REMARK INTER + INTRA:         -11.607
REMARK INTER:                 -10.507
REMARK INTRA:                  -1.101
REMARK CONF_INDEPENDENT:        1.790
REMARK UNBOUND:                -1.101
REMARK  6 active torsions:
REMARK  status: ('A' for Active; 'I' for Inactive)
REMARK    1  A    between atoms: C_3  and  C_4 
REMARK       I    between atoms: C_4  and  N_6 
REMARK    2  A    between atoms: N_6  and  N_7 
REMARK    3  A    between atoms: C_8  and  C_9 
REMARK    4  A    between atoms: C_12  and  O_13 
REMARK    5  A    between atoms: C_16  and  C_17 
REMARK    6  A    between atoms: C_21  and  N_22 
ROOT
ATOM      1  C   UNL d   1      28.986 -13.375  -1.342  0.00  0.00     0.069 C 
ATOM      2  C   UNL d   1      27.657 -13.962  -1.748  0.00  0.00     0.021 C 
ATOM      3  C   UNL d   1      26.635 -14.407  -0.964  0.00  0.00     0.060 C 
ATOM      4  C   UNL d   1      25.430 -15.044  -1.674  0.00  0.00     0.158 C 
ATOM      5  N   UNL d   1      25.760 -15.492  -3.019  0.00  0.00    -0.354 N 
ATOM      6  C   UNL d   1      26.694 -14.886  -3.784  0.00  0.00     0.172 C 
ATOM      7  S   UNL d   1      26.832 -15.204  -5.407  0.00  0.00    -0.041 SA
ATOM      8  N   UNL d   1      27.559 -14.073  -3.131  0.00  0.00    -0.337 N 
ATOM      9  H   UNL d   1      25.161 -16.158  -3.492  0.00  0.00     0.163 HD
ATOM     10  H   UNL d   1      28.295 -13.671  -3.709  0.00  0.00     0.168 HD
ENDROOT
BRANCH   3  11
ATOM     11  C   UNL d   1      26.717 -14.263   0.573  0.00  0.00     0.272 C 
ATOM     12  O   UNL d   1      25.933 -13.524   1.179  0.00  0.00    -0.266 OA
ATOM     13  N   UNL d   1      27.669 -14.963   1.296  0.00  0.00    -0.243 N 
ATOM     14  H   UNL d   1      28.315 -15.599   0.875  0.00  0.00     0.192 HD
BRANCH  13  15
ATOM     15  N   UNL d   1      27.777 -14.806   2.661  0.00  0.00    -0.183 NA
ATOM     16  C   UNL d   1      28.150 -13.647   3.106  0.00  0.00     0.150 C 
BRANCH  16  17
ATOM     17  C   UNL d   1      28.312 -13.398   4.557  0.00  0.00    -0.017 A 
ATOM     18  C   UNL d   1      27.936 -12.160   5.086  0.00  0.00     0.015 A 
ATOM     19  C   UNL d   1      28.084 -11.904   6.453  0.00  0.00     0.037 A 
ATOM     20  C   UNL d   1      28.617 -12.889   7.280  0.00  0.00     0.065 A 
ATOM     21  C   UNL d   1      28.996 -14.124   6.762  0.00  0.00     0.037 A 
ATOM     22  C   UNL d   1      28.829 -14.391   5.397  0.00  0.00     0.015 A 
BRANCH  20  23
ATOM     23  O   UNL d   1      28.791 -12.690   8.618  0.00  0.00    -0.361 OA
ATOM     24  H   UNL d   1      28.732 -11.741   8.814  0.00  0.00     0.217 HD
ENDBRANCH  20  23
ENDBRANCH  16  17
ENDBRANCH  13  15
ENDBRANCH   3  11
BRANCH   4  25
ATOM     25  C   UNL d   1      24.878 -16.254  -0.949  0.00  0.00    -0.028 C 
ATOM     26  C   UNL d   1      25.735 -17.157  -0.299  0.00  0.00     0.010 C 
ATOM     27  C   UNL d   1      25.296 -18.462  -0.071  0.00  0.00     0.003 C 
ATOM     28  C   UNL d   1      23.971 -18.820  -0.346  0.00  0.00     0.036 C 
ATOM     29  C   UNL d   1      23.082 -17.866  -0.858  0.00  0.00     0.103 C 
ATOM     30  C   UNL d   1      23.528 -16.582  -1.152  0.00  0.00     0.045 C 
BRANCH  29  31
ATOM     31  N   UNL d   1      21.704 -18.236  -1.190  0.00  0.00    -0.116 N 
ATOM     32  O   UNL d   1      20.809 -17.435  -0.896  0.00  0.00    -0.532 OA
ATOM     33  O   UNL d   1      21.519 -19.329  -1.750  0.00  0.00    -0.532 OA
ENDBRANCH  29  31
ENDBRANCH   4  25
TORSDOF 6
ENDMDL
MODEL 2
REMARK VINA RESULT:    -7.902      3.168      8.064
REMARK INTER + INTRA:         -10.745
REMARK INTER:                  -9.691
REMARK INTRA:                  -1.054
REMARK CONF_INDEPENDENT:        1.790
REMARK UNBOUND:                -1.054
REMARK  6 active torsions:
REMARK  status: ('A' for Active; 'I' for Inactive)
REMARK    1  A    between atoms: C_3  and  C_4 
REMARK       I    between atoms: C_4  and  N_6 
REMARK    2  A    between atoms: N_6  and  N_7 
REMARK    3  A    between atoms: C_8  and  C_9 
REMARK    4  A    between atoms: C_12  and  O_13 
REMARK    5  A    between atoms: C_16  and  C_17 
REMARK    6  A    between atoms: C_21  and  N_22 
ROOT
ATOM      1  C   UNL d   1      30.807 -14.066  -0.985  0.00  0.00     0.069 C 
ATOM      2  C   UNL d   1      31.032 -14.363   0.477  0.00  0.00     0.021 C 
ATOM      3  C   UNL d   1      30.120 -14.633   1.452  0.00  0.00     0.060 C 
ATOM      4  C   UNL d   1      30.653 -14.807   2.883  0.00  0.00     0.158 C 
ATOM      5  N   UNL d   1      31.968 -14.207   3.056  0.00  0.00    -0.354 N 
ATOM      6  C   UNL d   1      32.870 -14.120   2.055  0.00  0.00     0.172 C 
ATOM      7  S   UNL d   1      34.457 -13.730   2.342  0.00  0.00    -0.041 SA
ATOM      8  N   UNL d   1      32.382 -14.287   0.801  0.00  0.00    -0.337 N 
ATOM      9  H   UNL d   1      32.315 -14.008   3.986  0.00  0.00     0.163 HD
ATOM     10  H   UNL d   1      33.061 -14.158   0.053  0.00  0.00     0.168 HD
ENDROOT
BRANCH   3  11
ATOM     11  C   UNL d   1      28.620 -14.750   1.101  0.00  0.00     0.272 C 
ATOM     12  O   UNL d   1      27.918 -13.739   0.986  0.00  0.00    -0.266 OA
ATOM     13  N   UNL d   1      28.037 -15.992   0.908  0.00  0.00    -0.243 N 
ATOM     14  H   UNL d   1      28.549 -16.849   0.958  0.00  0.00     0.192 HD
BRANCH  13  15
ATOM     15  N   UNL d   1      26.689 -16.107   0.638  0.00  0.00    -0.183 NA
ATOM     16  C   UNL d   1      26.267 -17.233   0.153  0.00  0.00     0.150 C 
BRANCH  16  17
ATOM     17  C   UNL d   1      24.839 -17.434  -0.185  0.00  0.00    -0.017 A 
ATOM     18  C   UNL d   1      24.058 -16.329  -0.538  0.00  0.00     0.015 A 
ATOM     19  C   UNL d   1      22.706 -16.497  -0.857  0.00  0.00     0.037 A 
ATOM     20  C   UNL d   1      22.145 -17.769  -0.812  0.00  0.00     0.065 A 
ATOM     21  C   UNL d   1      22.915 -18.874  -0.460  0.00  0.00     0.037 A 
ATOM     22  C   UNL d   1      24.273 -18.714  -0.160  0.00  0.00     0.015 A 
BRANCH  20  23
ATOM     23  O   UNL d   1      20.831 -17.989  -1.107  0.00  0.00    -0.361 OA
ATOM     24  H   UNL d   1      20.494 -17.255  -1.646  0.00  0.00     0.217 HD
ENDBRANCH  20  23
ENDBRANCH  16  17
ENDBRANCH  13  15
ENDBRANCH   3  11
BRANCH   4  25
ATOM     25  C   UNL d   1      29.760 -14.180   3.935  0.00  0.00    -0.028 C 
ATOM     26  C   UNL d   1      29.319 -14.922   5.042  0.00  0.00     0.010 C 
ATOM     27  C   UNL d   1      28.162 -14.520   5.709  0.00  0.00     0.003 C 
ATOM     28  C   UNL d   1      27.538 -13.311   5.377  0.00  0.00     0.036 C 
ATOM     29  C   UNL d   1      28.075 -12.504   4.366  0.00  0.00     0.103 C 
ATOM     30  C   UNL d   1      29.189 -12.929   3.650  0.00  0.00     0.045 C 
BRANCH  29  31
ATOM     31  N   UNL d   1      27.411 -11.257   3.977  0.00  0.00    -0.116 N 
ATOM     32  O   UNL d   1      27.496 -10.297   4.751  0.00  0.00    -0.532 OA
ATOM     33  O   UNL d   1      26.805 -11.240   2.893  0.00  0.00    -0.532 OA
ENDBRANCH  29  31
ENDBRANCH   4  25
TORSDOF 6
ENDMDL
MODEL 3
REMARK VINA RESULT:    -7.766      4.215      9.361
REMARK INTER + INTRA:         -10.509
REMARK INTER:                  -9.556
REMARK INTRA:                  -0.953
REMARK CONF_INDEPENDENT:        1.790
REMARK UNBOUND:                -0.953
REMARK  6 active torsions:
REMARK  status: ('A' for Active; 'I' for Inactive)
REMARK    1  A    between atoms: C_3  and  C_4 
REMARK       I    between atoms: C_4  and  N_6 
REMARK    2  A    between atoms: N_6  and  N_7 
REMARK    3  A    between atoms: C_8  and  C_9 
REMARK    4  A    between atoms: C_12  and  O_13 
REMARK    5  A    between atoms: C_16  and  C_17 
REMARK    6  A    between atoms: C_21  and  N_22 
ROOT
ATOM      1  C   UNL d   1      28.470 -15.575   5.029  0.00  0.00     0.069 C 
ATOM      2  C   UNL d   1      28.275 -14.114   5.354  0.00  0.00     0.021 C 
ATOM      3  C   UNL d   1      27.772 -13.118   4.573  0.00  0.00     0.060 C 
ATOM      4  C   UNL d   1      27.783 -11.695   5.155  0.00  0.00     0.158 C 
ATOM      5  N   UNL d   1      28.741 -11.556   6.244  0.00  0.00    -0.354 N 
ATOM      6  C   UNL d   1      29.066 -12.576   7.067  0.00  0.00     0.172 C 
ATOM      7  S   UNL d   1      29.903 -12.326   8.477  0.00  0.00    -0.041 SA
ATOM      8  N   UNL d   1      28.744 -13.818   6.629  0.00  0.00    -0.337 N 
ATOM      9  H   UNL d   1      29.048 -10.636   6.533  0.00  0.00     0.163 HD
ATOM     10  H   UNL d   1      29.049 -14.581   7.229  0.00  0.00     0.168 HD
ENDROOT
BRANCH   3  11
ATOM     11  C   UNL d   1      27.220 -13.437   3.165  0.00  0.00     0.272 C 
ATOM     12  O   UNL d   1      26.309 -12.760   2.676  0.00  0.00    -0.266 OA
ATOM     13  N   UNL d   1      27.740 -14.489   2.427  0.00  0.00    -0.243 N 
ATOM     14  H   UNL d   1      28.494 -15.060   2.748  0.00  0.00     0.192 HD
BRANCH  13  15
ATOM     15  N   UNL d   1      27.223 -14.808   1.189  0.00  0.00    -0.183 NA
ATOM     16  C   UNL d   1      27.168 -13.866   0.300  0.00  0.00     0.150 C 
BRANCH  16  17
ATOM     17  C   UNL d   1      26.607 -14.117  -1.048  0.00  0.00    -0.017 A 
ATOM     18  C   UNL d   1      26.399 -15.434  -1.468  0.00  0.00     0.015 A 
ATOM     19  C   UNL d   1      25.873 -15.693  -2.738  0.00  0.00     0.037 A 
ATOM     20  C   UNL d   1      25.569 -14.630  -3.583  0.00  0.00     0.065 A 
ATOM     21  C   UNL d   1      25.774 -13.315  -3.173  0.00  0.00     0.037 A 
ATOM     22  C   UNL d   1      26.280 -13.052  -1.895  0.00  0.00     0.015 A 
BRANCH  20  23
ATOM     23  O   UNL d   1      25.061 -14.825  -4.833  0.00  0.00    -0.361 OA
ATOM     24  H   UNL d   1      24.391 -14.148  -5.020  0.00  0.00     0.217 HD
ENDBRANCH  20  23
ENDBRANCH  16  17
ENDBRANCH  13  15
ENDBRANCH   3  11
BRANCH   4  25
ATOM     25  C   UNL d   1      28.145 -10.634   4.136  0.00  0.00    -0.028 C 
ATOM     26  C   UNL d   1      29.486 -10.288   3.901  0.00  0.00     0.010 C 
ATOM     27  C   UNL d   1      29.776  -9.036   3.359  0.00  0.00     0.003 C 
ATOM     28  C   UNL d   1      28.745  -8.201   2.914  0.00  0.00     0.036 C 
ATOM     29  C   UNL d   1      27.412  -8.622   3.020  0.00  0.00     0.103 C 
ATOM     30  C   UNL d   1      27.109  -9.839   3.621  0.00  0.00     0.045 C 
BRANCH  29  31
ATOM     31  N   UNL d   1      26.318  -7.742   2.599  0.00  0.00    -0.116 N 
ATOM     32  O   UNL d   1      25.529  -8.175   1.752  0.00  0.00    -0.532 OA
ATOM     33  O   UNL d   1      26.249  -6.618   3.121  0.00  0.00    -0.532 OA
ENDBRANCH  29  31
ENDBRANCH   4  25
TORSDOF 6
ENDMDL
MODEL 4
REMARK VINA RESULT:    -6.935      4.947      7.464
REMARK INTER + INTRA:          -9.973
REMARK INTER:                  -8.724
REMARK INTRA:                  -1.248
REMARK CONF_INDEPENDENT:        1.790
REMARK UNBOUND:                -1.248
REMARK  6 active torsions:
REMARK  status: ('A' for Active; 'I' for Inactive)
REMARK    1  A    between atoms: C_3  and  C_4 
REMARK       I    between atoms: C_4  and  N_6 
REMARK    2  A    between atoms: N_6  and  N_7 
REMARK    3  A    between atoms: C_8  and  C_9 
REMARK    4  A    between atoms: C_12  and  O_13 
REMARK    5  A    between atoms: C_16  and  C_17 
REMARK    6  A    between atoms: C_21  and  N_22 
ROOT
ATOM      1  C   UNL d   1      31.326 -18.419  -0.652  0.00  0.00     0.069 C 
ATOM      2  C   UNL d   1      31.257 -16.919  -0.803  0.00  0.00     0.021 C 
ATOM      3  C   UNL d   1      30.171 -16.123  -1.007  0.00  0.00     0.060 C 
ATOM      4  C   UNL d   1      30.430 -14.622  -1.213  0.00  0.00     0.158 C 
ATOM      5  N   UNL d   1      31.802 -14.353  -1.619  0.00  0.00    -0.354 N 
ATOM      6  C   UNL d   1      32.843 -15.124  -1.238  0.00  0.00     0.172 C 
ATOM      7  S   UNL d   1      34.414 -14.631  -1.440  0.00  0.00    -0.041 SA
ATOM      8  N   UNL d   1      32.527 -16.354  -0.761  0.00  0.00    -0.337 N 
ATOM      9  H   UNL d   1      32.039 -13.465  -2.045  0.00  0.00     0.163 HD
ATOM     10  H   UNL d   1      33.322 -16.947  -0.535  0.00  0.00     0.168 HD
ENDROOT
BRANCH   3  11
ATOM     11  C   UNL d   1      28.752 -16.734  -1.025  0.00  0.00     0.272 C 
ATOM     12  O   UNL d   1      28.231 -17.086  -2.089  0.00  0.00    -0.266 OA
ATOM     13  N   UNL d   1      28.041 -16.900   0.153  0.00  0.00    -0.243 N 
ATOM     14  H   UNL d   1      28.411 -16.664   1.051  0.00  0.00     0.192 HD
BRANCH  13  15
ATOM     15  N   UNL d   1      26.758 -17.403   0.140  0.00  0.00    -0.183 NA
ATOM     16  C   UNL d   1      25.882 -16.799  -0.602  0.00  0.00     0.150 C 
BRANCH  16  17
ATOM     17  C   UNL d   1      24.476 -17.261  -0.658  0.00  0.00    -0.017 A 
ATOM     18  C   UNL d   1      23.455 -16.323  -0.841  0.00  0.00     0.015 A 
ATOM     19  C   UNL d   1      22.120 -16.738  -0.893  0.00  0.00     0.037 A 
ATOM     20  C   UNL d   1      21.817 -18.089  -0.751  0.00  0.00     0.065 A 
ATOM     21  C   UNL d   1      22.827 -19.028  -0.567  0.00  0.00     0.037 A 
ATOM     22  C   UNL d   1      24.166 -18.620  -0.536  0.00  0.00     0.015 A 
BRANCH  20  23
ATOM     23  O   UNL d   1      20.533 -18.547  -0.786  0.00  0.00    -0.361 OA
ATOM     24  H   UNL d   1      19.980 -17.922  -1.283  0.00  0.00     0.217 HD
ENDBRANCH  20  23
ENDBRANCH  16  17
ENDBRANCH  13  15
ENDBRANCH   3  11
BRANCH   4  25
ATOM     25  C   UNL d   1      29.545 -14.003  -2.277  0.00  0.00    -0.028 C 
ATOM     26  C   UNL d   1      28.722 -12.904  -1.980  0.00  0.00     0.010 C 
ATOM     27  C   UNL d   1      27.603 -12.663  -2.776  0.00  0.00     0.003 C 
ATOM     28  C   UNL d   1      27.389 -13.409  -3.941  0.00  0.00     0.036 C 
ATOM     29  C   UNL d   1      28.301 -14.408  -4.307  0.00  0.00     0.103 C 
ATOM     30  C   UNL d   1      29.383 -14.701  -3.484  0.00  0.00     0.045 C 
BRANCH  29  31
ATOM     31  N   UNL d   1      28.070 -15.226  -5.500  0.00  0.00    -0.116 N 
ATOM     32  O   UNL d   1      26.908 -15.572  -5.741  0.00  0.00    -0.532 OA
ATOM     33  O   UNL d   1      29.055 -15.520  -6.197  0.00  0.00    -0.532 OA
ENDBRANCH  29  31
ENDBRANCH   4  25
TORSDOF 6
ENDMDL
MODEL 5
REMARK VINA RESULT:    -6.823      5.462      8.185
REMARK INTER + INTRA:          -9.644
REMARK INTER:                  -8.613
REMARK INTRA:                  -1.031
REMARK CONF_INDEPENDENT:        1.790
REMARK UNBOUND:                -1.031
REMARK  6 active torsions:
REMARK  status: ('A' for Active; 'I' for Inactive)
REMARK    1  A    between atoms: C_3  and  C_4 
REMARK       I    between atoms: C_4  and  N_6 
REMARK    2  A    between atoms: N_6  and  N_7 
REMARK    3  A    between atoms: C_8  and  C_9 
REMARK    4  A    between atoms: C_12  and  O_13 
REMARK    5  A    between atoms: C_16  and  C_17 
REMARK    6  A    between atoms: C_21  and  N_22 
ROOT
ATOM      1  C   UNL d   1      28.700 -12.292  -3.904  0.00  0.00     0.069 C 
ATOM      2  C   UNL d   1      29.337 -13.196  -4.931  0.00  0.00     0.021 C 
ATOM      3  C   UNL d   1      28.958 -14.439  -5.338  0.00  0.00     0.060 C 
ATOM      4  C   UNL d   1      29.869 -15.157  -6.347  0.00  0.00     0.158 C 
ATOM      5  N   UNL d   1      31.216 -14.604  -6.358  0.00  0.00    -0.354 N 
ATOM      6  C   UNL d   1      31.478 -13.308  -6.084  0.00  0.00     0.172 C 
ATOM      7  S   UNL d   1      32.957 -12.630  -6.408  0.00  0.00    -0.041 SA
ATOM      8  N   UNL d   1      30.492 -12.624  -5.453  0.00  0.00    -0.337 N 
ATOM      9  H   UNL d   1      31.978 -15.137  -6.760  0.00  0.00     0.163 HD
ATOM     10  H   UNL d   1      30.725 -11.667  -5.198  0.00  0.00     0.168 HD
ENDROOT
BRANCH   3  11
ATOM     11  C   UNL d   1      27.661 -15.075  -4.788  0.00  0.00     0.272 C 
ATOM     12  O   UNL d   1      26.830 -15.575  -5.555  0.00  0.00    -0.266 OA
ATOM     13  N   UNL d   1      27.409 -15.096  -3.426  0.00  0.00    -0.243 N 
ATOM     14  H   UNL d   1      28.049 -14.735  -2.748  0.00  0.00     0.192 HD
BRANCH  13  15
ATOM     15  N   UNL d   1      26.234 -15.621  -2.931  0.00  0.00    -0.183 NA
ATOM     16  C   UNL d   1      26.290 -16.269  -1.809  0.00  0.00     0.150 C 
BRANCH  16  17
ATOM     17  C   UNL d   1      25.079 -16.884  -1.218  0.00  0.00    -0.017 A 
ATOM     18  C   UNL d   1      25.190 -18.106  -0.547  0.00  0.00     0.015 A 
ATOM     19  C   UNL d   1      24.058 -18.705   0.015  0.00  0.00     0.037 A 
ATOM     20  C   UNL d   1      22.820 -18.079  -0.108  0.00  0.00     0.065 A 
ATOM     21  C   UNL d   1      22.701 -16.864  -0.776  0.00  0.00     0.037 A 
ATOM     22  C   UNL d   1      23.835 -16.251  -1.321  0.00  0.00     0.015 A 
BRANCH  20  23
ATOM     23  O   UNL d   1      21.683 -18.623   0.414  0.00  0.00    -0.361 OA
ATOM     24  H   UNL d   1      21.898 -19.095   1.235  0.00  0.00     0.217 HD
ENDBRANCH  20  23
ENDBRANCH  16  17
ENDBRANCH  13  15
ENDBRANCH   3  11
BRANCH   4  25
ATOM     25  C   UNL d   1      30.022 -16.638  -6.068  0.00  0.00    -0.028 C 
ATOM     26  C   UNL d   1      30.026 -17.127  -4.751  0.00  0.00     0.010 C 
ATOM     27  C   UNL d   1      30.632 -18.355  -4.488  0.00  0.00     0.003 C 
ATOM     28  C   UNL d   1      31.091 -19.158  -5.539  0.00  0.00     0.036 C 
ATOM     29  C   UNL d   1      30.947 -18.723  -6.863  0.00  0.00     0.103 C 
ATOM     30  C   UNL d   1      30.406 -17.470  -7.132  0.00  0.00     0.045 C 
BRANCH  29  31
ATOM     31  N   UNL d   1      31.460 -19.531  -7.972  0.00  0.00    -0.116 N 
ATOM     32  O   UNL d   1      31.387 -19.054  -9.110  0.00  0.00    -0.532 OA
ATOM     33  O   UNL d   1      31.939 -20.644  -7.701  0.00  0.00    -0.532 OA
ENDBRANCH  29  31
ENDBRANCH   4  25
TORSDOF 6
ENDMDL
MODEL 6
REMARK VINA RESULT:    -6.756      4.419      7.019
REMARK INTER + INTRA:         -10.142
REMARK INTER:                  -8.545
REMARK INTRA:                  -1.597
REMARK CONF_INDEPENDENT:        1.790
REMARK UNBOUND:                -1.597
REMARK  6 active torsions:
REMARK  status: ('A' for Active; 'I' for Inactive)
REMARK    1  A    between atoms: C_3  and  C_4 
REMARK       I    between atoms: C_4  and  N_6 
REMARK    2  A    between atoms: N_6  and  N_7 
REMARK    3  A    between atoms: C_8  and  C_9 
REMARK    4  A    between atoms: C_12  and  O_13 
REMARK    5  A    between atoms: C_16  and  C_17 
REMARK    6  A    between atoms: C_21  and  N_22 
ROOT
ATOM      1  C   UNL d   1      31.240 -14.989  -0.692  0.00  0.00     0.069 C 
ATOM      2  C   UNL d   1      30.646 -13.728  -1.271  0.00  0.00     0.021 C 
ATOM      3  C   UNL d   1      29.340 -13.417  -1.498  0.00  0.00     0.060 C 
ATOM      4  C   UNL d   1      29.047 -12.076  -2.192  0.00  0.00     0.158 C 
ATOM      5  N   UNL d   1      30.207 -11.566  -2.909  0.00  0.00    -0.354 N 
ATOM      6  C   UNL d   1      31.476 -11.807  -2.515  0.00  0.00     0.172 C 
ATOM      7  S   UNL d   1      32.760 -10.968  -3.146  0.00  0.00    -0.041 SA
ATOM      8  N   UNL d   1      31.641 -12.830  -1.640  0.00  0.00    -0.337 N 
ATOM      9  H   UNL d   1      30.090 -10.853  -3.619  0.00  0.00     0.163 HD
ATOM     10  H   UNL d   1      32.607 -13.041  -1.399  0.00  0.00     0.168 HD
ENDROOT
BRANCH   3  11
ATOM     11  C   UNL d   1      28.222 -14.392  -1.066  0.00  0.00     0.272 C 
ATOM     12  O   UNL d   1      27.669 -14.271   0.033  0.00  0.00    -0.266 OA
ATOM     13  N   UNL d   1      27.819 -15.418  -1.905  0.00  0.00    -0.243 N 
ATOM     14  H   UNL d   1      28.202 -15.559  -2.818  0.00  0.00     0.192 HD
BRANCH  13  15
ATOM     15  N   UNL d   1      26.854 -16.319  -1.509  0.00  0.00    -0.183 NA
ATOM     16  C   UNL d   1      25.635 -15.887  -1.401  0.00  0.00     0.150 C 
BRANCH  16  17
ATOM     17  C   UNL d   1      24.541 -16.783  -0.959  0.00  0.00    -0.017 A 
ATOM     18  C   UNL d   1      24.843 -18.092  -0.570  0.00  0.00     0.015 A 
ATOM     19  C   UNL d   1      23.824 -18.955  -0.154  0.00  0.00     0.037 A 
ATOM     20  C   UNL d   1      22.508 -18.502  -0.138  0.00  0.00     0.065 A 
ATOM     21  C   UNL d   1      22.199 -17.201  -0.525  0.00  0.00     0.037 A 
ATOM     22  C   UNL d   1      23.218 -16.328  -0.922  0.00  0.00     0.015 A 
BRANCH  20  23
ATOM     23  O   UNL d   1      21.475 -19.303   0.252  0.00  0.00    -0.361 OA
ATOM     24  H   UNL d   1      21.777 -19.899   0.957  0.00  0.00     0.217 HD
ENDBRANCH  20  23
ENDBRANCH  16  17
ENDBRANCH  13  15
ENDBRANCH   3  11
BRANCH   4  25
ATOM     25  C   UNL d   1      27.926 -12.159  -3.207  0.00  0.00    -0.028 C 
ATOM     26  C   UNL d   1      26.872 -11.230  -3.194  0.00  0.00     0.010 C 
ATOM     27  C   UNL d   1      25.654 -11.582  -3.775  0.00  0.00     0.003 C 
ATOM     28  C   UNL d   1      25.531 -12.777  -4.494  0.00  0.00     0.036 C 
ATOM     29  C   UNL d   1      26.636 -13.628  -4.625  0.00  0.00     0.103 C 
ATOM     30  C   UNL d   1      27.835 -13.320  -3.992  0.00  0.00     0.045 C 
BRANCH  29  31
ATOM     31  N   UNL d   1      26.514 -14.903  -5.338  0.00  0.00    -0.116 N 
ATOM     32  O   UNL d   1      25.524 -15.602  -5.094  0.00  0.00    -0.532 OA
ATOM     33  O   UNL d   1      27.410 -15.201  -6.144  0.00  0.00    -0.532 OA
ENDBRANCH  29  31
ENDBRANCH   4  25
TORSDOF 6
ENDMDL
MODEL 7
REMARK VINA RESULT:    -6.744      3.795      4.679
REMARK INTER + INTRA:          -9.670
REMARK INTER:                  -8.534
REMARK INTRA:                  -1.136
REMARK CONF_INDEPENDENT:        1.790
REMARK UNBOUND:                -1.136
REMARK  6 active torsions:
REMARK  status: ('A' for Active; 'I' for Inactive)
REMARK    1  A    between atoms: C_3  and  C_4 
REMARK       I    between atoms: C_4  and  N_6 
REMARK    2  A    between atoms: N_6  and  N_7 
REMARK    3  A    between atoms: C_8  and  C_9 
REMARK    4  A    between atoms: C_12  and  O_13 
REMARK    5  A    between atoms: C_16  and  C_17 
REMARK    6  A    between atoms: C_21  and  N_22 
ROOT
ATOM      1  C   UNL d   1      32.177 -16.528   1.380  0.00  0.00     0.069 C 
ATOM      2  C   UNL d   1      31.421 -16.625   0.079  0.00  0.00     0.021 C 
ATOM      3  C   UNL d   1      30.424 -15.830  -0.400  0.00  0.00     0.060 C 
ATOM      4  C   UNL d   1      29.778 -16.239  -1.734  0.00  0.00     0.158 C 
ATOM      5  N   UNL d   1      30.003 -17.644  -2.044  0.00  0.00    -0.354 N 
ATOM      6  C   UNL d   1      31.107 -18.313  -1.647  0.00  0.00     0.172 C 
ATOM      7  S   UNL d   1      31.494 -19.801  -2.269  0.00  0.00    -0.041 SA
ATOM      8  N   UNL d   1      31.826 -17.735  -0.654  0.00  0.00    -0.337 N 
ATOM      9  H   UNL d   1      29.423 -18.109  -2.731  0.00  0.00     0.163 HD
ATOM     10  H   UNL d   1      32.620 -18.279  -0.323  0.00  0.00     0.168 HD
ENDROOT
BRANCH   3  11
ATOM     11  C   UNL d   1      29.983 -14.576   0.389  0.00  0.00     0.272 C 
ATOM     12  O   UNL d   1      30.077 -13.450  -0.113  0.00  0.00    -0.266 OA
ATOM     13  N   UNL d   1      29.474 -14.695   1.672  0.00  0.00    -0.243 N 
ATOM     14  H   UNL d   1      29.344 -15.574   2.128  0.00  0.00     0.192 HD
BRANCH  13  15
ATOM     15  N   UNL d   1      29.120 -13.578   2.399  0.00  0.00    -0.183 NA
ATOM     16  C   UNL d   1      28.245 -12.774   1.880  0.00  0.00     0.150 C 
BRANCH  16  17
ATOM     17  C   UNL d   1      27.825 -11.540   2.583  0.00  0.00    -0.017 A 
ATOM     18  C   UNL d   1      26.867 -10.709   1.995  0.00  0.00     0.015 A 
ATOM     19  C   UNL d   1      26.460  -9.537   2.641  0.00  0.00     0.037 A 
ATOM     20  C   UNL d   1      27.022  -9.202   3.869  0.00  0.00     0.065 A 
ATOM     21  C   UNL d   1      27.978 -10.023   4.461  0.00  0.00     0.037 A 
ATOM     22  C   UNL d   1      28.372 -11.207   3.828  0.00  0.00     0.015 A 
BRANCH  20  23
ATOM     23  O   UNL d   1      26.667  -8.068   4.539  0.00  0.00    -0.361 OA
ATOM     24  H   UNL d   1      26.892  -8.164   5.479  0.00  0.00     0.217 HD
ENDBRANCH  20  23
ENDBRANCH  16  17
ENDBRANCH  13  15
ENDBRANCH   3  11
BRANCH   4  25
ATOM     25  C   UNL d   1      28.277 -16.035  -1.759  0.00  0.00    -0.028 C 
ATOM     26  C   UNL d   1      27.457 -16.593  -0.765  0.00  0.00     0.010 C 
ATOM     27  C   UNL d   1      26.109 -16.815  -1.046  0.00  0.00     0.003 C 
ATOM     28  C   UNL d   1      25.548 -16.348  -2.241  0.00  0.00     0.036 C 
ATOM     29  C   UNL d   1      26.347 -15.660  -3.163  0.00  0.00     0.103 C 
ATOM     30  C   UNL d   1      27.707 -15.494  -2.923  0.00  0.00     0.045 C 
BRANCH  29  31
ATOM     31  N   UNL d   1      25.787 -15.203  -4.438  0.00  0.00    -0.116 N 
ATOM     32  O   UNL d   1      26.349 -15.572  -5.476  0.00  0.00    -0.532 OA
ATOM     33  O   UNL d   1      24.782 -14.475  -4.398  0.00  0.00    -0.532 OA
ENDBRANCH  29  31
ENDBRANCH   4  25
TORSDOF 6
ENDMDL
MODEL 8
REMARK VINA RESULT:    -6.249      4.852      8.608
REMARK INTER + INTRA:          -9.874
REMARK INTER:                  -8.039
REMARK INTRA:                  -1.835
REMARK CONF_INDEPENDENT:        1.790
REMARK UNBOUND:                -1.835
REMARK  6 active torsions:
REMARK  status: ('A' for Active; 'I' for Inactive)
REMARK    1  A    between atoms: C_3  and  C_4 
REMARK       I    between atoms: C_4  and  N_6 
REMARK    2  A    between atoms: N_6  and  N_7 
REMARK    3  A    between atoms: C_8  and  C_9 
REMARK    4  A    between atoms: C_12  and  O_13 
REMARK    5  A    between atoms: C_16  and  C_17 
REMARK    6  A    between atoms: C_21  and  N_22 
ROOT
ATOM      1  C   UNL d   1      31.267 -14.670  -0.240  0.00  0.00     0.069 C 
ATOM      2  C   UNL d   1      29.900 -14.987   0.314  0.00  0.00     0.021 C 
ATOM      3  C   UNL d   1      28.982 -15.893  -0.124  0.00  0.00     0.060 C 
ATOM      4  C   UNL d   1      27.626 -15.924   0.599  0.00  0.00     0.158 C 
ATOM      5  N   UNL d   1      27.361 -14.688   1.321  0.00  0.00    -0.354 N 
ATOM      6  C   UNL d   1      28.341 -13.927   1.854  0.00  0.00     0.172 C 
ATOM      7  S   UNL d   1      28.012 -12.710   2.931  0.00  0.00    -0.041 SA
ATOM      8  N   UNL d   1      29.593 -14.164   1.391  0.00  0.00    -0.337 N 
ATOM      9  H   UNL d   1      26.416 -14.462   1.608  0.00  0.00     0.163 HD
ATOM     10  H   UNL d   1      30.313 -13.543   1.756  0.00  0.00     0.168 HD
ENDROOT
BRANCH   3  11
ATOM     11  C   UNL d   1      29.321 -16.835  -1.301  0.00  0.00     0.272 C 
ATOM     12  O   UNL d   1      29.926 -17.896  -1.106  0.00  0.00    -0.266 OA
ATOM     13  N   UNL d   1      28.949 -16.508  -2.595  0.00  0.00    -0.243 N 
ATOM     14  H   UNL d   1      28.434 -15.682  -2.822  0.00  0.00     0.192 HD
BRANCH  13  15
ATOM     15  N   UNL d   1      29.286 -17.321  -3.656  0.00  0.00    -0.183 NA
ATOM     16  C   UNL d   1      30.087 -16.838  -4.554  0.00  0.00     0.150 C 
BRANCH  16  17
ATOM     17  C   UNL d   1      30.483 -17.636  -5.737  0.00  0.00    -0.017 A 
ATOM     18  C   UNL d   1      30.405 -19.031  -5.678  0.00  0.00     0.015 A 
ATOM     19  C   UNL d   1      30.778 -19.804  -6.783  0.00  0.00     0.037 A 
ATOM     20  C   UNL d   1      31.235 -19.173  -7.936  0.00  0.00     0.065 A 
ATOM     21  C   UNL d   1      31.317 -17.785  -8.003  0.00  0.00     0.037 A 
ATOM     22  C   UNL d   1      30.925 -17.008  -6.906  0.00  0.00     0.015 A 
BRANCH  20  23
ATOM     23  O   UNL d   1      31.618 -19.878  -9.039  0.00  0.00    -0.361 OA
ATOM     24  H   UNL d   1      32.578 -19.790  -9.162  0.00  0.00     0.217 HD
ENDBRANCH  20  23
ENDBRANCH  16  17
ENDBRANCH  13  15
ENDBRANCH   3  11
BRANCH   4  25
ATOM     25  C   UNL d   1      26.452 -16.126  -0.338  0.00  0.00    -0.028 C 
ATOM     26  C   UNL d   1      25.466 -17.088  -0.062  0.00  0.00     0.010 C 
ATOM     27  C   UNL d   1      24.700 -17.591  -1.113  0.00  0.00     0.003 C 
ATOM     28  C   UNL d   1      24.805 -17.037  -2.395  0.00  0.00     0.036 C 
ATOM     29  C   UNL d   1      25.689 -15.975  -2.625  0.00  0.00     0.103 C 
ATOM     30  C   UNL d   1      26.506 -15.511  -1.600  0.00  0.00     0.045 C 
BRANCH  29  31
ATOM     31  N   UNL d   1      25.842 -15.411  -3.969  0.00  0.00    -0.116 N 
ATOM     32  O   UNL d   1      26.927 -15.575  -4.538  0.00  0.00    -0.532 OA
ATOM     33  O   UNL d   1      24.872 -14.807  -4.454  0.00  0.00    -0.532 OA
ENDBRANCH  29  31
ENDBRANCH   4  25
TORSDOF 6
ENDMDL
