MODEL 1
REMARK VINA RESULT:   -11.098      0.000      0.000
REMARK INTER + INTRA:         -16.890
REMARK INTER:                 -15.275
REMARK INTRA:                  -1.615
REMARK CONF_INDEPENDENT:        4.176
REMARK UNBOUND:                -1.615
REMARK  14 active torsions:
REMARK  status: ('A' for Active; 'I' for Inactive)
REMARK    1  A    between atoms: C_2  and  N_3 
REMARK    2  A    between atoms: N_3  and  C_4 
REMARK    3  A    between atoms: N_3  and  C_6 
REMARK    4  A    between atoms: C_6  and  C_7 
REMARK    5  A    between atoms: C_7  and  N_8 
REMARK       I    between atoms: N_8  and  C_9 
REMARK    6  A    between atoms: C_9  and  C_11 
REMARK    7  A    between atoms: C_14  and  N_15 
REMARK    8  A    between atoms: N_15  and  C_16 
REMARK    9  A    between atoms: C_16  and  N_18 
REMARK       I    between atoms: N_18  and  C_19 
REMARK   10  A    between atoms: C_19  and  C_21 
REMARK   11  A    between atoms: C_24  and  O_25 
REMARK   12  A    between atoms: O_25  and  C_26 
REMARK   13  A    between atoms: C_26  and  C_27 
REMARK   14  A    between atoms: C_27  and  C_28 
ROOT
ATOM      1  C   UNL d   1      28.976 -14.556   1.478  0.00  0.00     0.179 C 
ATOM      2  S   UNL d   1      30.619 -14.677   1.089  0.00  0.00    -0.040 SA
ENDROOT
BRANCH   1   3
ATOM      3  N   UNL d   1      28.368 -13.482   2.209  0.00  0.00    -0.333 N 
ATOM      4  H   UNL d   1      27.988 -12.691   1.695  0.00  0.00     0.168 HD
BRANCH   3   5
ATOM      5  C   UNL d   1      28.338 -13.323   3.667  0.00  0.00     0.034 A 
ATOM      6  C   UNL d   1      27.979 -12.129   4.315  0.00  0.00     0.030 A 
ATOM      7  C   UNL d   1      28.088 -12.008   5.739  0.00  0.00     0.019 A 
ATOM      8  C   UNL d   1      28.519 -13.084   6.528  0.00  0.00     0.032 A 
ATOM      9  C   UNL d   1      28.822 -14.266   5.910  0.00  0.00     0.019 A 
ATOM     10  C   UNL d   1      28.681 -14.360   4.537  0.00  0.00     0.030 A 
BRANCH   8  11
ATOM     11  C   UNL d   1      28.496 -13.091   8.011  0.00  0.00     0.251 C 
ATOM     12  N   UNL d   1      28.532 -14.347   8.616  0.00  0.00    -0.355 N 
ATOM     13  H   UNL d   1      28.696 -15.168   8.042  0.00  0.00     0.162 HD
ATOM     14  O   UNL d   1      28.410 -12.056   8.641  0.00  0.00    -0.268 OA
BRANCH  12  15
ATOM     15  C   UNL d   1      28.519 -14.423  10.059  0.00  0.00     0.150 C 
BRANCH  15  16
ATOM     16  C   UNL d   1      29.914 -14.431  10.699  0.00  0.00     0.254 C 
BRANCH  16  17
ATOM     17  N   UNL d   1      30.822 -15.559  10.161  0.00  0.00    -0.070 N 
ATOM     18  H   UNL d   1      30.305 -16.017   9.396  0.00  0.00     0.279 HD
BRANCH  17  19
ATOM     19  C   UNL d   1      32.073 -14.918   9.565  0.00  0.00     0.230 C 
ATOM     20  C   UNL d   1      31.781 -13.839   8.540  0.00  0.00     0.034 C 
ENDBRANCH  17  19
BRANCH  17  21
ATOM     21  C   UNL d   1      31.084 -16.584  11.256  0.00  0.00     0.230 C 
ATOM     22  C   UNL d   1      32.310 -16.309  12.095  0.00  0.00     0.034 C 
ENDBRANCH  17  21
ENDBRANCH  16  17
ENDBRANCH  15  16
ENDBRANCH  12  15
ENDBRANCH   8  11
ENDBRANCH   3   5
ENDBRANCH   1   3
BRANCH   1  23
ATOM     23  N   UNL d   1      28.104 -15.580   1.037  0.00  0.00    -0.299 N 
ATOM     24  C   UNL d   1      27.053 -15.348   0.112  0.00  0.00     0.257 C 
ATOM     25  O   UNL d   1      26.770 -14.282  -0.434  0.00  0.00    -0.267 OA
ATOM     26  H   UNL d   1      28.222 -16.524   1.376  0.00  0.00     0.171 HD
BRANCH  24  27
ATOM     27  C   UNL d   1      26.126 -16.400  -0.303  0.00  0.00     0.032 A 
ATOM     28  C   UNL d   1      24.950 -15.991  -0.968  0.00  0.00     0.020 A 
ATOM     29  C   UNL d   1      23.886 -16.872  -1.133  0.00  0.00     0.038 A 
ATOM     30  C   UNL d   1      24.012 -18.185  -0.694  0.00  0.00     0.068 A 
ATOM     31  C   UNL d   1      25.173 -18.575  -0.003  0.00  0.00     0.038 A 
ATOM     32  C   UNL d   1      26.227 -17.683   0.208  0.00  0.00     0.020 A 
BRANCH  30  33
ATOM     33  O   UNL d   1      22.944 -18.996  -0.994  0.00  0.00    -0.351 OA
BRANCH  33  34
ATOM     34  C   UNL d   1      21.685 -18.329  -0.989  0.00  0.00     0.180 C 
BRANCH  34  35
ATOM     35  C   UNL d   1      20.524 -19.287  -1.278  0.00  0.00     0.065 C 
BRANCH  35  36
ATOM     36  C   UNL d   1      19.849 -19.745   0.001  0.00  0.00    -0.056 A 
ATOM     37  C   UNL d   1      20.429 -19.475   1.246  0.00  0.00     0.007 A 
ATOM     38  C   UNL d   1      19.894 -20.039   2.408  0.00  0.00     0.001 A 
ATOM     39  C   UNL d   1      18.725 -20.798   2.351  0.00  0.00     0.000 A 
ATOM     40  C   UNL d   1      18.101 -21.015   1.131  0.00  0.00     0.001 A 
ATOM     41  C   UNL d   1      18.654 -20.483  -0.030  0.00  0.00     0.007 A 
ENDBRANCH  35  36
ENDBRANCH  34  35
ENDBRANCH  33  34
ENDBRANCH  30  33
ENDBRANCH  24  27
ENDBRANCH   1  23
TORSDOF 14
ENDMDL
MODEL 2
REMARK VINA RESULT:   -10.628      1.328      1.941
REMARK INTER + INTRA:         -16.448
REMARK INTER:                 -14.804
REMARK INTRA:                  -1.644
REMARK CONF_INDEPENDENT:        4.176
REMARK UNBOUND:                -1.644
REMARK  14 active torsions:
REMARK  status: ('A' for Active; 'I' for Inactive)
REMARK    1  A    between atoms: C_2  and  N_3 
REMARK    2  A    between atoms: N_3  and  C_4 
REMARK    3  A    between atoms: N_3  and  C_6 
REMARK    4  A    between atoms: C_6  and  C_7 
REMARK    5  A    between atoms: C_7  and  N_8 
REMARK       I    between atoms: N_8  and  C_9 
REMARK    6  A    between atoms: C_9  and  C_11 
REMARK    7  A    between atoms: C_14  and  N_15 
REMARK    8  A    between atoms: N_15  and  C_16 
REMARK    9  A    between atoms: C_16  and  N_18 
REMARK       I    between atoms: N_18  and  C_19 
REMARK   10  A    between atoms: C_19  and  C_21 
REMARK   11  A    between atoms: C_24  and  O_25 
REMARK   12  A    between atoms: O_25  and  C_26 
REMARK   13  A    between atoms: C_26  and  C_27 
REMARK   14  A    between atoms: C_27  and  C_28 
ROOT
ATOM      1  C   UNL d   1      28.909 -14.487   1.581  0.00  0.00     0.179 C 
ATOM      2  S   UNL d   1      30.440 -14.134   0.950  0.00  0.00    -0.040 SA
ENDROOT
BRANCH   1   3
ATOM      3  N   UNL d   1      28.281 -13.806   2.677  0.00  0.00    -0.333 N 
ATOM      4  H   UNL d   1      27.541 -13.138   2.481  0.00  0.00     0.168 HD
BRANCH   3   5
ATOM      5  C   UNL d   1      28.679 -13.868   4.088  0.00  0.00     0.034 A 
ATOM      6  C   UNL d   1      28.192 -14.825   4.994  0.00  0.00     0.030 A 
ATOM      7  C   UNL d   1      28.529 -14.752   6.386  0.00  0.00     0.019 A 
ATOM      8  C   UNL d   1      29.383 -13.752   6.875  0.00  0.00     0.032 A 
ATOM      9  C   UNL d   1      29.902 -12.847   5.989  0.00  0.00     0.019 A 
ATOM     10  C   UNL d   1      29.578 -12.960   4.649  0.00  0.00     0.030 A 
BRANCH   8  11
ATOM     11  C   UNL d   1      29.910 -13.712   8.260  0.00  0.00     0.251 C 
ATOM     12  N   UNL d   1      30.649 -14.825   8.663  0.00  0.00    -0.355 N 
ATOM     13  H   UNL d   1      30.895 -15.532   7.977  0.00  0.00     0.162 HD
ATOM     14  O   UNL d   1      29.668 -12.777   8.996  0.00  0.00    -0.268 OA
BRANCH  12  15
ATOM     15  C   UNL d   1      31.196 -14.846  10.001  0.00  0.00     0.150 C 
BRANCH  15  16
ATOM     16  C   UNL d   1      32.658 -15.308  10.072  0.00  0.00     0.254 C 
BRANCH  16  17
ATOM     17  N   UNL d   1      33.656 -14.251   9.551  0.00  0.00    -0.070 N 
ATOM     18  H   UNL d   1      33.804 -14.449   8.551  0.00  0.00     0.279 HD
BRANCH  17  19
ATOM     19  C   UNL d   1      32.996 -12.878   9.666  0.00  0.00     0.230 C 
ATOM     20  C   UNL d   1      32.963 -12.103   8.364  0.00  0.00     0.034 C 
ENDBRANCH  17  19
BRANCH  17  21
ATOM     21  C   UNL d   1      34.986 -14.386  10.278  0.00  0.00     0.230 C 
ATOM     22  C   UNL d   1      35.918 -15.424   9.696  0.00  0.00     0.034 C 
ENDBRANCH  17  21
ENDBRANCH  16  17
ENDBRANCH  15  16
ENDBRANCH  12  15
ENDBRANCH   8  11
ENDBRANCH   3   5
ENDBRANCH   1   3
BRANCH   1  23
ATOM     23  N   UNL d   1      28.156 -15.522   0.979  0.00  0.00    -0.299 N 
ATOM     24  C   UNL d   1      26.936 -15.286   0.294  0.00  0.00     0.257 C 
ATOM     25  O   UNL d   1      26.388 -14.199   0.111  0.00  0.00    -0.267 OA
ATOM     26  H   UNL d   1      28.486 -16.476   1.019  0.00  0.00     0.171 HD
BRANCH  24  27
ATOM     27  C   UNL d   1      26.138 -16.367  -0.285  0.00  0.00     0.032 A 
ATOM     28  C   UNL d   1      25.131 -15.998  -1.203  0.00  0.00     0.020 A 
ATOM     29  C   UNL d   1      24.143 -16.905  -1.572  0.00  0.00     0.038 A 
ATOM     30  C   UNL d   1      24.189 -18.204  -1.080  0.00  0.00     0.068 A 
ATOM     31  C   UNL d   1      25.175 -18.554  -0.141  0.00  0.00     0.038 A 
ATOM     32  C   UNL d   1      26.144 -17.635   0.271  0.00  0.00     0.020 A 
BRANCH  30  33
ATOM     33  O   UNL d   1      23.225 -19.044  -1.584  0.00  0.00    -0.351 OA
BRANCH  33  34
ATOM     34  C   UNL d   1      21.895 -18.695  -1.211  0.00  0.00     0.180 C 
BRANCH  34  35
ATOM     35  C   UNL d   1      21.707 -18.684   0.310  0.00  0.00     0.065 C 
BRANCH  35  36
ATOM     36  C   UNL d   1      20.527 -19.540   0.731  0.00  0.00    -0.056 A 
ATOM     37  C   UNL d   1      19.665 -20.083  -0.230  0.00  0.00     0.007 A 
ATOM     38  C   UNL d   1      18.490 -20.730   0.166  0.00  0.00     0.001 A 
ATOM     39  C   UNL d   1      18.211 -20.922   1.519  0.00  0.00     0.000 A 
ATOM     40  C   UNL d   1      19.093 -20.449   2.481  0.00  0.00     0.001 A 
ATOM     41  C   UNL d   1      20.245 -19.775   2.087  0.00  0.00     0.007 A 
ENDBRANCH  35  36
ENDBRANCH  34  35
ENDBRANCH  33  34
ENDBRANCH  30  33
ENDBRANCH  24  27
ENDBRANCH   1  23
TORSDOF 14
ENDMDL
MODEL 3
REMARK VINA RESULT:   -10.177      1.863      2.370
REMARK INTER + INTRA:         -16.530
REMARK INTER:                 -14.353
REMARK INTRA:                  -2.177
REMARK CONF_INDEPENDENT:        4.176
REMARK UNBOUND:                -2.177
REMARK  14 active torsions:
REMARK  status: ('A' for Active; 'I' for Inactive)
REMARK    1  A    between atoms: C_2  and  N_3 
REMARK    2  A    between atoms: N_3  and  C_4 
REMARK    3  A    between atoms: N_3  and  C_6 
REMARK    4  A    between atoms: C_6  and  C_7 
REMARK    5  A    between atoms: C_7  and  N_8 
REMARK       I    between atoms: N_8  and  C_9 
REMARK    6  A    between atoms: C_9  and  C_11 
REMARK    7  A    between atoms: C_14  and  N_15 
REMARK    8  A    between atoms: N_15  and  C_16 
REMARK    9  A    between atoms: C_16  and  N_18 
REMARK       I    between atoms: N_18  and  C_19 
REMARK   10  A    between atoms: C_19  and  C_21 
REMARK   11  A    between atoms: C_24  and  O_25 
REMARK   12  A    between atoms: O_25  and  C_26 
REMARK   13  A    between atoms: C_26  and  C_27 
REMARK   14  A    between atoms: C_27  and  C_28 
ROOT
ATOM      1  C   UNL d   1      28.333 -13.889   2.007  0.00  0.00     0.179 C 
ATOM      2  S   UNL d   1      28.641 -12.373   1.320  0.00  0.00    -0.040 SA
ENDROOT
BRANCH   1   3
ATOM      3  N   UNL d   1      29.015 -14.446   3.139  0.00  0.00    -0.333 N 
ATOM      4  H   UNL d   1      29.557 -15.297   3.016  0.00  0.00     0.168 HD
BRANCH   3   5
ATOM      5  C   UNL d   1      28.919 -13.989   4.530  0.00  0.00     0.034 A 
ATOM      6  C   UNL d   1      29.643 -14.559   5.590  0.00  0.00     0.030 A 
ATOM      7  C   UNL d   1      29.410 -14.142   6.942  0.00  0.00     0.019 A 
ATOM      8  C   UNL d   1      28.486 -13.130   7.241  0.00  0.00     0.032 A 
ATOM      9  C   UNL d   1      27.814 -12.534   6.208  0.00  0.00     0.019 A 
ATOM     10  C   UNL d   1      28.080 -12.940   4.913  0.00  0.00     0.030 A 
BRANCH   8  11
ATOM     11  C   UNL d   1      28.314 -12.530   8.586  0.00  0.00     0.251 C 
ATOM     12  N   UNL d   1      28.239 -13.430   9.650  0.00  0.00    -0.355 N 
ATOM     13  H   UNL d   1      28.426 -14.413   9.481  0.00  0.00     0.162 HD
ATOM     14  O   UNL d   1      28.206 -11.329   8.727  0.00  0.00    -0.268 OA
BRANCH  12  15
ATOM     15  C   UNL d   1      28.077 -12.910  10.988  0.00  0.00     0.150 C 
BRANCH  15  16
ATOM     16  C   UNL d   1      29.388 -12.458  11.647  0.00  0.00     0.254 C 
BRANCH  16  17
ATOM     17  N   UNL d   1      30.024 -11.232  10.956  0.00  0.00    -0.070 N 
ATOM     18  H   UNL d   1      29.263 -10.736  10.471  0.00  0.00     0.279 HD
BRANCH  17  19
ATOM     19  C   UNL d   1      30.574 -10.307  12.040  0.00  0.00     0.230 C 
ATOM     20  C   UNL d   1      30.470  -8.834  11.699  0.00  0.00     0.034 C 
ENDBRANCH  17  19
BRANCH  17  21
ATOM     21  C   UNL d   1      31.045 -11.689   9.922  0.00  0.00     0.230 C 
ATOM     22  C   UNL d   1      32.411 -11.060  10.067  0.00  0.00     0.034 C 
ENDBRANCH  17  21
ENDBRANCH  16  17
ENDBRANCH  15  16
ENDBRANCH  12  15
ENDBRANCH   8  11
ENDBRANCH   3   5
ENDBRANCH   1   3
BRANCH   1  23
ATOM     23  N   UNL d   1      27.305 -14.685   1.446  0.00  0.00    -0.299 N 
ATOM     24  C   UNL d   1      27.537 -15.603   0.389  0.00  0.00     0.257 C 
ATOM     25  O   UNL d   1      28.612 -15.850  -0.156  0.00  0.00    -0.267 OA
ATOM     26  H   UNL d   1      26.363 -14.618   1.802  0.00  0.00     0.171 HD
BRANCH  24  27
ATOM     27  C   UNL d   1      26.461 -16.387  -0.219  0.00  0.00     0.032 A 
ATOM     28  C   UNL d   1      25.655 -15.734  -1.176  0.00  0.00     0.020 A 
ATOM     29  C   UNL d   1      24.446 -16.290  -1.582  0.00  0.00     0.038 A 
ATOM     30  C   UNL d   1      24.064 -17.530  -1.087  0.00  0.00     0.068 A 
ATOM     31  C   UNL d   1      24.856 -18.159  -0.109  0.00  0.00     0.038 A 
ATOM     32  C   UNL d   1      26.048 -17.585   0.339  0.00  0.00     0.020 A 
BRANCH  30  33
ATOM     33  O   UNL d   1      22.904 -18.033  -1.626  0.00  0.00    -0.351 OA
BRANCH  33  34
ATOM     34  C   UNL d   1      22.218 -18.951  -0.780  0.00  0.00     0.180 C 
BRANCH  34  35
ATOM     35  C   UNL d   1      20.744 -19.105  -1.173  0.00  0.00     0.065 C 
BRANCH  35  36
ATOM     36  C   UNL d   1      19.912 -19.632  -0.019  0.00  0.00    -0.056 A 
ATOM     37  C   UNL d   1      20.337 -19.449   1.304  0.00  0.00     0.007 A 
ATOM     38  C   UNL d   1      19.658 -20.078   2.352  0.00  0.00     0.001 A 
ATOM     39  C   UNL d   1      18.500 -20.814   2.103  0.00  0.00     0.000 A 
ATOM     40  C   UNL d   1      18.030 -20.945   0.804  0.00  0.00     0.001 A 
ATOM     41  C   UNL d   1      18.725 -20.349  -0.244  0.00  0.00     0.007 A 
ENDBRANCH  35  36
ENDBRANCH  34  35
ENDBRANCH  33  34
ENDBRANCH  30  33
ENDBRANCH  24  27
ENDBRANCH   1  23
TORSDOF 14
ENDMDL
MODEL 4
REMARK VINA RESULT:    -9.710      2.364      3.663
REMARK INTER + INTRA:         -15.724
REMARK INTER:                 -13.886
REMARK INTRA:                  -1.838
REMARK CONF_INDEPENDENT:        4.176
REMARK UNBOUND:                -1.838
REMARK  14 active torsions:
REMARK  status: ('A' for Active; 'I' for Inactive)
REMARK    1  A    between atoms: C_2  and  N_3 
REMARK    2  A    between atoms: N_3  and  C_4 
REMARK    3  A    between atoms: N_3  and  C_6 
REMARK    4  A    between atoms: C_6  and  C_7 
REMARK    5  A    between atoms: C_7  and  N_8 
REMARK       I    between atoms: N_8  and  C_9 
REMARK    6  A    between atoms: C_9  and  C_11 
REMARK    7  A    between atoms: C_14  and  N_15 
REMARK    8  A    between atoms: N_15  and  C_16 
REMARK    9  A    between atoms: C_16  and  N_18 
REMARK       I    between atoms: N_18  and  C_19 
REMARK   10  A    between atoms: C_19  and  C_21 
REMARK   11  A    between atoms: C_24  and  O_25 
REMARK   12  A    between atoms: O_25  and  C_26 
REMARK   13  A    between atoms: C_26  and  C_27 
REMARK   14  A    between atoms: C_27  and  C_28 
ROOT
ATOM      1  C   UNL d   1      31.062 -17.059  -0.696  0.00  0.00     0.179 C 
ATOM      2  S   UNL d   1      31.959 -18.392  -1.232  0.00  0.00    -0.040 SA
ENDROOT
BRANCH   1   3
ATOM      3  N   UNL d   1      31.556 -15.718  -0.571  0.00  0.00    -0.333 N 
ATOM      4  H   UNL d   1      32.246 -15.384  -1.239  0.00  0.00     0.168 HD
BRANCH   3   5
ATOM      5  C   UNL d   1      31.268 -14.778   0.518  0.00  0.00     0.034 A 
ATOM      6  C   UNL d   1      30.312 -13.753   0.431  0.00  0.00     0.030 A 
ATOM      7  C   UNL d   1      30.167 -12.795   1.488  0.00  0.00     0.019 A 
ATOM      8  C   UNL d   1      30.945 -12.877   2.652  0.00  0.00     0.032 A 
ATOM      9  C   UNL d   1      31.843 -13.903   2.766  0.00  0.00     0.019 A 
ATOM     10  C   UNL d   1      31.940 -14.826   1.741  0.00  0.00     0.030 A 
BRANCH   8  11
ATOM     11  C   UNL d   1      30.738 -12.032   3.853  0.00  0.00     0.251 C 
ATOM     12  N   UNL d   1      31.699 -12.152   4.857  0.00  0.00    -0.355 N 
ATOM     13  H   UNL d   1      32.537 -12.695   4.677  0.00  0.00     0.162 HD
ATOM     14  O   UNL d   1      29.762 -11.316   3.954  0.00  0.00    -0.268 OA
BRANCH  12  15
ATOM     15  C   UNL d   1      31.558 -11.351   6.051  0.00  0.00     0.150 C 
BRANCH  15  16
ATOM     16  C   UNL d   1      30.486 -11.861   7.025  0.00  0.00     0.254 C 
BRANCH  16  17
ATOM     17  N   UNL d   1      30.622 -13.366   7.343  0.00  0.00    -0.070 N 
ATOM     18  H   UNL d   1      31.376 -13.730   6.742  0.00  0.00     0.279 HD
BRANCH  17  19
ATOM     19  C   UNL d   1      31.069 -13.507   8.796  0.00  0.00     0.230 C 
ATOM     20  C   UNL d   1      31.526 -14.905   9.165  0.00  0.00     0.034 C 
ENDBRANCH  17  19
BRANCH  17  21
ATOM     21  C   UNL d   1      29.329 -14.091   6.995  0.00  0.00     0.230 C 
ATOM     22  C   UNL d   1      29.290 -14.675   5.601  0.00  0.00     0.034 C 
ENDBRANCH  17  21
ENDBRANCH  16  17
ENDBRANCH  15  16
ENDBRANCH  12  15
ENDBRANCH   8  11
ENDBRANCH   3   5
ENDBRANCH   1   3
BRANCH   1  23
ATOM     23  N   UNL d   1      29.703 -17.256  -0.358  0.00  0.00    -0.299 N 
ATOM     24  C   UNL d   1      28.637 -16.691  -1.104  0.00  0.00     0.257 C 
ATOM     25  O   UNL d   1      28.727 -15.999  -2.118  0.00  0.00    -0.267 OA
ATOM     26  H   UNL d   1      29.458 -17.825   0.440  0.00  0.00     0.171 HD
BRANCH  24  27
ATOM     27  C   UNL d   1      27.235 -16.859  -0.721  0.00  0.00     0.032 A 
ATOM     28  C   UNL d   1      26.963 -17.752   0.338  0.00  0.00     0.020 A 
ATOM     29  C   UNL d   1      25.667 -18.199   0.573  0.00  0.00     0.038 A 
ATOM     30  C   UNL d   1      24.623 -17.708  -0.203  0.00  0.00     0.068 A 
ATOM     31  C   UNL d   1      24.906 -16.843  -1.276  0.00  0.00     0.038 A 
ATOM     32  C   UNL d   1      26.212 -16.427  -1.548  0.00  0.00     0.020 A 
BRANCH  30  33
ATOM     33  O   UNL d   1      23.374 -18.136   0.176  0.00  0.00    -0.351 OA
BRANCH  33  34
ATOM     34  C   UNL d   1      22.669 -18.846  -0.838  0.00  0.00     0.180 C 
BRANCH  34  35
ATOM     35  C   UNL d   1      21.189 -18.451  -0.897  0.00  0.00     0.065 C 
BRANCH  35  36
ATOM     36  C   UNL d   1      20.343 -19.327   0.007  0.00  0.00    -0.056 A 
ATOM     37  C   UNL d   1      19.282 -20.075  -0.520  0.00  0.00     0.007 A 
ATOM     38  C   UNL d   1      18.404 -20.748   0.335  0.00  0.00     0.001 A 
ATOM     39  C   UNL d   1      18.629 -20.759   1.712  0.00  0.00     0.000 A 
ATOM     40  C   UNL d   1      19.717 -20.079   2.240  0.00  0.00     0.001 A 
ATOM     41  C   UNL d   1      20.570 -19.380   1.392  0.00  0.00     0.007 A 
ENDBRANCH  35  36
ENDBRANCH  34  35
ENDBRANCH  33  34
ENDBRANCH  30  33
ENDBRANCH  24  27
ENDBRANCH   1  23
TORSDOF 14
ENDMDL
MODEL 5
REMARK VINA RESULT:    -9.552      2.410      3.789
REMARK INTER + INTRA:         -15.501
REMARK INTER:                 -13.728
REMARK INTRA:                  -1.773
REMARK CONF_INDEPENDENT:        4.176
REMARK UNBOUND:                -1.773
REMARK  14 active torsions:
REMARK  status: ('A' for Active; 'I' for Inactive)
REMARK    1  A    between atoms: C_2  and  N_3 
REMARK    2  A    between atoms: N_3  and  C_4 
REMARK    3  A    between atoms: N_3  and  C_6 
REMARK    4  A    between atoms: C_6  and  C_7 
REMARK    5  A    between atoms: C_7  and  N_8 
REMARK       I    between atoms: N_8  and  C_9 
REMARK    6  A    between atoms: C_9  and  C_11 
REMARK    7  A    between atoms: C_14  and  N_15 
REMARK    8  A    between atoms: N_15  and  C_16 
REMARK    9  A    between atoms: C_16  and  N_18 
REMARK       I    between atoms: N_18  and  C_19 
REMARK   10  A    between atoms: C_19  and  C_21 
REMARK   11  A    between atoms: C_24  and  O_25 
REMARK   12  A    between atoms: O_25  and  C_26 
REMARK   13  A    between atoms: C_26  and  C_27 
REMARK   14  A    between atoms: C_27  and  C_28 
ROOT
ATOM      1  C   UNL d   1      28.799 -14.170  -3.660  0.00  0.00     0.179 C 
ATOM      2  S   UNL d   1      29.048 -14.118  -5.334  0.00  0.00    -0.040 SA
ENDROOT
BRANCH   1   3
ATOM      3  N   UNL d   1      29.284 -13.207  -2.714  0.00  0.00    -0.333 N 
ATOM      4  H   UNL d   1      29.852 -12.433  -3.049  0.00  0.00     0.168 HD
BRANCH   3   5
ATOM      5  C   UNL d   1      29.158 -13.274  -1.254  0.00  0.00     0.034 A 
ATOM      6  C   UNL d   1      29.814 -14.226  -0.457  0.00  0.00     0.030 A 
ATOM      7  C   UNL d   1      29.550 -14.310   0.949  0.00  0.00     0.019 A 
ATOM      8  C   UNL d   1      28.664 -13.421   1.576  0.00  0.00     0.032 A 
ATOM      9  C   UNL d   1      28.059 -12.458   0.815  0.00  0.00     0.019 A 
ATOM     10  C   UNL d   1      28.355 -12.387  -0.535  0.00  0.00     0.030 A 
BRANCH   8  11
ATOM     11  C   UNL d   1      28.470 -13.335   3.044  0.00  0.00     0.251 C 
ATOM     12  N   UNL d   1      28.761 -14.493   3.766  0.00  0.00    -0.355 N 
ATOM     13  H   UNL d   1      29.199 -15.275   3.291  0.00  0.00     0.162 HD
ATOM     14  O   UNL d   1      28.043 -12.323   3.561  0.00  0.00    -0.268 OA
BRANCH  12  15
ATOM     15  C   UNL d   1      28.598 -14.473   5.201  0.00  0.00     0.150 C 
BRANCH  15  16
ATOM     16  C   UNL d   1      29.902 -14.687   5.983  0.00  0.00     0.254 C 
BRANCH  16  17
ATOM     17  N   UNL d   1      29.871 -14.066   7.397  0.00  0.00    -0.070 N 
ATOM     18  H   UNL d   1      29.971 -14.844   8.065  0.00  0.00     0.279 HD
BRANCH  17  19
ATOM     19  C   UNL d   1      31.091 -13.159   7.544  0.00  0.00     0.230 C 
ATOM     20  C   UNL d   1      31.192 -12.089   6.475  0.00  0.00     0.034 C 
ENDBRANCH  17  19
BRANCH  17  21
ATOM     21  C   UNL d   1      28.531 -13.385   7.638  0.00  0.00     0.230 C 
ATOM     22  C   UNL d   1      28.611 -12.103   8.433  0.00  0.00     0.034 C 
ENDBRANCH  17  21
ENDBRANCH  16  17
ENDBRANCH  15  16
ENDBRANCH  12  15
ENDBRANCH   8  11
ENDBRANCH   3   5
ENDBRANCH   1   3
BRANCH   1  23
ATOM     23  N   UNL d   1      28.034 -15.235  -3.127  0.00  0.00    -0.299 N 
ATOM     24  C   UNL d   1      26.770 -15.038  -2.513  0.00  0.00     0.257 C 
ATOM     25  O   UNL d   1      26.170 -13.972  -2.378  0.00  0.00    -0.267 OA
ATOM     26  H   UNL d   1      28.379 -16.182  -3.182  0.00  0.00     0.171 HD
BRANCH  24  27
ATOM     27  C   UNL d   1      26.005 -16.136  -1.922  0.00  0.00     0.032 A 
ATOM     28  C   UNL d   1      24.599 -16.061  -2.017  0.00  0.00     0.020 A 
ATOM     29  C   UNL d   1      23.791 -16.885  -1.240  0.00  0.00     0.038 A 
ATOM     30  C   UNL d   1      24.378 -17.835  -0.413  0.00  0.00     0.068 A 
ATOM     31  C   UNL d   1      25.780 -17.881  -0.299  0.00  0.00     0.038 A 
ATOM     32  C   UNL d   1      26.597 -17.025  -1.040  0.00  0.00     0.020 A 
BRANCH  30  33
ATOM     33  O   UNL d   1      23.492 -18.662   0.234  0.00  0.00    -0.351 OA
BRANCH  33  34
ATOM     34  C   UNL d   1      22.575 -19.324  -0.632  0.00  0.00     0.180 C 
BRANCH  34  35
ATOM     35  C   UNL d   1      21.215 -18.619  -0.679  0.00  0.00     0.065 C 
BRANCH  35  36
ATOM     36  C   UNL d   1      20.171 -19.366   0.130  0.00  0.00    -0.056 A 
ATOM     37  C   UNL d   1      20.249 -19.403   1.528  0.00  0.00     0.007 A 
ATOM     38  C   UNL d   1      19.386 -20.226   2.258  0.00  0.00     0.001 A 
ATOM     39  C   UNL d   1      18.382 -20.946   1.611  0.00  0.00     0.000 A 
ATOM     40  C   UNL d   1      18.251 -20.864   0.232  0.00  0.00     0.001 A 
ATOM     41  C   UNL d   1      19.131 -20.072  -0.498  0.00  0.00     0.007 A 
ENDBRANCH  35  36
ENDBRANCH  34  35
ENDBRANCH  33  34
ENDBRANCH  30  33
ENDBRANCH  24  27
ENDBRANCH   1  23
TORSDOF 14
ENDMDL
MODEL 6
REMARK VINA RESULT:    -9.340      1.809      3.052
REMARK INTER + INTRA:         -15.883
REMARK INTER:                 -13.516
REMARK INTRA:                  -2.367
REMARK CONF_INDEPENDENT:        4.176
REMARK UNBOUND:                -2.367
REMARK  14 active torsions:
REMARK  status: ('A' for Active; 'I' for Inactive)
REMARK    1  A    between atoms: C_2  and  N_3 
REMARK    2  A    between atoms: N_3  and  C_4 
REMARK    3  A    between atoms: N_3  and  C_6 
REMARK    4  A    between atoms: C_6  and  C_7 
REMARK    5  A    between atoms: C_7  and  N_8 
REMARK       I    between atoms: N_8  and  C_9 
REMARK    6  A    between atoms: C_9  and  C_11 
REMARK    7  A    between atoms: C_14  and  N_15 
REMARK    8  A    between atoms: N_15  and  C_16 
REMARK    9  A    between atoms: C_16  and  N_18 
REMARK       I    between atoms: N_18  and  C_19 
REMARK   10  A    between atoms: C_19  and  C_21 
REMARK   11  A    between atoms: C_24  and  O_25 
REMARK   12  A    between atoms: O_25  and  C_26 
REMARK   13  A    between atoms: C_26  and  C_27 
REMARK   14  A    between atoms: C_27  and  C_28 
ROOT
ATOM      1  C   UNL d   1      30.387 -16.883  -0.653  0.00  0.00     0.179 C 
ATOM      2  S   UNL d   1      31.094 -17.835  -1.862  0.00  0.00    -0.040 SA
ENDROOT
BRANCH   1   3
ATOM      3  N   UNL d   1      31.028 -15.802   0.039  0.00  0.00    -0.333 N 
ATOM      4  H   UNL d   1      31.938 -15.483  -0.284  0.00  0.00     0.168 HD
BRANCH   3   5
ATOM      5  C   UNL d   1      30.570 -15.161   1.276  0.00  0.00     0.034 A 
ATOM      6  C   UNL d   1      31.400 -14.917   2.383  0.00  0.00     0.030 A 
ATOM      7  C   UNL d   1      30.858 -14.398   3.604  0.00  0.00     0.019 A 
ATOM      8  C   UNL d   1      29.496 -14.081   3.717  0.00  0.00     0.032 A 
ATOM      9  C   UNL d   1      28.690 -14.268   2.627  0.00  0.00     0.019 A 
ATOM     10  C   UNL d   1      29.249 -14.746   1.455  0.00  0.00     0.030 A 
BRANCH   8  11
ATOM     11  C   UNL d   1      28.897 -13.386   4.882  0.00  0.00     0.251 C 
ATOM     12  N   UNL d   1      29.444 -12.141   5.196  0.00  0.00    -0.355 N 
ATOM     13  H   UNL d   1      30.115 -11.721   4.562  0.00  0.00     0.162 HD
ATOM     14  O   UNL d   1      28.013 -13.904   5.534  0.00  0.00    -0.268 OA
BRANCH  12  15
ATOM     15  C   UNL d   1      28.900 -11.409   6.317  0.00  0.00     0.150 C 
BRANCH  15  16
ATOM     16  C   UNL d   1      29.462 -11.840   7.679  0.00  0.00     0.254 C 
BRANCH  16  17
ATOM     17  N   UNL d   1      29.865 -13.330   7.725  0.00  0.00    -0.070 N 
ATOM     18  H   UNL d   1      29.783 -13.690   6.763  0.00  0.00     0.279 HD
BRANCH  17  19
ATOM     19  C   UNL d   1      31.335 -13.412   8.133  0.00  0.00     0.230 C 
ATOM     20  C   UNL d   1      31.611 -14.419   9.231  0.00  0.00     0.034 C 
ENDBRANCH  17  19
BRANCH  17  21
ATOM     21  C   UNL d   1      28.906 -14.103   8.620  0.00  0.00     0.230 C 
ATOM     22  C   UNL d   1      28.353 -13.310   9.781  0.00  0.00     0.034 C 
ENDBRANCH  17  21
ENDBRANCH  16  17
ENDBRANCH  15  16
ENDBRANCH  12  15
ENDBRANCH   8  11
ENDBRANCH   3   5
ENDBRANCH   1   3
BRANCH   1  23
ATOM     23  N   UNL d   1      29.044 -17.144  -0.292  0.00  0.00    -0.299 N 
ATOM     24  C   UNL d   1      27.940 -16.619  -1.013  0.00  0.00     0.257 C 
ATOM     25  O   UNL d   1      27.981 -15.914  -2.020  0.00  0.00    -0.267 OA
ATOM     26  H   UNL d   1      28.840 -17.731   0.504  0.00  0.00     0.171 HD
BRANCH  24  27
ATOM     27  C   UNL d   1      26.555 -16.853  -0.606  0.00  0.00     0.032 A 
ATOM     28  C   UNL d   1      26.241 -18.136  -0.107  0.00  0.00     0.020 A 
ATOM     29  C   UNL d   1      24.917 -18.542   0.022  0.00  0.00     0.038 A 
ATOM     30  C   UNL d   1      23.896 -17.650  -0.282  0.00  0.00     0.068 A 
ATOM     31  C   UNL d   1      24.216 -16.386  -0.809  0.00  0.00     0.038 A 
ATOM     32  C   UNL d   1      25.543 -15.988  -0.986  0.00  0.00     0.020 A 
BRANCH  30  33
ATOM     33  O   UNL d   1      22.629 -18.117  -0.027  0.00  0.00    -0.351 OA
BRANCH  33  34
ATOM     34  C   UNL d   1      22.098 -18.954  -1.050  0.00  0.00     0.180 C 
BRANCH  34  35
ATOM     35  C   UNL d   1      20.570 -18.865  -1.132  0.00  0.00     0.065 C 
BRANCH  35  36
ATOM     36  C   UNL d   1      19.907 -19.641  -0.009  0.00  0.00    -0.056 A 
ATOM     37  C   UNL d   1      18.788 -20.444  -0.265  0.00  0.00     0.007 A 
ATOM     38  C   UNL d   1      18.082 -21.023   0.793  0.00  0.00     0.001 A 
ATOM     39  C   UNL d   1      18.536 -20.885   2.105  0.00  0.00     0.000 A 
ATOM     40  C   UNL d   1      19.683 -20.148   2.365  0.00  0.00     0.001 A 
ATOM     41  C   UNL d   1      20.366 -19.543   1.315  0.00  0.00     0.007 A 
ENDBRANCH  35  36
ENDBRANCH  34  35
ENDBRANCH  33  34
ENDBRANCH  30  33
ENDBRANCH  24  27
ENDBRANCH   1  23
TORSDOF 14
ENDMDL
MODEL 7
REMARK VINA RESULT:    -9.126      7.807     10.338
REMARK INTER + INTRA:         -15.518
REMARK INTER:                 -13.302
REMARK INTRA:                  -2.216
REMARK CONF_INDEPENDENT:        4.176
REMARK UNBOUND:                -2.216
REMARK  14 active torsions:
REMARK  status: ('A' for Active; 'I' for Inactive)
REMARK    1  A    between atoms: C_2  and  N_3 
REMARK    2  A    between atoms: N_3  and  C_4 
REMARK    3  A    between atoms: N_3  and  C_6 
REMARK    4  A    between atoms: C_6  and  C_7 
REMARK    5  A    between atoms: C_7  and  N_8 
REMARK       I    between atoms: N_8  and  C_9 
REMARK    6  A    between atoms: C_9  and  C_11 
REMARK    7  A    between atoms: C_14  and  N_15 
REMARK    8  A    between atoms: N_15  and  C_16 
REMARK    9  A    between atoms: C_16  and  N_18 
REMARK       I    between atoms: N_18  and  C_19 
REMARK   10  A    between atoms: C_19  and  C_21 
REMARK   11  A    between atoms: C_24  and  O_25 
REMARK   12  A    between atoms: O_25  and  C_26 
REMARK   13  A    between atoms: C_26  and  C_27 
REMARK   14  A    between atoms: C_27  and  C_28 
ROOT
ATOM      1  C   UNL d   1      29.127 -14.212  -6.411  0.00  0.00     0.179 C 
ATOM      2  S   UNL d   1      28.735 -12.873  -7.371  0.00  0.00    -0.040 SA
ENDROOT
BRANCH   1   3
ATOM      3  N   UNL d   1      30.094 -15.219  -6.739  0.00  0.00    -0.333 N 
ATOM      4  H   UNL d   1      30.686 -15.085  -7.554  0.00  0.00     0.168 HD
BRANCH   3   5
ATOM      5  C   UNL d   1      30.251 -16.525  -6.089  0.00  0.00     0.034 A 
ATOM      6  C   UNL d   1      30.193 -16.717  -4.699  0.00  0.00     0.030 A 
ATOM      7  C   UNL d   1      30.476 -18.000  -4.126  0.00  0.00     0.019 A 
ATOM      8  C   UNL d   1      30.780 -19.106  -4.933  0.00  0.00     0.032 A 
ATOM      9  C   UNL d   1      30.788 -18.939  -6.292  0.00  0.00     0.019 A 
ATOM     10  C   UNL d   1      30.485 -17.695  -6.815  0.00  0.00     0.030 A 
BRANCH   8  11
ATOM     11  C   UNL d   1      30.916 -20.494  -4.429  0.00  0.00     0.251 C 
ATOM     12  N   UNL d   1      31.704 -20.653  -3.289  0.00  0.00    -0.355 N 
ATOM     13  H   UNL d   1      32.034 -19.829  -2.795  0.00  0.00     0.162 HD
ATOM     14  O   UNL d   1      30.399 -21.426  -5.011  0.00  0.00    -0.268 OA
BRANCH  12  15
ATOM     15  C   UNL d   1      31.872 -21.980  -2.742  0.00  0.00     0.150 C 
BRANCH  15  16
ATOM     16  C   UNL d   1      32.047 -23.077  -3.802  0.00  0.00     0.254 C 
BRANCH  16  17
ATOM     17  N   UNL d   1      30.751 -23.874  -4.069  0.00  0.00    -0.070 N 
ATOM     18  H   UNL d   1      30.410 -23.584  -4.998  0.00  0.00     0.279 HD
BRANCH  17  19
ATOM     19  C   UNL d   1      31.112 -25.356  -4.143  0.00  0.00     0.230 C 
ATOM     20  C   UNL d   1      30.151 -26.181  -4.976  0.00  0.00     0.034 C 
ENDBRANCH  17  19
BRANCH  17  21
ATOM     21  C   UNL d   1      29.697 -23.520  -3.029  0.00  0.00     0.230 C 
ATOM     22  C   UNL d   1      29.751 -24.354  -1.771  0.00  0.00     0.034 C 
ENDBRANCH  17  21
ENDBRANCH  16  17
ENDBRANCH  15  16
ENDBRANCH  12  15
ENDBRANCH   8  11
ENDBRANCH   3   5
ENDBRANCH   1   3
BRANCH   1  23
ATOM     23  N   UNL d   1      28.472 -14.359  -5.165  0.00  0.00    -0.299 N 
ATOM     24  C   UNL d   1      27.227 -15.026  -5.027  0.00  0.00     0.257 C 
ATOM     25  O   UNL d   1      26.574 -15.568  -5.918  0.00  0.00    -0.267 OA
ATOM     26  H   UNL d   1      28.894 -13.989  -4.326  0.00  0.00     0.171 HD
BRANCH  24  27
ATOM     27  C   UNL d   1      26.533 -15.133  -3.744  0.00  0.00     0.032 A 
ATOM     28  C   UNL d   1      27.121 -15.961  -2.764  0.00  0.00     0.020 A 
ATOM     29  C   UNL d   1      26.399 -16.358  -1.644  0.00  0.00     0.038 A 
ATOM     30  C   UNL d   1      25.108 -15.878  -1.458  0.00  0.00     0.068 A 
ATOM     31  C   UNL d   1      24.517 -15.080  -2.454  0.00  0.00     0.038 A 
ATOM     32  C   UNL d   1      25.220 -14.716  -3.605  0.00  0.00     0.020 A 
BRANCH  30  33
ATOM     33  O   UNL d   1      24.520 -16.250  -0.273  0.00  0.00    -0.351 OA
BRANCH  33  34
ATOM     34  C   UNL d   1      23.169 -16.682  -0.403  0.00  0.00     0.180 C 
BRANCH  34  35
ATOM     35  C   UNL d   1      23.070 -18.098  -0.983  0.00  0.00     0.065 C 
BRANCH  35  36
ATOM     36  C   UNL d   1      21.779 -18.780  -0.571  0.00  0.00    -0.056 A 
ATOM     37  C   UNL d   1      20.869 -19.223  -1.539  0.00  0.00     0.007 A 
ATOM     38  C   UNL d   1      19.611 -19.698  -1.156  0.00  0.00     0.001 A 
ATOM     39  C   UNL d   1      19.285 -19.824   0.194  0.00  0.00     0.000 A 
ATOM     40  C   UNL d   1      20.205 -19.453   1.165  0.00  0.00     0.001 A 
ATOM     41  C   UNL d   1      21.444 -18.947   0.783  0.00  0.00     0.007 A 
ENDBRANCH  35  36
ENDBRANCH  34  35
ENDBRANCH  33  34
ENDBRANCH  30  33
ENDBRANCH  24  27
ENDBRANCH   1  23
TORSDOF 14
ENDMDL
MODEL 8
REMARK VINA RESULT:    -9.115      1.310      2.206
REMARK INTER + INTRA:         -16.142
REMARK INTER:                 -13.291
REMARK INTRA:                  -2.851
REMARK CONF_INDEPENDENT:        4.176
REMARK UNBOUND:                -2.851
REMARK  14 active torsions:
REMARK  status: ('A' for Active; 'I' for Inactive)
REMARK    1  A    between atoms: C_2  and  N_3 
REMARK    2  A    between atoms: N_3  and  C_4 
REMARK    3  A    between atoms: N_3  and  C_6 
REMARK    4  A    between atoms: C_6  and  C_7 
REMARK    5  A    between atoms: C_7  and  N_8 
REMARK       I    between atoms: N_8  and  C_9 
REMARK    6  A    between atoms: C_9  and  C_11 
REMARK    7  A    between atoms: C_14  and  N_15 
REMARK    8  A    between atoms: N_15  and  C_16 
REMARK    9  A    between atoms: C_16  and  N_18 
REMARK       I    between atoms: N_18  and  C_19 
REMARK   10  A    between atoms: C_19  and  C_21 
REMARK   11  A    between atoms: C_24  and  O_25 
REMARK   12  A    between atoms: O_25  and  C_26 
REMARK   13  A    between atoms: C_26  and  C_27 
REMARK   14  A    between atoms: C_27  and  C_28 
ROOT
ATOM      1  C   UNL d   1      29.189 -14.872   1.288  0.00  0.00     0.179 C 
ATOM      2  S   UNL d   1      30.799 -14.743   0.780  0.00  0.00    -0.040 SA
ENDROOT
BRANCH   1   3
ATOM      3  N   UNL d   1      28.582 -14.105   2.338  0.00  0.00    -0.333 N 
ATOM      4  H   UNL d   1      27.829 -13.464   2.105  0.00  0.00     0.168 HD
BRANCH   3   5
ATOM      5  C   UNL d   1      29.016 -14.040   3.738  0.00  0.00     0.034 A 
ATOM      6  C   UNL d   1      28.467 -14.829   4.762  0.00  0.00     0.030 A 
ATOM      7  C   UNL d   1      28.854 -14.628   6.127  0.00  0.00     0.019 A 
ATOM      8  C   UNL d   1      29.817 -13.669   6.475  0.00  0.00     0.032 A 
ATOM      9  C   UNL d   1      30.394 -12.932   5.477  0.00  0.00     0.019 A 
ATOM     10  C   UNL d   1      30.018 -13.168   4.167  0.00  0.00     0.030 A 
BRANCH   8  11
ATOM     11  C   UNL d   1      30.391 -13.520   7.835  0.00  0.00     0.251 C 
ATOM     12  N   UNL d   1      30.952 -14.670   8.389  0.00  0.00    -0.355 N 
ATOM     13  H   UNL d   1      31.057 -15.498   7.812  0.00  0.00     0.162 HD
ATOM     14  O   UNL d   1      30.328 -12.462   8.428  0.00  0.00    -0.268 OA
BRANCH  12  15
ATOM     15  C   UNL d   1      31.533 -14.590   9.710  0.00  0.00     0.150 C 
BRANCH  15  16
ATOM     16  C   UNL d   1      30.510 -14.673  10.851  0.00  0.00     0.254 C 
BRANCH  16  17
ATOM     17  N   UNL d   1      29.891 -13.304  11.211  0.00  0.00    -0.070 N 
ATOM     18  H   UNL d   1      29.784 -12.785  10.328  0.00  0.00     0.279 HD
BRANCH  17  19
ATOM     19  C   UNL d   1      28.497 -13.549  11.784  0.00  0.00     0.230 C 
ATOM     20  C   UNL d   1      27.406 -13.620  10.734  0.00  0.00     0.034 C 
ENDBRANCH  17  19
BRANCH  17  21
ATOM     21  C   UNL d   1      30.834 -12.530  12.122  0.00  0.00     0.230 C 
ATOM     22  C   UNL d   1      30.683 -11.028  12.052  0.00  0.00     0.034 C 
ENDBRANCH  17  21
ENDBRANCH  16  17
ENDBRANCH  15  16
ENDBRANCH  12  15
ENDBRANCH   8  11
ENDBRANCH   3   5
ENDBRANCH   1   3
BRANCH   1  23
ATOM     23  N   UNL d   1      28.346 -15.792   0.622  0.00  0.00    -0.299 N 
ATOM     24  C   UNL d   1      26.960 -15.560   0.425  0.00  0.00     0.257 C 
ATOM     25  O   UNL d   1      26.320 -14.565   0.766  0.00  0.00    -0.267 OA
ATOM     26  H   UNL d   1      28.727 -16.654   0.257  0.00  0.00     0.171 HD
BRANCH  24  27
ATOM     27  C   UNL d   1      26.084 -16.536  -0.222  0.00  0.00     0.032 A 
ATOM     28  C   UNL d   1      25.223 -16.055  -1.231  0.00  0.00     0.020 A 
ATOM     29  C   UNL d   1      24.162 -16.830  -1.687  0.00  0.00     0.038 A 
ATOM     30  C   UNL d   1      23.992 -18.116  -1.189  0.00  0.00     0.068 A 
ATOM     31  C   UNL d   1      24.834 -18.577  -0.161  0.00  0.00     0.038 A 
ATOM     32  C   UNL d   1      25.873 -17.786   0.336  0.00  0.00     0.020 A 
BRANCH  30  33
ATOM     33  O   UNL d   1      22.977 -18.832  -1.777  0.00  0.00    -0.351 OA
BRANCH  33  34
ATOM     34  C   UNL d   1      21.692 -18.593  -1.211  0.00  0.00     0.180 C 
BRANCH  34  35
ATOM     35  C   UNL d   1      21.677 -18.826   0.304  0.00  0.00     0.065 C 
BRANCH  35  36
ATOM     36  C   UNL d   1      20.464 -19.629   0.732  0.00  0.00    -0.056 A 
ATOM     37  C   UNL d   1      19.589 -20.159  -0.225  0.00  0.00     0.007 A 
ATOM     38  C   UNL d   1      18.389 -20.754   0.173  0.00  0.00     0.001 A 
ATOM     39  C   UNL d   1      18.093 -20.910   1.528  0.00  0.00     0.000 A 
ATOM     40  C   UNL d   1      18.984 -20.450   2.487  0.00  0.00     0.001 A 
ATOM     41  C   UNL d   1      20.163 -19.827   2.090  0.00  0.00     0.007 A 
ENDBRANCH  35  36
ENDBRANCH  34  35
ENDBRANCH  33  34
ENDBRANCH  30  33
ENDBRANCH  24  27
ENDBRANCH   1  23
TORSDOF 14
ENDMDL
MODEL 9
REMARK VINA RESULT:    -8.869      6.293      9.509
REMARK INTER + INTRA:         -15.468
REMARK INTER:                 -13.045
REMARK INTRA:                  -2.423
REMARK CONF_INDEPENDENT:        4.176
REMARK UNBOUND:                -2.423
REMARK  14 active torsions:
REMARK  status: ('A' for Active; 'I' for Inactive)
REMARK    1  A    between atoms: C_2  and  N_3 
REMARK    2  A    between atoms: N_3  and  C_4 
REMARK    3  A    between atoms: N_3  and  C_6 
REMARK    4  A    between atoms: C_6  and  C_7 
REMARK    5  A    between atoms: C_7  and  N_8 
REMARK       I    between atoms: N_8  and  C_9 
REMARK    6  A    between atoms: C_9  and  C_11 
REMARK    7  A    between atoms: C_14  and  N_15 
REMARK    8  A    between atoms: N_15  and  C_16 
REMARK    9  A    between atoms: C_16  and  N_18 
REMARK       I    between atoms: N_18  and  C_19 
REMARK   10  A    between atoms: C_19  and  C_21 
REMARK   11  A    between atoms: C_24  and  O_25 
REMARK   12  A    between atoms: O_25  and  C_26 
REMARK   13  A    between atoms: C_26  and  C_27 
REMARK   14  A    between atoms: C_27  and  C_28 
ROOT
ATOM      1  C   UNL d   1      30.787 -16.560  -0.297  0.00  0.00     0.179 C 
ATOM      2  S   UNL d   1      31.814 -15.878   0.863  0.00  0.00    -0.040 SA
ENDROOT
BRANCH   1   3
ATOM      3  N   UNL d   1      31.185 -17.023  -1.596  0.00  0.00    -0.333 N 
ATOM      4  H   UNL d   1      31.308 -16.344  -2.342  0.00  0.00     0.168 HD
BRANCH   3   5
ATOM      5  C   UNL d   1      31.319 -18.420  -2.024  0.00  0.00     0.034 A 
ATOM      6  C   UNL d   1      31.579 -18.808  -3.348  0.00  0.00     0.030 A 
ATOM      7  C   UNL d   1      31.578 -20.193  -3.718  0.00  0.00     0.019 A 
ATOM      8  C   UNL d   1      31.357 -21.198  -2.766  0.00  0.00     0.032 A 
ATOM      9  C   UNL d   1      31.153 -20.830  -1.463  0.00  0.00     0.019 A 
ATOM     10  C   UNL d   1      31.187 -19.487  -1.134  0.00  0.00     0.030 A 
BRANCH   8  11
ATOM     11  C   UNL d   1      31.507 -22.649  -3.036  0.00  0.00     0.251 C 
ATOM     12  N   UNL d   1      30.552 -23.214  -3.882  0.00  0.00    -0.355 N 
ATOM     13  H   UNL d   1      29.896 -22.607  -4.362  0.00  0.00     0.162 HD
ATOM     14  O   UNL d   1      32.390 -23.296  -2.509  0.00  0.00    -0.268 OA
BRANCH  12  15
ATOM     15  C   UNL d   1      30.646 -24.622  -4.190  0.00  0.00     0.150 C 
BRANCH  15  16
ATOM     16  C   UNL d   1      30.668 -25.534  -2.955  0.00  0.00     0.254 C 
BRANCH  16  17
ATOM     17  N   UNL d   1      30.067 -24.867  -1.698  0.00  0.00    -0.070 N 
ATOM     18  H   UNL d   1      30.608 -24.006  -1.531  0.00  0.00     0.279 HD
BRANCH  17  19
ATOM     19  C   UNL d   1      28.628 -24.465  -2.014  0.00  0.00     0.230 C 
ATOM     20  C   UNL d   1      27.838 -25.536  -2.740  0.00  0.00     0.034 C 
ENDBRANCH  17  19
BRANCH  17  21
ATOM     21  C   UNL d   1      30.228 -25.785  -0.494  0.00  0.00     0.230 C 
ATOM     22  C   UNL d   1      31.497 -25.568   0.297  0.00  0.00     0.034 C 
ENDBRANCH  17  21
ENDBRANCH  16  17
ENDBRANCH  15  16
ENDBRANCH  12  15
ENDBRANCH   8  11
ENDBRANCH   3   5
ENDBRANCH   1   3
BRANCH   1  23
ATOM     23  N   UNL d   1      29.418 -16.718   0.027  0.00  0.00    -0.299 N 
ATOM     24  C   UNL d   1      28.391 -16.695  -0.951  0.00  0.00     0.257 C 
ATOM     25  O   UNL d   1      28.528 -16.564  -2.167  0.00  0.00    -0.267 OA
ATOM     26  H   UNL d   1      29.140 -16.861   0.987  0.00  0.00     0.171 HD
BRANCH  24  27
ATOM     27  C   UNL d   1      26.974 -16.809  -0.604  0.00  0.00     0.032 A 
ATOM     28  C   UNL d   1      26.621 -17.815   0.321  0.00  0.00     0.020 A 
ATOM     29  C   UNL d   1      25.292 -18.193   0.483  0.00  0.00     0.038 A 
ATOM     30  C   UNL d   1      24.300 -17.527  -0.225  0.00  0.00     0.068 A 
ATOM     31  C   UNL d   1      24.662 -16.548  -1.169  0.00  0.00     0.038 A 
ATOM     32  C   UNL d   1      25.999 -16.196  -1.372  0.00  0.00     0.020 A 
BRANCH  30  33
ATOM     33  O   UNL d   1      23.017 -17.909   0.082  0.00  0.00    -0.351 OA
BRANCH  33  34
ATOM     34  C   UNL d   1      22.425 -18.786  -0.872  0.00  0.00     0.180 C 
BRANCH  34  35
ATOM     35  C   UNL d   1      20.904 -18.610  -0.951  0.00  0.00     0.065 C 
BRANCH  35  36
ATOM     36  C   UNL d   1      20.193 -19.434   0.105  0.00  0.00    -0.056 A 
ATOM     37  C   UNL d   1      19.063 -20.193  -0.228  0.00  0.00     0.007 A 
ATOM     38  C   UNL d   1      18.315 -20.816   0.776  0.00  0.00     0.001 A 
ATOM     39  C   UNL d   1      18.736 -20.766   2.105  0.00  0.00     0.000 A 
ATOM     40  C   UNL d   1      19.892 -20.075   2.438  0.00  0.00     0.001 A 
ATOM     41  C   UNL d   1      20.618 -19.426   1.444  0.00  0.00     0.007 A 
ENDBRANCH  35  36
ENDBRANCH  34  35
ENDBRANCH  33  34
ENDBRANCH  30  33
ENDBRANCH  24  27
ENDBRANCH   1  23
TORSDOF 14
ENDMDL
