MODEL 1
REMARK VINA RESULT:    -7.508      0.000      0.000
REMARK INTER + INTRA:         -11.844
REMARK INTER:                  -9.895
REMARK INTRA:                  -1.949
REMARK CONF_INDEPENDENT:        2.386
REMARK UNBOUND:                -1.949
REMARK  8 active torsions:
REMARK  status: ('A' for Active; 'I' for Inactive)
REMARK    1  A    between atoms: C_2  and  C_3 
REMARK    2  A    between atoms: C_3  and  C_4 
REMARK    3  A    between atoms: C_4  and  O_5 
REMARK    4  A    between atoms: C_6  and  O_5 
REMARK    5  A    between atoms: C_6  and  C_8 
REMARK       I    between atoms: C_8  and  N_10 
REMARK    6  A    between atoms: N_10  and  N_11 
REMARK       I    between atoms: N_11  and  C_12 
REMARK    7  A    between atoms: C_12  and  C_14 
REMARK    8  A    between atoms: C_23  and  O_24 
ROOT
ATOM      1  N   UNL d   1      25.798 -15.575  -3.139  0.00  0.00    -0.263 N 
ATOM      2  C   UNL d   1      25.465 -14.575  -4.034  0.00  0.00     0.272 C 
ATOM      3  O   UNL d   1      24.336 -14.077  -4.084  0.00  0.00    -0.266 OA
ATOM      4  H   UNL d   1      26.727 -15.993  -3.101  0.00  0.00     0.190 HD
ENDROOT
BRANCH   2   5
ATOM      5  C   UNL d   1      26.539 -14.077  -4.946  0.00  0.00     0.067 A 
ATOM      6  C   UNL d   1      27.548 -14.973  -5.336  0.00  0.00     0.032 A 
ATOM      7  C   UNL d   1      28.643 -14.555  -6.119  0.00  0.00    -0.025 A 
ATOM      8  C   UNL d   1      29.647 -15.457  -6.517  0.00  0.00     0.012 A 
ATOM      9  C   UNL d   1      28.745 -13.199  -6.503  0.00  0.00    -0.023 A 
ATOM     10  C   UNL d   1      30.744 -15.031  -7.270  0.00  0.00     0.001 A 
ATOM     11  C   UNL d   1      30.856 -13.693  -7.631  0.00  0.00     0.001 A 
ATOM     12  C   UNL d   1      29.864 -12.784  -7.254  0.00  0.00     0.012 A 
ATOM     13  C   UNL d   1      27.724 -12.305  -6.119  0.00  0.00     0.049 A 
ATOM     14  C   UNL d   1      26.630 -12.744  -5.357  0.00  0.00     0.082 A 
BRANCH  14  15
ATOM     15  O   UNL d   1      25.657 -11.853  -4.995  0.00  0.00    -0.360 OA
ATOM     16  H   UNL d   1      24.779 -12.246  -5.141  0.00  0.00     0.217 HD
ENDBRANCH  14  15
ENDBRANCH   2   5
BRANCH   1  17
ATOM     17  N   UNL d   1      24.778 -16.214  -2.399  0.00  0.00    -0.265 N 
ATOM     18  C   UNL d   1      25.138 -17.059  -1.354  0.00  0.00     0.264 C 
ATOM     19  O   UNL d   1      26.299 -17.451  -1.215  0.00  0.00    -0.269 OA
ATOM     20  H   UNL d   1      23.850 -15.804  -2.500  0.00  0.00     0.190 HD
BRANCH  18  21
ATOM     21  C   UNL d   1      23.981 -17.432  -0.352  0.00  0.00     0.210 C 
ATOM     22  C   UNL d   1      22.850 -16.400  -0.458  0.00  0.00     0.050 C 
BRANCH  21  23
ATOM     23  O   UNL d   1      23.342 -18.709  -0.459  0.00  0.00    -0.377 OA
BRANCH  23  24
ATOM     24  C   UNL d   1      21.994 -18.703  -0.022  0.00  0.00     0.168 C 
BRANCH  24  25
ATOM     25  C   UNL d   1      21.032 -19.021  -1.137  0.00  0.00     0.026 C 
BRANCH  25  26
ATOM     26  C   UNL d   1      19.668 -19.329  -0.521  0.00  0.00    -0.002 C 
ATOM     27  C   UNL d   1      19.841 -20.080   0.777  0.00  0.00     0.005 C 
ENDBRANCH  25  26
ENDBRANCH  24  25
ENDBRANCH  23  24
ENDBRANCH  21  23
ENDBRANCH  18  21
ENDBRANCH   1  17
TORSDOF 8
ENDMDL
MODEL 2
REMARK VINA RESULT:    -6.898      1.959      3.268
REMARK INTER + INTRA:         -11.324
REMARK INTER:                  -9.285
REMARK INTRA:                  -2.039
REMARK CONF_INDEPENDENT:        2.386
REMARK UNBOUND:                -2.039
REMARK  8 active torsions:
REMARK  status: ('A' for Active; 'I' for Inactive)
REMARK    1  A    between atoms: C_2  and  C_3 
REMARK    2  A    between atoms: C_3  and  C_4 
REMARK    3  A    between atoms: C_4  and  O_5 
REMARK    4  A    between atoms: C_6  and  O_5 
REMARK    5  A    between atoms: C_6  and  C_8 
REMARK       I    between atoms: C_8  and  N_10 
REMARK    6  A    between atoms: N_10  and  N_11 
REMARK       I    between atoms: N_11  and  C_12 
REMARK    7  A    between atoms: C_12  and  C_14 
REMARK    8  A    between atoms: C_23  and  O_24 
ROOT
ATOM      1  N   UNL d   1      25.349 -15.395  -2.982  0.00  0.00    -0.263 N 
ATOM      2  C   UNL d   1      25.688 -15.202  -4.308  0.00  0.00     0.272 C 
ATOM      3  O   UNL d   1      25.530 -16.074  -5.168  0.00  0.00    -0.266 OA
ATOM      4  H   UNL d   1      25.485 -14.679  -2.268  0.00  0.00     0.190 HD
ENDROOT
BRANCH   2   5
ATOM      5  C   UNL d   1      26.242 -13.869  -4.694  0.00  0.00     0.067 A 
ATOM      6  C   UNL d   1      25.681 -12.722  -4.108  0.00  0.00     0.032 A 
ATOM      7  C   UNL d   1      26.085 -11.426  -4.489  0.00  0.00    -0.025 A 
ATOM      8  C   UNL d   1      25.530 -10.279  -3.893  0.00  0.00     0.012 A 
ATOM      9  C   UNL d   1      27.061 -11.273  -5.500  0.00  0.00    -0.023 A 
ATOM     10  C   UNL d   1      25.915  -8.998  -4.294  0.00  0.00     0.001 A 
ATOM     11  C   UNL d   1      26.859  -8.844  -5.303  0.00  0.00     0.001 A 
ATOM     12  C   UNL d   1      27.431  -9.972  -5.900  0.00  0.00     0.012 A 
ATOM     13  C   UNL d   1      27.629 -12.427  -6.077  0.00  0.00     0.049 A 
ATOM     14  C   UNL d   1      27.229 -13.709  -5.670  0.00  0.00     0.082 A 
BRANCH  14  15
ATOM     15  O   UNL d   1      27.795 -14.811  -6.252  0.00  0.00    -0.360 OA
ATOM     16  H   UNL d   1      27.216 -15.583  -6.129  0.00  0.00     0.217 HD
ENDBRANCH  14  15
ENDBRANCH   2   5
BRANCH   1  17
ATOM     17  N   UNL d   1      25.012 -16.691  -2.532  0.00  0.00    -0.265 N 
ATOM     18  C   UNL d   1      24.562 -16.850  -1.224  0.00  0.00     0.264 C 
ATOM     19  O   UNL d   1      24.681 -15.950  -0.389  0.00  0.00    -0.269 OA
ATOM     20  H   UNL d   1      24.858 -17.378  -3.269  0.00  0.00     0.190 HD
BRANCH  18  21
ATOM     21  C   UNL d   1      23.860 -18.224  -0.910  0.00  0.00     0.210 C 
ATOM     22  C   UNL d   1      23.623 -18.354   0.601  0.00  0.00     0.050 C 
BRANCH  21  23
ATOM     23  O   UNL d   1      22.599 -18.525  -1.519  0.00  0.00    -0.377 OA
BRANCH  23  24
ATOM     24  C   UNL d   1      21.608 -18.932  -0.592  0.00  0.00     0.168 C 
BRANCH  24  25
ATOM     25  C   UNL d   1      20.320 -19.325  -1.270  0.00  0.00     0.026 C 
BRANCH  25  26
ATOM     26  C   UNL d   1      19.304 -19.696  -0.191  0.00  0.00    -0.002 C 
ATOM     27  C   UNL d   1      20.016 -20.121   1.070  0.00  0.00     0.005 C 
ENDBRANCH  25  26
ENDBRANCH  24  25
ENDBRANCH  23  24
ENDBRANCH  21  23
ENDBRANCH  18  21
ENDBRANCH   1  17
TORSDOF 8
ENDMDL
MODEL 3
REMARK VINA RESULT:    -6.804      1.134      2.003
REMARK INTER + INTRA:         -11.171
REMARK INTER:                  -9.191
REMARK INTRA:                  -1.980
REMARK CONF_INDEPENDENT:        2.386
REMARK UNBOUND:                -1.980
REMARK  8 active torsions:
REMARK  status: ('A' for Active; 'I' for Inactive)
REMARK    1  A    between atoms: C_2  and  C_3 
REMARK    2  A    between atoms: C_3  and  C_4 
REMARK    3  A    between atoms: C_4  and  O_5 
REMARK    4  A    between atoms: C_6  and  O_5 
REMARK    5  A    between atoms: C_6  and  C_8 
REMARK       I    between atoms: C_8  and  N_10 
REMARK    6  A    between atoms: N_10  and  N_11 
REMARK       I    between atoms: N_11  and  C_12 
REMARK    7  A    between atoms: C_12  and  C_14 
REMARK    8  A    between atoms: C_23  and  O_24 
ROOT
ATOM      1  N   UNL d   1      25.934 -16.275  -2.759  0.00  0.00    -0.263 N 
ATOM      2  C   UNL d   1      25.954 -15.369  -3.803  0.00  0.00     0.272 C 
ATOM      3  O   UNL d   1      24.931 -14.824  -4.229  0.00  0.00    -0.266 OA
ATOM      4  H   UNL d   1      26.776 -16.732  -2.410  0.00  0.00     0.190 HD
ENDROOT
BRANCH   2   5
ATOM      5  C   UNL d   1      27.280 -15.035  -4.404  0.00  0.00     0.067 A 
ATOM      6  C   UNL d   1      27.306 -14.208  -5.540  0.00  0.00     0.032 A 
ATOM      7  C   UNL d   1      28.508 -13.924  -6.218  0.00  0.00    -0.025 A 
ATOM      8  C   UNL d   1      28.533 -13.087  -7.349  0.00  0.00     0.012 A 
ATOM      9  C   UNL d   1      29.715 -14.500  -5.762  0.00  0.00    -0.023 A 
ATOM     10  C   UNL d   1      29.723 -12.830  -8.033  0.00  0.00     0.001 A 
ATOM     11  C   UNL d   1      30.909 -13.413  -7.598  0.00  0.00     0.001 A 
ATOM     12  C   UNL d   1      30.907 -14.239  -6.470  0.00  0.00     0.012 A 
ATOM     13  C   UNL d   1      29.687 -15.320  -4.615  0.00  0.00     0.049 A 
ATOM     14  C   UNL d   1      28.483 -15.575  -3.941  0.00  0.00     0.082 A 
BRANCH  14  15
ATOM     15  O   UNL d   1      28.485 -16.379  -2.833  0.00  0.00    -0.360 OA
ATOM     16  H   UNL d   1      29.319 -16.879  -2.791  0.00  0.00     0.217 HD
ENDBRANCH  14  15
ENDBRANCH   2   5
BRANCH   1  17
ATOM     17  N   UNL d   1      24.696 -16.771  -2.292  0.00  0.00    -0.265 N 
ATOM     18  C   UNL d   1      24.691 -17.650  -1.212  0.00  0.00     0.264 C 
ATOM     19  O   UNL d   1      25.727 -18.189  -0.817  0.00  0.00    -0.269 OA
ATOM     20  H   UNL d   1      23.878 -16.245  -2.596  0.00  0.00     0.190 HD
BRANCH  18  21
ATOM     21  C   UNL d   1      23.294 -17.863  -0.517  0.00  0.00     0.210 C 
ATOM     22  C   UNL d   1      22.504 -16.547  -0.523  0.00  0.00     0.050 C 
BRANCH  21  23
ATOM     23  O   UNL d   1      22.393 -18.849  -1.034  0.00  0.00    -0.377 OA
BRANCH  23  24
ATOM     24  C   UNL d   1      21.384 -19.228  -0.115  0.00  0.00     0.168 C 
BRANCH  24  25
ATOM     25  C   UNL d   1      20.024 -19.303  -0.760  0.00  0.00     0.026 C 
BRANCH  25  26
ATOM     26  C   UNL d   1      19.114 -20.144   0.135  0.00  0.00    -0.002 C 
ATOM     27  C   UNL d   1      19.585 -20.074   1.568  0.00  0.00     0.005 C 
ENDBRANCH  25  26
ENDBRANCH  24  25
ENDBRANCH  23  24
ENDBRANCH  21  23
ENDBRANCH  18  21
ENDBRANCH   1  17
TORSDOF 8
ENDMDL
MODEL 4
REMARK VINA RESULT:    -6.803      1.701      2.916
REMARK INTER + INTRA:         -11.344
REMARK INTER:                  -9.190
REMARK INTRA:                  -2.155
REMARK CONF_INDEPENDENT:        2.386
REMARK UNBOUND:                -2.155
REMARK  8 active torsions:
REMARK  status: ('A' for Active; 'I' for Inactive)
REMARK    1  A    between atoms: C_2  and  C_3 
REMARK    2  A    between atoms: C_3  and  C_4 
REMARK    3  A    between atoms: C_4  and  O_5 
REMARK    4  A    between atoms: C_6  and  O_5 
REMARK    5  A    between atoms: C_6  and  C_8 
REMARK       I    between atoms: C_8  and  N_10 
REMARK    6  A    between atoms: N_10  and  N_11 
REMARK       I    between atoms: N_11  and  C_12 
REMARK    7  A    between atoms: C_12  and  C_14 
REMARK    8  A    between atoms: C_23  and  O_24 
ROOT
ATOM      1  N   UNL d   1      25.910 -15.258  -3.245  0.00  0.00    -0.263 N 
ATOM      2  C   UNL d   1      25.257 -14.276  -3.967  0.00  0.00     0.272 C 
ATOM      3  O   UNL d   1      24.043 -14.075  -3.867  0.00  0.00    -0.266 OA
ATOM      4  H   UNL d   1      26.911 -15.432  -3.332  0.00  0.00     0.190 HD
ENDROOT
BRANCH   2   5
ATOM      5  C   UNL d   1      26.080 -13.424  -4.878  0.00  0.00     0.067 A 
ATOM      6  C   UNL d   1      25.675 -12.096  -5.091  0.00  0.00     0.032 A 
ATOM      7  C   UNL d   1      26.344 -11.258  -6.006  0.00  0.00    -0.025 A 
ATOM      8  C   UNL d   1      25.943  -9.925  -6.210  0.00  0.00     0.012 A 
ATOM      9  C   UNL d   1      27.435 -11.769  -6.745  0.00  0.00    -0.023 A 
ATOM     10  C   UNL d   1      26.593  -9.108  -7.138  0.00  0.00     0.001 A 
ATOM     11  C   UNL d   1      27.653  -9.616  -7.881  0.00  0.00     0.001 A 
ATOM     12  C   UNL d   1      28.074 -10.934  -7.685  0.00  0.00     0.012 A 
ATOM     13  C   UNL d   1      27.845 -13.099  -6.519  0.00  0.00     0.049 A 
ATOM     14  C   UNL d   1      27.179 -13.912  -5.589  0.00  0.00     0.082 A 
BRANCH  14  15
ATOM     15  O   UNL d   1      27.598 -15.200  -5.395  0.00  0.00    -0.360 OA
ATOM     16  H   UNL d   1      28.510 -15.203  -5.056  0.00  0.00     0.217 HD
ENDBRANCH  14  15
ENDBRANCH   2   5
BRANCH   1  17
ATOM     17  N   UNL d   1      25.155 -16.213  -2.528  0.00  0.00    -0.265 N 
ATOM     18  C   UNL d   1      25.810 -17.040  -1.619  0.00  0.00     0.264 C 
ATOM     19  O   UNL d   1      27.040 -17.130  -1.603  0.00  0.00    -0.269 OA
ATOM     20  H   UNL d   1      24.149 -16.049  -2.519  0.00  0.00     0.190 HD
BRANCH  18  21
ATOM     21  C   UNL d   1      24.880 -17.801  -0.602  0.00  0.00     0.210 C 
ATOM     22  C   UNL d   1      25.686 -18.200   0.641  0.00  0.00     0.050 C 
BRANCH  21  23
ATOM     23  O   UNL d   1      23.706 -17.152  -0.101  0.00  0.00    -0.377 OA
BRANCH  23  24
ATOM     24  C   UNL d   1      22.522 -17.522  -0.785  0.00  0.00     0.168 C 
BRANCH  24  25
ATOM     25  C   UNL d   1      22.126 -18.950  -0.511  0.00  0.00     0.026 C 
BRANCH  25  26
ATOM     26  C   UNL d   1      20.661 -19.127  -0.905  0.00  0.00    -0.002 C 
ATOM     27  C   UNL d   1      19.894 -19.776   0.221  0.00  0.00     0.005 C 
ENDBRANCH  25  26
ENDBRANCH  24  25
ENDBRANCH  23  24
ENDBRANCH  21  23
ENDBRANCH  18  21
ENDBRANCH   1  17
TORSDOF 8
ENDMDL
MODEL 5
REMARK VINA RESULT:    -6.701      7.107      9.572
REMARK INTER + INTRA:         -10.968
REMARK INTER:                  -9.087
REMARK INTRA:                  -1.881
REMARK CONF_INDEPENDENT:        2.386
REMARK UNBOUND:                -1.881
REMARK  8 active torsions:
REMARK  status: ('A' for Active; 'I' for Inactive)
REMARK    1  A    between atoms: C_2  and  C_3 
REMARK    2  A    between atoms: C_3  and  C_4 
REMARK    3  A    between atoms: C_4  and  O_5 
REMARK    4  A    between atoms: C_6  and  O_5 
REMARK    5  A    between atoms: C_6  and  C_8 
REMARK       I    between atoms: C_8  and  N_10 
REMARK    6  A    between atoms: N_10  and  N_11 
REMARK       I    between atoms: N_11  and  C_12 
REMARK    7  A    between atoms: C_12  and  C_14 
REMARK    8  A    between atoms: C_23  and  O_24 
ROOT
ATOM      1  N   UNL d   1      27.656 -14.733   2.411  0.00  0.00    -0.263 N 
ATOM      2  C   UNL d   1      27.474 -13.537   3.082  0.00  0.00     0.272 C 
ATOM      3  O   UNL d   1      26.925 -12.562   2.561  0.00  0.00    -0.266 OA
ATOM      4  H   UNL d   1      28.116 -15.538   2.835  0.00  0.00     0.190 HD
ENDROOT
BRANCH   2   5
ATOM      5  C   UNL d   1      27.946 -13.459   4.497  0.00  0.00     0.067 A 
ATOM      6  C   UNL d   1      28.132 -12.188   5.066  0.00  0.00     0.032 A 
ATOM      7  C   UNL d   1      28.661 -12.031   6.363  0.00  0.00    -0.025 A 
ATOM      8  C   UNL d   1      28.837 -10.757   6.934  0.00  0.00     0.012 A 
ATOM      9  C   UNL d   1      29.036 -13.175   7.103  0.00  0.00    -0.023 A 
ATOM     10  C   UNL d   1      29.387 -10.606   8.209  0.00  0.00     0.001 A 
ATOM     11  C   UNL d   1      29.776 -11.730   8.930  0.00  0.00     0.001 A 
ATOM     12  C   UNL d   1      29.600 -13.004   8.384  0.00  0.00     0.012 A 
ATOM     13  C   UNL d   1      28.837 -14.449   6.533  0.00  0.00     0.049 A 
ATOM     14  C   UNL d   1      28.289 -14.587   5.247  0.00  0.00     0.082 A 
BRANCH  14  15
ATOM     15  O   UNL d   1      28.112 -15.836   4.719  0.00  0.00    -0.360 OA
ATOM     16  H   UNL d   1      28.953 -16.162   4.355  0.00  0.00     0.217 HD
ENDBRANCH  14  15
ENDBRANCH   2   5
BRANCH   1  17
ATOM     17  N   UNL d   1      27.412 -14.795   1.021  0.00  0.00    -0.265 N 
ATOM     18  C   UNL d   1      27.171 -16.036   0.438  0.00  0.00     0.264 C 
ATOM     19  O   UNL d   1      27.403 -17.086   1.042  0.00  0.00    -0.269 OA
ATOM     20  H   UNL d   1      27.157 -13.908   0.588  0.00  0.00     0.190 HD
BRANCH  18  21
ATOM     21  C   UNL d   1      26.545 -15.998  -1.007  0.00  0.00     0.210 C 
ATOM     22  C   UNL d   1      27.661 -16.061  -2.058  0.00  0.00     0.050 C 
BRANCH  21  23
ATOM     23  O   UNL d   1      25.602 -17.004  -1.392  0.00  0.00    -0.377 OA
BRANCH  23  24
ATOM     24  C   UNL d   1      24.494 -17.104  -0.515  0.00  0.00     0.168 C 
BRANCH  24  25
ATOM     25  C   UNL d   1      23.666 -18.335  -0.780  0.00  0.00     0.026 C 
BRANCH  25  26
ATOM     26  C   UNL d   1      22.286 -18.129  -0.158  0.00  0.00    -0.002 C 
ATOM     27  C   UNL d   1      21.256 -18.952  -0.893  0.00  0.00     0.005 C 
ENDBRANCH  25  26
ENDBRANCH  24  25
ENDBRANCH  23  24
ENDBRANCH  21  23
ENDBRANCH  18  21
ENDBRANCH   1  17
TORSDOF 8
ENDMDL
MODEL 6
REMARK VINA RESULT:    -6.660      1.302      1.805
REMARK INTER + INTRA:         -10.963
REMARK INTER:                  -9.046
REMARK INTRA:                  -1.917
REMARK CONF_INDEPENDENT:        2.386
REMARK UNBOUND:                -1.917
REMARK  8 active torsions:
REMARK  status: ('A' for Active; 'I' for Inactive)
REMARK    1  A    between atoms: C_2  and  C_3 
REMARK    2  A    between atoms: C_3  and  C_4 
REMARK    3  A    between atoms: C_4  and  O_5 
REMARK    4  A    between atoms: C_6  and  O_5 
REMARK    5  A    between atoms: C_6  and  C_8 
REMARK       I    between atoms: C_8  and  N_10 
REMARK    6  A    between atoms: N_10  and  N_11 
REMARK       I    between atoms: N_11  and  C_12 
REMARK    7  A    between atoms: C_12  and  C_14 
REMARK    8  A    between atoms: C_23  and  O_24 
ROOT
ATOM      1  N   UNL d   1      25.592 -15.056  -3.329  0.00  0.00    -0.263 N 
ATOM      2  C   UNL d   1      26.036 -15.011  -4.638  0.00  0.00     0.272 C 
ATOM      3  O   UNL d   1      25.888 -15.954  -5.422  0.00  0.00    -0.266 OA
ATOM      4  H   UNL d   1      25.720 -14.282  -2.677  0.00  0.00     0.190 HD
ENDROOT
BRANCH   2   5
ATOM      5  C   UNL d   1      26.695 -13.753  -5.103  0.00  0.00     0.067 A 
ATOM      6  C   UNL d   1      27.732 -13.855  -6.044  0.00  0.00     0.032 A 
ATOM      7  C   UNL d   1      28.463 -12.725  -6.462  0.00  0.00    -0.025 A 
ATOM      8  C   UNL d   1      29.495 -12.828  -7.413  0.00  0.00     0.012 A 
ATOM      9  C   UNL d   1      28.164 -11.461  -5.906  0.00  0.00    -0.023 A 
ATOM     10  C   UNL d   1      30.233 -11.709  -7.803  0.00  0.00     0.001 A 
ATOM     11  C   UNL d   1      29.955 -10.468  -7.241  0.00  0.00     0.001 A 
ATOM     12  C   UNL d   1      28.927 -10.343  -6.303  0.00  0.00     0.012 A 
ATOM     13  C   UNL d   1      27.115 -11.361  -4.969  0.00  0.00     0.049 A 
ATOM     14  C   UNL d   1      26.384 -12.495  -4.581  0.00  0.00     0.082 A 
BRANCH  14  15
ATOM     15  O   UNL d   1      25.374 -12.368  -3.667  0.00  0.00    -0.360 OA
ATOM     16  H   UNL d   1      24.698 -11.756  -4.005  0.00  0.00     0.217 HD
ENDBRANCH  14  15
ENDBRANCH   2   5
BRANCH   1  17
ATOM     17  N   UNL d   1      25.146 -16.282  -2.787  0.00  0.00    -0.265 N 
ATOM     18  C   UNL d   1      24.829 -16.341  -1.433  0.00  0.00     0.264 C 
ATOM     19  O   UNL d   1      25.154 -15.438  -0.658  0.00  0.00    -0.269 OA
ATOM     20  H   UNL d   1      24.825 -16.965  -3.472  0.00  0.00     0.190 HD
BRANCH  18  21
ATOM     21  C   UNL d   1      23.998 -17.600  -0.984  0.00  0.00     0.210 C 
ATOM     22  C   UNL d   1      24.616 -18.205   0.284  0.00  0.00     0.050 C 
BRANCH  21  23
ATOM     23  O   UNL d   1      22.603 -17.457  -0.695  0.00  0.00    -0.377 OA
BRANCH  23  24
ATOM     24  C   UNL d   1      21.994 -18.654  -0.244  0.00  0.00     0.168 C 
BRANCH  24  25
ATOM     25  C   UNL d   1      20.921 -19.138  -1.186  0.00  0.00     0.026 C 
BRANCH  25  26
ATOM     26  C   UNL d   1      19.628 -19.313  -0.391  0.00  0.00    -0.002 C 
ATOM     27  C   UNL d   1      19.911 -20.013   0.916  0.00  0.00     0.005 C 
ENDBRANCH  25  26
ENDBRANCH  24  25
ENDBRANCH  23  24
ENDBRANCH  21  23
ENDBRANCH  18  21
ENDBRANCH   1  17
TORSDOF 8
ENDMDL
MODEL 7
REMARK VINA RESULT:    -6.464      2.265      2.467
REMARK INTER + INTRA:         -10.834
REMARK INTER:                  -8.850
REMARK INTRA:                  -1.984
REMARK CONF_INDEPENDENT:        2.386
REMARK UNBOUND:                -1.984
REMARK  8 active torsions:
REMARK  status: ('A' for Active; 'I' for Inactive)
REMARK    1  A    between atoms: C_2  and  C_3 
REMARK    2  A    between atoms: C_3  and  C_4 
REMARK    3  A    between atoms: C_4  and  O_5 
REMARK    4  A    between atoms: C_6  and  O_5 
REMARK    5  A    between atoms: C_6  and  C_8 
REMARK       I    between atoms: C_8  and  N_10 
REMARK    6  A    between atoms: N_10  and  N_11 
REMARK       I    between atoms: N_11  and  C_12 
REMARK    7  A    between atoms: C_12  and  C_14 
REMARK    8  A    between atoms: C_23  and  O_24 
ROOT
ATOM      1  N   UNL d   1      25.924 -16.164  -2.323  0.00  0.00    -0.263 N 
ATOM      2  C   UNL d   1      26.080 -15.316  -3.405  0.00  0.00     0.272 C 
ATOM      3  O   UNL d   1      25.121 -14.840  -4.019  0.00  0.00    -0.266 OA
ATOM      4  H   UNL d   1      26.714 -16.565  -1.819  0.00  0.00     0.190 HD
ENDROOT
BRANCH   2   5
ATOM      5  C   UNL d   1      27.474 -14.959  -3.809  0.00  0.00     0.067 A 
ATOM      6  C   UNL d   1      28.391 -14.619  -2.800  0.00  0.00     0.032 A 
ATOM      7  C   UNL d   1      29.696 -14.183  -3.107  0.00  0.00    -0.025 A 
ATOM      8  C   UNL d   1      30.617 -13.853  -2.095  0.00  0.00     0.012 A 
ATOM      9  C   UNL d   1      30.087 -14.061  -4.459  0.00  0.00    -0.023 A 
ATOM     10  C   UNL d   1      31.899 -13.395  -2.406  0.00  0.00     0.001 A 
ATOM     11  C   UNL d   1      32.278 -13.254  -3.736  0.00  0.00     0.001 A 
ATOM     12  C   UNL d   1      31.382 -13.587  -4.756  0.00  0.00     0.012 A 
ATOM     13  C   UNL d   1      29.167 -14.413  -5.468  0.00  0.00     0.049 A 
ATOM     14  C   UNL d   1      27.878 -14.866  -5.143  0.00  0.00     0.082 A 
BRANCH  14  15
ATOM     15  O   UNL d   1      27.006 -15.197  -6.143  0.00  0.00    -0.360 OA
ATOM     16  H   UNL d   1      26.092 -15.032  -5.851  0.00  0.00     0.217 HD
ENDBRANCH  14  15
ENDBRANCH   2   5
BRANCH   1  17
ATOM     17  N   UNL d   1      24.645 -16.686  -2.028  0.00  0.00    -0.265 N 
ATOM     18  C   UNL d   1      24.518 -17.597  -0.983  0.00  0.00     0.264 C 
ATOM     19  O   UNL d   1      25.504 -18.136  -0.477  0.00  0.00    -0.269 OA
ATOM     20  H   UNL d   1      23.864 -16.159  -2.417  0.00  0.00     0.190 HD
BRANCH  18  21
ATOM     21  C   UNL d   1      23.048 -17.844  -0.473  0.00  0.00     0.210 C 
ATOM     22  C   UNL d   1      22.254 -16.532  -0.521  0.00  0.00     0.050 C 
BRANCH  21  23
ATOM     23  O   UNL d   1      22.227 -18.811  -1.137  0.00  0.00    -0.377 OA
BRANCH  23  24
ATOM     24  C   UNL d   1      21.239 -19.383  -0.297  0.00  0.00     0.168 C 
BRANCH  24  25
ATOM     25  C   UNL d   1      19.861 -19.304  -0.902  0.00  0.00     0.026 C 
BRANCH  25  26
ATOM     26  C   UNL d   1      18.894 -20.064   0.005  0.00  0.00    -0.002 C 
ATOM     27  C   UNL d   1      19.453 -20.148   1.405  0.00  0.00     0.005 C 
ENDBRANCH  25  26
ENDBRANCH  24  25
ENDBRANCH  23  24
ENDBRANCH  21  23
ENDBRANCH  18  21
ENDBRANCH   1  17
TORSDOF 8
ENDMDL
MODEL 8
REMARK VINA RESULT:    -6.360      4.282      6.142
REMARK INTER + INTRA:         -10.694
REMARK INTER:                  -8.746
REMARK INTRA:                  -1.948
REMARK CONF_INDEPENDENT:        2.386
REMARK UNBOUND:                -1.948
REMARK  8 active torsions:
REMARK  status: ('A' for Active; 'I' for Inactive)
REMARK    1  A    between atoms: C_2  and  C_3 
REMARK    2  A    between atoms: C_3  and  C_4 
REMARK    3  A    between atoms: C_4  and  O_5 
REMARK    4  A    between atoms: C_6  and  O_5 
REMARK    5  A    between atoms: C_6  and  C_8 
REMARK       I    between atoms: C_8  and  N_10 
REMARK    6  A    between atoms: N_10  and  N_11 
REMARK       I    between atoms: N_11  and  C_12 
REMARK    7  A    between atoms: C_12  and  C_14 
REMARK    8  A    between atoms: C_23  and  O_24 
ROOT
ATOM      1  N   UNL d   1      25.513 -11.998  -3.857  0.00  0.00    -0.263 N 
ATOM      2  C   UNL d   1      26.074 -10.783  -3.509  0.00  0.00     0.272 C 
ATOM      3  O   UNL d   1      26.953 -10.679  -2.648  0.00  0.00    -0.266 OA
ATOM      4  H   UNL d   1      24.782 -12.086  -4.562  0.00  0.00     0.190 HD
ENDROOT
BRANCH   2   5
ATOM      5  C   UNL d   1      25.598  -9.567  -4.237  0.00  0.00     0.067 A 
ATOM      6  C   UNL d   1      25.531  -8.355  -3.531  0.00  0.00     0.032 A 
ATOM      7  C   UNL d   1      25.006  -7.187  -4.120  0.00  0.00    -0.025 A 
ATOM      8  C   UNL d   1      24.950  -5.970  -3.415  0.00  0.00     0.012 A 
ATOM      9  C   UNL d   1      24.514  -7.238  -5.444  0.00  0.00    -0.023 A 
ATOM     10  C   UNL d   1      24.404  -4.823  -3.996  0.00  0.00     0.001 A 
ATOM     11  C   UNL d   1      23.900  -4.877  -5.290  0.00  0.00     0.001 A 
ATOM     12  C   UNL d   1      23.957  -6.073  -6.011  0.00  0.00     0.012 A 
ATOM     13  C   UNL d   1      24.594  -8.455  -6.152  0.00  0.00     0.049 A 
ATOM     14  C   UNL d   1      25.139  -9.603  -5.556  0.00  0.00     0.082 A 
BRANCH  14  15
ATOM     15  O   UNL d   1      25.199 -10.770  -6.266  0.00  0.00    -0.360 OA
ATOM     16  H   UNL d   1      24.514 -11.385  -5.950  0.00  0.00     0.217 HD
ENDBRANCH  14  15
ENDBRANCH   2   5
BRANCH   1  17
ATOM     17  N   UNL d   1      25.782 -13.139  -3.068  0.00  0.00    -0.265 N 
ATOM     18  C   UNL d   1      25.271 -14.369  -3.474  0.00  0.00     0.264 C 
ATOM     19  O   UNL d   1      24.406 -14.449  -4.348  0.00  0.00    -0.269 OA
ATOM     20  H   UNL d   1      26.553 -13.037  -2.410  0.00  0.00     0.190 HD
BRANCH  18  21
ATOM     21  C   UNL d   1      25.907 -15.631  -2.778  0.00  0.00     0.210 C 
ATOM     22  C   UNL d   1      26.737 -15.192  -1.564  0.00  0.00     0.050 C 
BRANCH  21  23
ATOM     23  O   UNL d   1      25.052 -16.674  -2.297  0.00  0.00    -0.377 OA
BRANCH  23  24
ATOM     24  C   UNL d   1      24.595 -16.463  -0.972  0.00  0.00     0.168 C 
BRANCH  24  25
ATOM     25  C   UNL d   1      23.170 -16.915  -0.782  0.00  0.00     0.026 C 
BRANCH  25  26
ATOM     26  C   UNL d   1      23.113 -18.427  -0.991  0.00  0.00    -0.002 C 
ATOM     27  C   UNL d   1      21.733 -18.945  -0.668  0.00  0.00     0.005 C 
ENDBRANCH  25  26
ENDBRANCH  24  25
ENDBRANCH  23  24
ENDBRANCH  21  23
ENDBRANCH  18  21
ENDBRANCH   1  17
TORSDOF 8
ENDMDL
MODEL 9
REMARK VINA RESULT:    -6.069      3.731      8.623
REMARK INTER + INTRA:         -10.598
REMARK INTER:                  -8.455
REMARK INTRA:                  -2.143
REMARK CONF_INDEPENDENT:        2.386
REMARK UNBOUND:                -2.143
REMARK  8 active torsions:
REMARK  status: ('A' for Active; 'I' for Inactive)
REMARK    1  A    between atoms: C_2  and  C_3 
REMARK    2  A    between atoms: C_3  and  C_4 
REMARK    3  A    between atoms: C_4  and  O_5 
REMARK    4  A    between atoms: C_6  and  O_5 
REMARK    5  A    between atoms: C_6  and  C_8 
REMARK       I    between atoms: C_8  and  N_10 
REMARK    6  A    between atoms: N_10  and  N_11 
REMARK       I    between atoms: N_11  and  C_12 
REMARK    7  A    between atoms: C_12  and  C_14 
REMARK    8  A    between atoms: C_23  and  O_24 
ROOT
ATOM      1  N   UNL d   1      26.047 -12.605  -3.910  0.00  0.00    -0.263 N 
ATOM      2  C   UNL d   1      25.359 -13.804  -3.888  0.00  0.00     0.272 C 
ATOM      3  O   UNL d   1      24.413 -14.041  -4.645  0.00  0.00    -0.266 OA
ATOM      4  H   UNL d   1      26.824 -12.404  -3.281  0.00  0.00     0.190 HD
ENDROOT
BRANCH   2   5
ATOM      5  C   UNL d   1      25.815 -14.846  -2.918  0.00  0.00     0.067 A 
ATOM      6  C   UNL d   1      24.851 -15.701  -2.359  0.00  0.00     0.032 A 
ATOM      7  C   UNL d   1      25.188 -16.646  -1.369  0.00  0.00    -0.025 A 
ATOM      8  C   UNL d   1      24.222 -17.508  -0.818  0.00  0.00     0.012 A 
ATOM      9  C   UNL d   1      26.522 -16.723  -0.909  0.00  0.00    -0.023 A 
ATOM     10  C   UNL d   1      24.558 -18.425   0.181  0.00  0.00     0.001 A 
ATOM     11  C   UNL d   1      25.865 -18.488   0.650  0.00  0.00     0.001 A 
ATOM     12  C   UNL d   1      26.841 -17.647   0.108  0.00  0.00     0.012 A 
ATOM     13  C   UNL d   1      27.489 -15.871  -1.481  0.00  0.00     0.049 A 
ATOM     14  C   UNL d   1      27.138 -14.950  -2.481  0.00  0.00     0.082 A 
BRANCH  14  15
ATOM     15  O   UNL d   1      28.097 -14.133  -3.014  0.00  0.00    -0.360 OA
ATOM     16  H   UNL d   1      28.854 -14.073  -2.406  0.00  0.00     0.217 HD
ENDBRANCH  14  15
ENDBRANCH   2   5
BRANCH   1  17
ATOM     17  N   UNL d   1      25.535 -11.524  -4.662  0.00  0.00    -0.265 N 
ATOM     18  C   UNL d   1      26.289 -10.357  -4.757  0.00  0.00     0.264 C 
ATOM     19  O   UNL d   1      27.256 -10.155  -4.018  0.00  0.00    -0.269 OA
ATOM     20  H   UNL d   1      24.782 -11.764  -5.305  0.00  0.00     0.190 HD
BRANCH  18  21
ATOM     21  C   UNL d   1      25.851  -9.356  -5.890  0.00  0.00     0.210 C 
ATOM     22  C   UNL d   1      26.522  -9.745  -7.215  0.00  0.00     0.050 C 
BRANCH  21  23
ATOM     23  O   UNL d   1      24.461  -9.206  -6.198  0.00  0.00    -0.377 OA
BRANCH  23  24
ATOM     24  C   UNL d   1      23.785  -8.311  -5.333  0.00  0.00     0.168 C 
BRANCH  24  25
ATOM     25  C   UNL d   1      23.130  -7.179  -6.081  0.00  0.00     0.026 C 
BRANCH  25  26
ATOM     26  C   UNL d   1      22.167  -6.469  -5.132  0.00  0.00    -0.002 C 
ATOM     27  C   UNL d   1      21.075  -5.781  -5.916  0.00  0.00     0.005 C 
ENDBRANCH  25  26
ENDBRANCH  24  25
ENDBRANCH  23  24
ENDBRANCH  21  23
ENDBRANCH  18  21
ENDBRANCH   1  17
TORSDOF 8
ENDMDL
