MODEL 1
REMARK VINA RESULT:    -7.346      0.000      0.000
REMARK INTER + INTRA:         -14.319
REMARK INTER:                 -10.329
REMARK INTRA:                  -3.990
REMARK CONF_INDEPENDENT:        2.983
REMARK UNBOUND:                -3.990
REMARK  10 active torsions:
REMARK  status: ('A' for Active; 'I' for Inactive)
REMARK    1  A    between atoms: O_2  and  C_3 
REMARK    2  A    between atoms: C_3  and  C_5 
REMARK    3  A    between atoms: C_5  and  C_6 
REMARK    4  A    between atoms: C_5  and  N_12 
REMARK    5  A    between atoms: C_6  and  C_7 
REMARK       I    between atoms: N_12  and  C_13 
REMARK    6  A    between atoms: C_13  and  C_15 
REMARK    7  A    between atoms: C_15  and  O_16 
REMARK    8  A    between atoms: O_16  and  C_17 
REMARK    9  A    between atoms: C_19  and  O_20 
REMARK   10  A    between atoms: C_26  and  C_27 
ROOT
ATOM      1  C   UNL d   1      28.508 -13.167   4.735  0.00  0.00     0.074 A 
ATOM      2  C   UNL d   1      29.644 -13.924   4.450  0.00  0.00     0.074 A 
ATOM      3  C   UNL d   1      29.858 -14.400   3.147  0.00  0.00     0.085 A 
ATOM      4  C   UNL d   1      28.962 -14.094   2.113  0.00  0.00     0.077 A 
ATOM      5  C   UNL d   1      27.844 -13.306   2.398  0.00  0.00     0.088 A 
ATOM      6  C   UNL d   1      27.602 -12.882   3.710  0.00  0.00     0.074 A 
ATOM      7  O   UNL d   1      26.873 -12.970   1.491  0.00  0.00    -0.349 OA
ATOM      8  C   UNL d   1      27.238 -13.150   0.119  0.00  0.00     0.193 C 
ATOM      9  C   UNL d   1      27.921 -14.478  -0.181  0.00  0.00     0.118 C 
ATOM     10  C   UNL d   1      29.102 -14.658   0.742  0.00  0.00     0.175 C 
ATOM     11  O   UNL d   1      30.091 -15.286   0.377  0.00  0.00    -0.291 OA
ENDROOT
BRANCH   1  12
ATOM     12  O   UNL d   1      28.132 -12.754   5.982  0.00  0.00    -0.342 OA
BRANCH  12  13
ATOM     13  C   UNL d   1      28.215 -11.360   6.286  0.00  0.00     0.278 C 
BRANCH  13  14
ATOM     14  C   UNL d   1      28.564 -11.204   7.782  0.00  0.00     0.242 C 
ATOM     15  N   UNL d   1      28.575 -12.363   8.545  0.00  0.00    -0.345 N 
ATOM     16  H   UNL d   1      28.253 -13.245   8.151  0.00  0.00     0.163 HD
ATOM     17  O   UNL d   1      28.844 -10.123   8.300  0.00  0.00    -0.271 OA
BRANCH  15  18
ATOM     18  C   UNL d   1      28.897 -12.345   9.990  0.00  0.00     0.190 C 
BRANCH  18  19
ATOM     19  C   UNL d   1      28.366 -13.647  10.668  0.00  0.00     0.281 C 
ATOM     20  O   UNL d   1      27.895 -13.684  11.802  0.00  0.00    -0.263 OA
BRANCH  19  21
ATOM     21  O   UNL d   1      28.507 -14.736   9.863  0.00  0.00    -0.325 OA
ATOM     22  C   UNL d   1      29.681 -15.553  10.015  0.00  0.00     0.213 C 
ENDBRANCH  19  21
ENDBRANCH  18  19
BRANCH  18  23
ATOM     23  C   UNL d   1      30.416 -12.173  10.214  0.00  0.00     0.093 C 
BRANCH  23  24
ATOM     24  C   UNL d   1      31.192 -11.987   8.961  0.00  0.00     0.028 A 
ATOM     25  C   UNL d   1      31.896 -12.877   8.181  0.00  0.00     0.114 A 
ATOM     26  N   UNL d   1      32.357 -12.194   7.091  0.00  0.00    -0.360 N 
ATOM     27  C   UNL d   1      32.072 -10.896   7.205  0.00  0.00     0.180 A 
ATOM     28  H   UNL d   1      32.866 -12.617   6.318  0.00  0.00     0.166 HD
ATOM     29  N   UNL d   1      31.350 -10.762   8.322  0.00  0.00    -0.354 N 
ATOM     30  H   UNL d   1      30.990  -9.872   8.665  0.00  0.00     0.166 HD
ENDBRANCH  23  24
ENDBRANCH  18  23
ENDBRANCH  15  18
ENDBRANCH  13  14
ENDBRANCH  12  13
ENDBRANCH   1  12
BRANCH   3  31
ATOM     31  O   UNL d   1      30.938 -15.197   2.899  0.00  0.00    -0.360 OA
ATOM     32  H   UNL d   1      30.811 -15.755   2.118  0.00  0.00     0.217 HD
ENDBRANCH   3  31
BRANCH   9  33
ATOM     33  C   UNL d   1      26.971 -15.657  -0.114  0.00  0.00    -0.042 A 
ATOM     34  C   UNL d   1      27.382 -16.866   0.462  0.00  0.00     0.011 A 
ATOM     35  C   UNL d   1      26.498 -17.946   0.534  0.00  0.00     0.040 A 
ATOM     36  C   UNL d   1      25.204 -17.829   0.029  0.00  0.00     0.102 A 
ATOM     37  C   UNL d   1      24.786 -16.628  -0.533  0.00  0.00     0.102 A 
ATOM     38  O   UNL d   1      24.390 -18.926   0.124  0.00  0.00    -0.346 OA
ATOM     39  C   UNL d   1      25.663 -15.561  -0.612  0.00  0.00     0.047 A 
ATOM     40  O   UNL d   1      23.534 -16.408  -1.045  0.00  0.00    -0.346 OA
ATOM     41  C   UNL d   1      22.619 -17.409  -0.603  0.00  0.00     0.202 C 
ATOM     42  C   UNL d   1      23.238 -18.792  -0.717  0.00  0.00     0.202 C 
ENDBRANCH   9  33
TORSDOF 10
ENDMDL
MODEL 2
REMARK VINA RESULT:    -7.304      7.869     11.941
REMARK INTER + INTRA:         -14.502
REMARK INTER:                 -10.287
REMARK INTRA:                  -4.215
REMARK CONF_INDEPENDENT:        2.983
REMARK UNBOUND:                -4.215
REMARK  10 active torsions:
REMARK  status: ('A' for Active; 'I' for Inactive)
REMARK    1  A    between atoms: O_2  and  C_3 
REMARK    2  A    between atoms: C_3  and  C_5 
REMARK    3  A    between atoms: C_5  and  C_6 
REMARK    4  A    between atoms: C_5  and  N_12 
REMARK    5  A    between atoms: C_6  and  C_7 
REMARK       I    between atoms: N_12  and  C_13 
REMARK    6  A    between atoms: C_13  and  C_15 
REMARK    7  A    between atoms: C_15  and  O_16 
REMARK    8  A    between atoms: O_16  and  C_17 
REMARK    9  A    between atoms: C_19  and  O_20 
REMARK   10  A    between atoms: C_26  and  C_27 
ROOT
ATOM      1  C   UNL d   1      28.363 -14.864  -5.488  0.00  0.00     0.074 A 
ATOM      2  C   UNL d   1      27.435 -13.845  -5.277  0.00  0.00     0.074 A 
ATOM      3  C   UNL d   1      26.969 -13.582  -3.979  0.00  0.00     0.085 A 
ATOM      4  C   UNL d   1      27.451 -14.308  -2.880  0.00  0.00     0.077 A 
ATOM      5  C   UNL d   1      28.406 -15.305  -3.096  0.00  0.00     0.088 A 
ATOM      6  C   UNL d   1      28.826 -15.605  -4.397  0.00  0.00     0.074 A 
ATOM      7  O   UNL d   1      28.927 -16.112  -2.117  0.00  0.00    -0.349 OA
ATOM      8  C   UNL d   1      28.730 -15.646  -0.779  0.00  0.00     0.193 C 
ATOM      9  C   UNL d   1      27.315 -15.163  -0.483  0.00  0.00     0.118 C 
ATOM     10  C   UNL d   1      26.913 -14.126  -1.505  0.00  0.00     0.175 C 
ATOM     11  O   UNL d   1      26.139 -13.221  -1.205  0.00  0.00    -0.291 OA
ENDROOT
BRANCH   1  12
ATOM     12  O   UNL d   1      28.795 -15.291  -6.712  0.00  0.00    -0.342 OA
BRANCH  12  13
ATOM     13  C   UNL d   1      30.131 -14.969  -7.106  0.00  0.00     0.278 C 
BRANCH  13  14
ATOM     14  C   UNL d   1      30.922 -16.284  -7.275  0.00  0.00     0.242 C 
ATOM     15  N   UNL d   1      30.400 -17.411  -6.658  0.00  0.00    -0.345 N 
ATOM     16  H   UNL d   1      29.600 -17.335  -6.033  0.00  0.00     0.163 HD
ATOM     17  O   UNL d   1      31.958 -16.367  -7.936  0.00  0.00    -0.271 OA
BRANCH  15  18
ATOM     18  C   UNL d   1      31.065 -18.732  -6.749  0.00  0.00     0.190 C 
BRANCH  18  19
ATOM     19  C   UNL d   1      30.601 -19.641  -5.568  0.00  0.00     0.281 C 
ATOM     20  O   UNL d   1      30.721 -20.864  -5.559  0.00  0.00    -0.263 OA
BRANCH  19  21
ATOM     21  O   UNL d   1      30.030 -18.922  -4.562  0.00  0.00    -0.325 OA
ATOM     22  C   UNL d   1      30.876 -18.092  -3.748  0.00  0.00     0.213 C 
ENDBRANCH  19  21
ENDBRANCH  18  19
BRANCH  18  23
ATOM     23  C   UNL d   1      30.783 -19.397  -8.115  0.00  0.00     0.093 C 
BRANCH  23  24
ATOM     24  C   UNL d   1      31.682 -20.537  -8.427  0.00  0.00     0.028 A 
ATOM     25  C   UNL d   1      32.782 -20.636  -9.250  0.00  0.00     0.114 A 
ATOM     26  N   UNL d   1      33.289 -21.896  -9.109  0.00  0.00    -0.360 N 
ATOM     27  C   UNL d   1      32.499 -22.628  -8.323  0.00  0.00     0.180 A 
ATOM     28  H   UNL d   1      34.138 -22.231  -9.561  0.00  0.00     0.166 HD
ATOM     29  N   UNL d   1      31.534 -21.810  -7.888  0.00  0.00    -0.354 N 
ATOM     30  H   UNL d   1      30.780 -22.098  -7.266  0.00  0.00     0.166 HD
ENDBRANCH  23  24
ENDBRANCH  18  23
ENDBRANCH  15  18
ENDBRANCH  13  14
ENDBRANCH  12  13
ENDBRANCH   1  12
BRANCH   3  31
ATOM     31  O   UNL d   1      26.009 -12.628  -3.797  0.00  0.00    -0.360 OA
ATOM     32  H   UNL d   1      26.065 -12.214  -2.924  0.00  0.00     0.217 HD
ENDBRANCH   3  31
BRANCH   9  33
ATOM     33  C   UNL d   1      26.311 -16.295  -0.407  0.00  0.00    -0.042 A 
ATOM     34  C   UNL d   1      26.683 -17.538   0.120  0.00  0.00     0.011 A 
ATOM     35  C   UNL d   1      25.749 -18.575   0.201  0.00  0.00     0.040 A 
ATOM     36  C   UNL d   1      24.443 -18.380  -0.246  0.00  0.00     0.102 A 
ATOM     37  C   UNL d   1      24.063 -17.144  -0.759  0.00  0.00     0.102 A 
ATOM     38  O   UNL d   1      23.579 -19.437  -0.145  0.00  0.00    -0.346 OA
ATOM     39  C   UNL d   1      24.990 -16.120  -0.847  0.00  0.00     0.047 A 
ATOM     40  O   UNL d   1      22.805 -16.847  -1.211  0.00  0.00    -0.346 OA
ATOM     41  C   UNL d   1      21.859 -17.814  -0.757  0.00  0.00     0.202 C 
ATOM     42  C   UNL d   1      22.401 -19.223  -0.933  0.00  0.00     0.202 C 
ENDBRANCH   9  33
TORSDOF 10
ENDMDL
MODEL 3
REMARK VINA RESULT:    -6.460      2.506      4.274
REMARK INTER + INTRA:         -14.760
REMARK INTER:                  -9.443
REMARK INTRA:                  -5.317
REMARK CONF_INDEPENDENT:        2.983
REMARK UNBOUND:                -5.317
REMARK  10 active torsions:
REMARK  status: ('A' for Active; 'I' for Inactive)
REMARK    1  A    between atoms: O_2  and  C_3 
REMARK    2  A    between atoms: C_3  and  C_5 
REMARK    3  A    between atoms: C_5  and  C_6 
REMARK    4  A    between atoms: C_5  and  N_12 
REMARK    5  A    between atoms: C_6  and  C_7 
REMARK       I    between atoms: N_12  and  C_13 
REMARK    6  A    between atoms: C_13  and  C_15 
REMARK    7  A    between atoms: C_15  and  O_16 
REMARK    8  A    between atoms: O_16  and  C_17 
REMARK    9  A    between atoms: C_19  and  O_20 
REMARK   10  A    between atoms: C_26  and  C_27 
ROOT
ATOM      1  C   UNL d   1      31.823 -14.951   2.071  0.00  0.00     0.074 A 
ATOM      2  C   UNL d   1      32.278 -16.251   1.853  0.00  0.00     0.074 A 
ATOM      3  C   UNL d   1      31.737 -17.015   0.807  0.00  0.00     0.085 A 
ATOM      4  C   UNL d   1      30.767 -16.476  -0.050  0.00  0.00     0.077 A 
ATOM      5  C   UNL d   1      30.340 -15.161   0.153  0.00  0.00     0.088 A 
ATOM      6  C   UNL d   1      30.838 -14.422   1.233  0.00  0.00     0.074 A 
ATOM      7  O   UNL d   1      29.372 -14.531  -0.585  0.00  0.00    -0.349 OA
ATOM      8  C   UNL d   1      29.063 -15.154  -1.835  0.00  0.00     0.193 C 
ATOM      9  C   UNL d   1      28.885 -16.665  -1.759  0.00  0.00     0.118 C 
ATOM     10  C   UNL d   1      30.101 -17.283  -1.109  0.00  0.00     0.175 C 
ATOM     11  O   UNL d   1      30.467 -18.414  -1.416  0.00  0.00    -0.291 OA
ENDROOT
BRANCH   1  12
ATOM     12  O   UNL d   1      32.183 -14.159   3.125  0.00  0.00    -0.342 OA
BRANCH  12  13
ATOM     13  C   UNL d   1      31.583 -12.867   3.234  0.00  0.00     0.278 C 
BRANCH  13  14
ATOM     14  C   UNL d   1      30.315 -12.987   4.106  0.00  0.00     0.242 C 
ATOM     15  N   UNL d   1      30.152 -14.171   4.811  0.00  0.00    -0.345 N 
ATOM     16  H   UNL d   1      30.783 -14.955   4.660  0.00  0.00     0.163 HD
ATOM     17  O   UNL d   1      29.480 -12.088   4.210  0.00  0.00    -0.271 OA
BRANCH  15  18
ATOM     18  C   UNL d   1      28.978 -14.406   5.685  0.00  0.00     0.190 C 
BRANCH  18  19
ATOM     19  C   UNL d   1      28.611 -13.092   6.443  0.00  0.00     0.281 C 
ATOM     20  O   UNL d   1      27.683 -12.354   6.121  0.00  0.00    -0.263 OA
BRANCH  19  21
ATOM     21  O   UNL d   1      29.452 -12.850   7.486  0.00  0.00    -0.325 OA
ATOM     22  C   UNL d   1      29.718 -13.916   8.413  0.00  0.00     0.213 C 
ENDBRANCH  19  21
ENDBRANCH  18  19
BRANCH  18  23
ATOM     23  C   UNL d   1      27.780 -14.938   4.866  0.00  0.00     0.093 C 
BRANCH  23  24
ATOM     24  C   UNL d   1      27.663 -14.339   3.512  0.00  0.00     0.028 A 
ATOM     25  C   UNL d   1      27.788 -14.889   2.256  0.00  0.00     0.114 A 
ATOM     26  N   UNL d   1      27.504 -13.908   1.348  0.00  0.00    -0.360 N 
ATOM     27  C   UNL d   1      27.318 -12.744   1.968  0.00  0.00     0.180 A 
ATOM     28  H   UNL d   1      27.467 -14.049   0.340  0.00  0.00     0.166 HD
ATOM     29  N   UNL d   1      27.392 -12.996   3.280  0.00  0.00    -0.354 N 
ATOM     30  H   UNL d   1      27.287 -12.286   4.004  0.00  0.00     0.166 HD
ENDBRANCH  23  24
ENDBRANCH  18  23
ENDBRANCH  15  18
ENDBRANCH  13  14
ENDBRANCH  12  13
ENDBRANCH   1  12
BRANCH   3  31
ATOM     31  O   UNL d   1      32.143 -18.309   0.649  0.00  0.00    -0.360 OA
ATOM     32  H   UNL d   1      31.400 -18.911   0.504  0.00  0.00     0.217 HD
ENDBRANCH   3  31
BRANCH   9  33
ATOM     33  C   UNL d   1      27.606 -17.073  -1.058  0.00  0.00    -0.042 A 
ATOM     34  C   UNL d   1      27.653 -17.827   0.122  0.00  0.00     0.011 A 
ATOM     35  C   UNL d   1      26.471 -18.190   0.773  0.00  0.00     0.040 A 
ATOM     36  C   UNL d   1      25.237 -17.807   0.250  0.00  0.00     0.102 A 
ATOM     37  C   UNL d   1      25.182 -17.049  -0.915  0.00  0.00     0.102 A 
ATOM     38  O   UNL d   1      24.116 -18.200   0.930  0.00  0.00    -0.346 OA
ATOM     39  C   UNL d   1      26.353 -16.697  -1.563  0.00  0.00     0.047 A 
ATOM     40  O   UNL d   1      24.023 -16.613  -1.501  0.00  0.00    -0.346 OA
ATOM     41  C   UNL d   1      22.926 -16.709  -0.595  0.00  0.00     0.202 C 
ATOM     42  C   UNL d   1      22.939 -18.046   0.128  0.00  0.00     0.202 C 
ENDBRANCH   9  33
TORSDOF 10
ENDMDL
MODEL 4
REMARK VINA RESULT:    -6.269      2.096      2.682
REMARK INTER + INTRA:         -14.591
REMARK INTER:                  -9.252
REMARK INTRA:                  -5.340
REMARK CONF_INDEPENDENT:        2.983
REMARK UNBOUND:                -5.340
REMARK  10 active torsions:
REMARK  status: ('A' for Active; 'I' for Inactive)
REMARK    1  A    between atoms: O_2  and  C_3 
REMARK    2  A    between atoms: C_3  and  C_5 
REMARK    3  A    between atoms: C_5  and  C_6 
REMARK    4  A    between atoms: C_5  and  N_12 
REMARK    5  A    between atoms: C_6  and  C_7 
REMARK       I    between atoms: N_12  and  C_13 
REMARK    6  A    between atoms: C_13  and  C_15 
REMARK    7  A    between atoms: C_15  and  O_16 
REMARK    8  A    between atoms: O_16  and  C_17 
REMARK    9  A    between atoms: C_19  and  O_20 
REMARK   10  A    between atoms: C_26  and  C_27 
ROOT
ATOM      1  C   UNL d   1      27.282 -11.791   2.505  0.00  0.00     0.074 A 
ATOM      2  C   UNL d   1      28.341 -12.577   2.958  0.00  0.00     0.074 A 
ATOM      3  C   UNL d   1      28.818 -13.631   2.164  0.00  0.00     0.085 A 
ATOM      4  C   UNL d   1      28.270 -13.884   0.899  0.00  0.00     0.077 A 
ATOM      5  C   UNL d   1      27.232 -13.071   0.437  0.00  0.00     0.088 A 
ATOM      6  C   UNL d   1      26.718 -12.058   1.255  0.00  0.00     0.074 A 
ATOM      7  O   UNL d   1      26.583 -13.236  -0.759  0.00  0.00    -0.349 OA
ATOM      8  C   UNL d   1      27.262 -14.064  -1.707  0.00  0.00     0.193 C 
ATOM      9  C   UNL d   1      27.815 -15.360  -1.129  0.00  0.00     0.118 C 
ATOM     10  C   UNL d   1      28.682 -15.048   0.068  0.00  0.00     0.175 C 
ATOM     11  O   UNL d   1      29.639 -15.765   0.351  0.00  0.00    -0.291 OA
ENDROOT
BRANCH   1  12
ATOM     12  O   UNL d   1      26.655 -10.821   3.237  0.00  0.00    -0.342 OA
BRANCH  12  13
ATOM     13  C   UNL d   1      27.340  -9.585   3.446  0.00  0.00     0.278 C 
BRANCH  13  14
ATOM     14  C   UNL d   1      28.126  -9.678   4.773  0.00  0.00     0.242 C 
ATOM     15  N   UNL d   1      28.014 -10.865   5.482  0.00  0.00    -0.345 N 
ATOM     16  H   UNL d   1      27.354 -11.583   5.190  0.00  0.00     0.163 HD
ATOM     17  O   UNL d   1      28.841  -8.771   5.198  0.00  0.00    -0.271 OA
BRANCH  15  18
ATOM     18  C   UNL d   1      28.722 -11.079   6.766  0.00  0.00     0.190 C 
BRANCH  18  19
ATOM     19  C   UNL d   1      28.310 -12.456   7.374  0.00  0.00     0.281 C 
ATOM     20  O   UNL d   1      28.468 -12.756   8.555  0.00  0.00    -0.263 OA
BRANCH  19  21
ATOM     21  O   UNL d   1      27.778 -13.291   6.439  0.00  0.00    -0.325 OA
ATOM     22  C   UNL d   1      28.604 -14.342   5.909  0.00  0.00     0.213 C 
ENDBRANCH  19  21
ENDBRANCH  18  19
BRANCH  18  23
ATOM     23  C   UNL d   1      30.252 -10.983   6.574  0.00  0.00     0.093 C 
BRANCH  23  24
ATOM     24  C   UNL d   1      30.713 -11.362   5.214  0.00  0.00     0.028 A 
ATOM     25  C   UNL d   1      31.095 -12.574   4.683  0.00  0.00     0.114 A 
ATOM     26  N   UNL d   1      31.353 -12.379   3.356  0.00  0.00    -0.360 N 
ATOM     27  C   UNL d   1      31.260 -11.084   3.052  0.00  0.00     0.180 A 
ATOM     28  H   UNL d   1      31.604 -13.117   2.702  0.00  0.00     0.166 HD
ATOM     29  N   UNL d   1      30.854 -10.461   4.165  0.00  0.00    -0.354 N 
ATOM     30  H   UNL d   1      30.697  -9.456   4.230  0.00  0.00     0.166 HD
ENDBRANCH  23  24
ENDBRANCH  18  23
ENDBRANCH  15  18
ENDBRANCH  13  14
ENDBRANCH  12  13
ENDBRANCH   1  12
BRANCH   3  31
ATOM     31  O   UNL d   1      29.809 -14.435   2.650  0.00  0.00    -0.360 OA
ATOM     32  H   UNL d   1      29.656 -15.369   2.448  0.00  0.00     0.217 HD
ENDBRANCH   3  31
BRANCH   9  33
ATOM     33  C   UNL d   1      26.731 -16.364  -0.790  0.00  0.00    -0.042 A 
ATOM     34  C   UNL d   1      27.046 -17.540  -0.099  0.00  0.00     0.011 A 
ATOM     35  C   UNL d   1      26.041 -18.457   0.223  0.00  0.00     0.040 A 
ATOM     36  C   UNL d   1      24.720 -18.207  -0.145  0.00  0.00     0.102 A 
ATOM     37  C   UNL d   1      24.398 -17.035  -0.821  0.00  0.00     0.102 A 
ATOM     38  O   UNL d   1      23.784 -19.147   0.193  0.00  0.00    -0.346 OA
ATOM     39  C   UNL d   1      25.395 -16.132  -1.147  0.00  0.00     0.047 A 
ATOM     40  O   UNL d   1      23.132 -16.691  -1.216  0.00  0.00    -0.346 OA
ATOM     41  C   UNL d   1      22.155 -17.480  -0.538  0.00  0.00     0.202 C 
ATOM     42  C   UNL d   1      22.560 -18.944  -0.524  0.00  0.00     0.202 C 
ENDBRANCH   9  33
TORSDOF 10
ENDMDL
MODEL 5
REMARK VINA RESULT:    -6.126      6.502      9.657
REMARK INTER + INTRA:         -14.492
REMARK INTER:                  -9.109
REMARK INTRA:                  -5.383
REMARK CONF_INDEPENDENT:        2.983
REMARK UNBOUND:                -5.383
REMARK  10 active torsions:
REMARK  status: ('A' for Active; 'I' for Inactive)
REMARK    1  A    between atoms: O_2  and  C_3 
REMARK    2  A    between atoms: C_3  and  C_5 
REMARK    3  A    between atoms: C_5  and  C_6 
REMARK    4  A    between atoms: C_5  and  N_12 
REMARK    5  A    between atoms: C_6  and  C_7 
REMARK       I    between atoms: N_12  and  C_13 
REMARK    6  A    between atoms: C_13  and  C_15 
REMARK    7  A    between atoms: C_15  and  O_16 
REMARK    8  A    between atoms: O_16  and  C_17 
REMARK    9  A    between atoms: C_19  and  O_20 
REMARK   10  A    between atoms: C_26  and  C_27 
ROOT
ATOM      1  C   UNL d   1      29.561 -13.378  -3.699  0.00  0.00     0.074 A 
ATOM      2  C   UNL d   1      28.759 -12.398  -3.115  0.00  0.00     0.074 A 
ATOM      3  C   UNL d   1      28.251 -12.591  -1.821  0.00  0.00     0.085 A 
ATOM      4  C   UNL d   1      28.567 -13.744  -1.088  0.00  0.00     0.077 A 
ATOM      5  C   UNL d   1      29.399 -14.706  -1.667  0.00  0.00     0.088 A 
ATOM      6  C   UNL d   1      29.857 -14.538  -2.979  0.00  0.00     0.074 A 
ATOM      7  O   UNL d   1      29.750 -15.892  -1.077  0.00  0.00    -0.349 OA
ATOM      8  C   UNL d   1      29.531 -15.953   0.336  0.00  0.00     0.193 C 
ATOM      9  C   UNL d   1      28.174 -15.426   0.785  0.00  0.00     0.118 C 
ATOM     10  C   UNL d   1      27.972 -14.031   0.246  0.00  0.00     0.175 C 
ATOM     11  O   UNL d   1      27.302 -13.211   0.867  0.00  0.00    -0.291 OA
ENDROOT
BRANCH   1  12
ATOM     12  O   UNL d   1      30.011 -13.358  -4.990  0.00  0.00    -0.342 OA
BRANCH  12  13
ATOM     13  C   UNL d   1      29.474 -14.313  -5.907  0.00  0.00     0.278 C 
BRANCH  13  14
ATOM     14  C   UNL d   1      27.933 -14.242  -5.842  0.00  0.00     0.242 C 
ATOM     15  N   UNL d   1      27.378 -13.021  -5.488  0.00  0.00    -0.345 N 
ATOM     16  H   UNL d   1      27.971 -12.254  -5.177  0.00  0.00     0.163 HD
ATOM     17  O   UNL d   1      27.202 -15.198  -6.106  0.00  0.00    -0.271 OA
BRANCH  15  18
ATOM     18  C   UNL d   1      25.913 -12.825  -5.395  0.00  0.00     0.190 C 
BRANCH  18  19
ATOM     19  C   UNL d   1      25.405 -13.290  -3.994  0.00  0.00     0.281 C 
ATOM     20  O   UNL d   1      25.376 -12.565  -3.002  0.00  0.00    -0.263 OA
BRANCH  19  21
ATOM     21  O   UNL d   1      25.020 -14.596  -3.997  0.00  0.00    -0.325 OA
ATOM     22  C   UNL d   1      25.913 -15.575  -3.442  0.00  0.00     0.213 C 
ENDBRANCH  19  21
ENDBRANCH  18  19
BRANCH  18  23
ATOM     23  C   UNL d   1      25.536 -11.351  -5.670  0.00  0.00     0.093 C 
BRANCH  23  24
ATOM     24  C   UNL d   1      26.439 -10.368  -5.019  0.00  0.00     0.028 A 
ATOM     25  C   UNL d   1      27.241  -9.378  -5.542  0.00  0.00     0.114 A 
ATOM     26  N   UNL d   1      27.803  -8.707  -4.493  0.00  0.00    -0.360 N 
ATOM     27  C   UNL d   1      27.483  -9.298  -3.342  0.00  0.00     0.180 A 
ATOM     28  H   UNL d   1      28.402  -7.889  -4.586  0.00  0.00     0.166 HD
ATOM     29  N   UNL d   1      26.641 -10.292  -3.646  0.00  0.00    -0.354 N 
ATOM     30  H   UNL d   1      26.229 -10.920  -2.958  0.00  0.00     0.166 HD
ENDBRANCH  23  24
ENDBRANCH  18  23
ENDBRANCH  15  18
ENDBRANCH  13  14
ENDBRANCH  12  13
ENDBRANCH   1  12
BRANCH   3  31
ATOM     31  O   UNL d   1      27.411 -11.655  -1.289  0.00  0.00    -0.360 OA
ATOM     32  H   UNL d   1      27.180 -11.849  -0.370  0.00  0.00     0.217 HD
ENDBRANCH   3  31
BRANCH   9  33
ATOM     33  C   UNL d   1      27.031 -16.346   0.407  0.00  0.00    -0.042 A 
ATOM     34  C   UNL d   1      27.149 -17.731   0.578  0.00  0.00     0.011 A 
ATOM     35  C   UNL d   1      26.086 -18.574   0.241  0.00  0.00     0.040 A 
ATOM     36  C   UNL d   1      24.905 -18.043  -0.272  0.00  0.00     0.102 A 
ATOM     37  C   UNL d   1      24.776 -16.667  -0.434  0.00  0.00     0.102 A 
ATOM     38  O   UNL d   1      23.905 -18.922  -0.590  0.00  0.00    -0.346 OA
ATOM     39  C   UNL d   1      25.831 -15.833  -0.108  0.00  0.00     0.047 A 
ATOM     40  O   UNL d   1      23.655 -16.046  -0.917  0.00  0.00    -0.346 OA
ATOM     41  C   UNL d   1      22.530 -16.924  -0.882  0.00  0.00     0.202 C 
ATOM     42  C   UNL d   1      22.905 -18.300  -1.407  0.00  0.00     0.202 C 
ENDBRANCH   9  33
TORSDOF 10
ENDMDL
MODEL 6
REMARK VINA RESULT:    -6.079      7.847     11.788
REMARK INTER + INTRA:         -14.259
REMARK INTER:                  -9.062
REMARK INTRA:                  -5.197
REMARK CONF_INDEPENDENT:        2.983
REMARK UNBOUND:                -5.197
REMARK  10 active torsions:
REMARK  status: ('A' for Active; 'I' for Inactive)
REMARK    1  A    between atoms: O_2  and  C_3 
REMARK    2  A    between atoms: C_3  and  C_5 
REMARK    3  A    between atoms: C_5  and  C_6 
REMARK    4  A    between atoms: C_5  and  N_12 
REMARK    5  A    between atoms: C_6  and  C_7 
REMARK       I    between atoms: N_12  and  C_13 
REMARK    6  A    between atoms: C_13  and  C_15 
REMARK    7  A    between atoms: C_15  and  O_16 
REMARK    8  A    between atoms: O_16  and  C_17 
REMARK    9  A    between atoms: C_19  and  O_20 
REMARK   10  A    between atoms: C_26  and  C_27 
ROOT
ATOM      1  C   UNL d   1      28.350 -15.033  -5.768  0.00  0.00     0.074 A 
ATOM      2  C   UNL d   1      27.289 -14.128  -5.791  0.00  0.00     0.074 A 
ATOM      3  C   UNL d   1      26.676 -13.739  -4.590  0.00  0.00     0.085 A 
ATOM      4  C   UNL d   1      27.140 -14.220  -3.357  0.00  0.00     0.077 A 
ATOM      5  C   UNL d   1      28.225 -15.099  -3.339  0.00  0.00     0.088 A 
ATOM      6  C   UNL d   1      28.797 -15.532  -4.541  0.00  0.00     0.074 A 
ATOM      7  O   UNL d   1      28.748 -15.672  -2.209  0.00  0.00    -0.349 OA
ATOM      8  C   UNL d   1      28.372 -15.042  -0.981  0.00  0.00     0.193 C 
ATOM      9  C   UNL d   1      26.888 -14.715  -0.869  0.00  0.00     0.118 C 
ATOM     10  C   UNL d   1      26.458 -13.907  -2.071  0.00  0.00     0.175 C 
ATOM     11  O   UNL d   1      25.555 -13.081  -1.978  0.00  0.00    -0.291 OA
ENDROOT
BRANCH   1  12
ATOM     12  O   UNL d   1      28.943 -15.577  -6.873  0.00  0.00    -0.342 OA
BRANCH  12  13
ATOM     13  C   UNL d   1      30.370 -15.641  -6.910  0.00  0.00     0.278 C 
BRANCH  13  14
ATOM     14  C   UNL d   1      30.917 -14.224  -7.186  0.00  0.00     0.242 C 
ATOM     15  N   UNL d   1      30.156 -13.410  -8.013  0.00  0.00    -0.345 N 
ATOM     16  H   UNL d   1      29.342 -13.783  -8.498  0.00  0.00     0.163 HD
ATOM     17  O   UNL d   1      31.964 -13.798  -6.696  0.00  0.00    -0.271 OA
BRANCH  15  18
ATOM     18  C   UNL d   1      30.572 -12.029  -8.350  0.00  0.00     0.190 C 
BRANCH  18  19
ATOM     19  C   UNL d   1      29.800 -11.537  -9.613  0.00  0.00     0.281 C 
ATOM     20  O   UNL d   1      29.737 -10.360  -9.961  0.00  0.00    -0.263 OA
BRANCH  19  21
ATOM     21  O   UNL d   1      29.186 -12.560 -10.270  0.00  0.00    -0.325 OA
ATOM     22  C   UNL d   1      27.760 -12.692 -10.153  0.00  0.00     0.213 C 
ENDBRANCH  19  21
ENDBRANCH  18  19
BRANCH  18  23
ATOM     23  C   UNL d   1      30.353 -11.080  -7.151  0.00  0.00     0.093 C 
BRANCH  23  24
ATOM     24  C   UNL d   1      28.931 -10.933  -6.751  0.00  0.00     0.028 A 
ATOM     25  C   UNL d   1      28.278 -11.221  -5.573  0.00  0.00     0.114 A 
ATOM     26  N   UNL d   1      26.979 -10.819  -5.714  0.00  0.00    -0.360 N 
ATOM     27  C   UNL d   1      26.759 -10.397  -6.958  0.00  0.00     0.180 A 
ATOM     28  H   UNL d   1      26.279 -10.862  -4.976  0.00  0.00     0.166 HD
ATOM     29  N   UNL d   1      27.937 -10.443  -7.590  0.00  0.00    -0.354 N 
ATOM     30  H   UNL d   1      28.072 -10.175  -8.564  0.00  0.00     0.166 HD
ENDBRANCH  23  24
ENDBRANCH  18  23
ENDBRANCH  15  18
ENDBRANCH  13  14
ENDBRANCH  12  13
ENDBRANCH   1  12
BRANCH   3  31
ATOM     31  O   UNL d   1      25.595 -12.907  -4.633  0.00  0.00    -0.360 OA
ATOM     32  H   UNL d   1      25.357 -12.568  -3.759  0.00  0.00     0.217 HD
ENDBRANCH   3  31
BRANCH   9  33
ATOM     33  C   UNL d   1      26.026 -15.948  -0.685  0.00  0.00    -0.042 A 
ATOM     34  C   UNL d   1      26.567 -17.112  -0.124  0.00  0.00     0.011 A 
ATOM     35  C   UNL d   1      25.764 -18.243   0.057  0.00  0.00     0.040 A 
ATOM     36  C   UNL d   1      24.424 -18.220  -0.323  0.00  0.00     0.102 A 
ATOM     37  C   UNL d   1      23.878 -17.063  -0.869  0.00  0.00     0.102 A 
ATOM     38  O   UNL d   1      23.694 -19.361  -0.126  0.00  0.00    -0.346 OA
ATOM     39  C   UNL d   1      24.674 -15.947  -1.056  0.00  0.00     0.047 A 
ATOM     40  O   UNL d   1      22.572 -16.935  -1.263  0.00  0.00    -0.346 OA
ATOM     41  C   UNL d   1      21.768 -17.977  -0.712  0.00  0.00     0.202 C 
ATOM     42  C   UNL d   1      22.461 -19.323  -0.855  0.00  0.00     0.202 C 
ENDBRANCH   9  33
TORSDOF 10
ENDMDL
MODEL 7
REMARK VINA RESULT:    -5.346      6.161      9.349
REMARK INTER + INTRA:         -14.411
REMARK INTER:                  -8.329
REMARK INTRA:                  -6.081
REMARK CONF_INDEPENDENT:        2.983
REMARK UNBOUND:                -6.081
REMARK  10 active torsions:
REMARK  status: ('A' for Active; 'I' for Inactive)
REMARK    1  A    between atoms: O_2  and  C_3 
REMARK    2  A    between atoms: C_3  and  C_5 
REMARK    3  A    between atoms: C_5  and  C_6 
REMARK    4  A    between atoms: C_5  and  N_12 
REMARK    5  A    between atoms: C_6  and  C_7 
REMARK       I    between atoms: N_12  and  C_13 
REMARK    6  A    between atoms: C_13  and  C_15 
REMARK    7  A    between atoms: C_15  and  O_16 
REMARK    8  A    between atoms: O_16  and  C_17 
REMARK    9  A    between atoms: C_19  and  O_20 
REMARK   10  A    between atoms: C_26  and  C_27 
ROOT
ATOM      1  C   UNL d   1      30.447 -12.716  -3.002  0.00  0.00     0.074 A 
ATOM      2  C   UNL d   1      30.146 -12.047  -1.816  0.00  0.00     0.074 A 
ATOM      3  C   UNL d   1      29.697 -12.771  -0.700  0.00  0.00     0.085 A 
ATOM      4  C   UNL d   1      29.581 -14.167  -0.747  0.00  0.00     0.077 A 
ATOM      5  C   UNL d   1      29.917 -14.834  -1.928  0.00  0.00     0.088 A 
ATOM      6  C   UNL d   1      30.308 -14.105  -3.057  0.00  0.00     0.074 A 
ATOM      7  O   UNL d   1      29.810 -16.187  -2.119  0.00  0.00    -0.349 OA
ATOM      8  C   UNL d   1      29.687 -16.960  -0.921  0.00  0.00     0.193 C 
ATOM      9  C   UNL d   1      28.688 -16.404   0.086  0.00  0.00     0.118 C 
ATOM     10  C   UNL d   1      29.019 -14.960   0.380  0.00  0.00     0.175 C 
ATOM     11  O   UNL d   1      28.777 -14.475   1.482  0.00  0.00    -0.291 OA
ENDROOT
BRANCH   1  12
ATOM     12  O   UNL d   1      30.773 -12.111  -4.183  0.00  0.00    -0.342 OA
BRANCH  12  13
ATOM     13  C   UNL d   1      30.046 -10.942  -4.566  0.00  0.00     0.278 C 
BRANCH  13  14
ATOM     14  C   UNL d   1      28.672 -11.378  -5.119  0.00  0.00     0.242 C 
ATOM     15  N   UNL d   1      28.357 -12.725  -5.016  0.00  0.00    -0.345 N 
ATOM     16  H   UNL d   1      29.052 -13.396  -4.697  0.00  0.00     0.163 HD
ATOM     17  O   UNL d   1      27.864 -10.592  -5.614  0.00  0.00    -0.271 OA
BRANCH  15  18
ATOM     18  C   UNL d   1      27.068 -13.266  -5.506  0.00  0.00     0.190 C 
BRANCH  18  19
ATOM     19  C   UNL d   1      27.162 -14.818  -5.641  0.00  0.00     0.281 C 
ATOM     20  O   UNL d   1      26.201 -15.574  -5.523  0.00  0.00    -0.263 OA
BRANCH  19  21
ATOM     21  O   UNL d   1      28.436 -15.234  -5.884  0.00  0.00    -0.325 OA
ATOM     22  C   UNL d   1      29.006 -16.233  -5.021  0.00  0.00     0.213 C 
ENDBRANCH  19  21
ENDBRANCH  18  19
BRANCH  18  23
ATOM     23  C   UNL d   1      25.906 -12.851  -4.575  0.00  0.00     0.093 C 
BRANCH  23  24
ATOM     24  C   UNL d   1      26.348 -12.203  -3.314  0.00  0.00     0.028 A 
ATOM     25  C   UNL d   1      26.562 -12.710  -2.052  0.00  0.00     0.114 A 
ATOM     26  N   UNL d   1      27.041 -11.692  -1.275  0.00  0.00    -0.360 N 
ATOM     27  C   UNL d   1      27.032 -10.547  -1.958  0.00  0.00     0.180 A 
ATOM     28  H   UNL d   1      27.337 -11.796  -0.307  0.00  0.00     0.166 HD
ATOM     29  N   UNL d   1      26.634 -10.847  -3.199  0.00  0.00    -0.354 N 
ATOM     30  H   UNL d   1      26.532 -10.162  -3.946  0.00  0.00     0.166 HD
ENDBRANCH  23  24
ENDBRANCH  18  23
ENDBRANCH  15  18
ENDBRANCH  13  14
ENDBRANCH  12  13
ENDBRANCH   1  12
BRANCH   3  31
ATOM     31  O   UNL d   1      29.340 -12.096   0.431  0.00  0.00    -0.360 OA
ATOM     32  H   UNL d   1      28.584 -12.501   0.878  0.00  0.00     0.217 HD
ENDBRANCH   3  31
BRANCH   9  33
ATOM     33  C   UNL d   1      27.249 -16.571  -0.358  0.00  0.00    -0.042 A 
ATOM     34  C   UNL d   1      26.748 -15.824  -1.432  0.00  0.00     0.011 A 
ATOM     35  C   UNL d   1      25.424 -15.991  -1.848  0.00  0.00     0.040 A 
ATOM     36  C   UNL d   1      24.593 -16.898  -1.193  0.00  0.00     0.102 A 
ATOM     37  C   UNL d   1      25.087 -17.651  -0.133  0.00  0.00     0.102 A 
ATOM     38  O   UNL d   1      23.305 -17.010  -1.643  0.00  0.00    -0.346 OA
ATOM     39  C   UNL d   1      26.395 -17.480   0.283  0.00  0.00     0.047 A 
ATOM     40  O   UNL d   1      24.356 -18.576   0.566  0.00  0.00    -0.346 OA
ATOM     41  C   UNL d   1      23.173 -18.934  -0.145  0.00  0.00     0.202 C 
ATOM     42  C   UNL d   1      22.480 -17.699  -0.696  0.00  0.00     0.202 C 
ENDBRANCH   9  33
TORSDOF 10
ENDMDL
MODEL 8
REMARK VINA RESULT:    -4.372      7.296      9.996
REMARK INTER + INTRA:         -14.695
REMARK INTER:                  -7.355
REMARK INTRA:                  -7.340
REMARK CONF_INDEPENDENT:        2.983
REMARK UNBOUND:                -7.340
REMARK  10 active torsions:
REMARK  status: ('A' for Active; 'I' for Inactive)
REMARK    1  A    between atoms: O_2  and  C_3 
REMARK    2  A    between atoms: C_3  and  C_5 
REMARK    3  A    between atoms: C_5  and  C_6 
REMARK    4  A    between atoms: C_5  and  N_12 
REMARK    5  A    between atoms: C_6  and  C_7 
REMARK       I    between atoms: N_12  and  C_13 
REMARK    6  A    between atoms: C_13  and  C_15 
REMARK    7  A    between atoms: C_15  and  O_16 
REMARK    8  A    between atoms: O_16  and  C_17 
REMARK    9  A    between atoms: C_19  and  O_20 
REMARK   10  A    between atoms: C_26  and  C_27 
ROOT
ATOM      1  C   UNL d   1      29.118 -13.272  -6.546  0.00  0.00     0.074 A 
ATOM      2  C   UNL d   1      29.825 -12.523  -5.606  0.00  0.00     0.074 A 
ATOM      3  C   UNL d   1      30.409 -13.161  -4.500  0.00  0.00     0.085 A 
ATOM      4  C   UNL d   1      30.323 -14.552  -4.344  0.00  0.00     0.077 A 
ATOM      5  C   UNL d   1      29.642 -15.300  -5.308  0.00  0.00     0.088 A 
ATOM      6  C   UNL d   1      29.011 -14.655  -6.378  0.00  0.00     0.074 A 
ATOM      7  O   UNL d   1      29.451 -16.656  -5.253  0.00  0.00    -0.349 OA
ATOM      8  C   UNL d   1      30.307 -17.352  -4.342  0.00  0.00     0.193 C 
ATOM      9  C   UNL d   1      30.432 -16.697  -2.972  0.00  0.00     0.118 C 
ATOM     10  C   UNL d   1      30.844 -15.254  -3.139  0.00  0.00     0.175 C 
ATOM     11  O   UNL d   1      31.528 -14.696  -2.286  0.00  0.00    -0.291 OA
ENDROOT
BRANCH   1  12
ATOM     12  O   UNL d   1      28.407 -12.751  -7.591  0.00  0.00    -0.342 OA
BRANCH  12  13
ATOM     13  C   UNL d   1      28.076 -11.361  -7.555  0.00  0.00     0.278 C 
BRANCH  13  14
ATOM     14  C   UNL d   1      26.936 -11.155  -6.534  0.00  0.00     0.242 C 
ATOM     15  N   UNL d   1      26.603 -12.244  -5.742  0.00  0.00    -0.345 N 
ATOM     16  H   UNL d   1      27.017 -13.157  -5.917  0.00  0.00     0.163 HD
ATOM     17  O   UNL d   1      26.345 -10.084  -6.391  0.00  0.00    -0.271 OA
BRANCH  15  18
ATOM     18  C   UNL d   1      25.529 -12.171  -4.724  0.00  0.00     0.190 C 
BRANCH  18  19
ATOM     19  C   UNL d   1      25.094 -13.611  -4.309  0.00  0.00     0.281 C 
ATOM     20  O   UNL d   1      23.972 -13.894  -3.895  0.00  0.00    -0.263 OA
BRANCH  19  21
ATOM     21  O   UNL d   1      26.108 -14.510  -4.440  0.00  0.00    -0.325 OA
ATOM     22  C   UNL d   1      25.960 -15.576  -5.394  0.00  0.00     0.213 C 
ENDBRANCH  19  21
ENDBRANCH  18  19
BRANCH  18  23
ATOM     23  C   UNL d   1      25.987 -11.347  -3.499  0.00  0.00     0.093 C 
BRANCH  23  24
ATOM     24  C   UNL d   1      27.188 -11.895  -2.820  0.00  0.00     0.028 A 
ATOM     25  C   UNL d   1      28.420 -11.341  -2.552  0.00  0.00     0.114 A 
ATOM     26  N   UNL d   1      29.134 -12.255  -1.830  0.00  0.00    -0.360 N 
ATOM     27  C   UNL d   1      28.454 -13.397  -1.727  0.00  0.00     0.180 A 
ATOM     28  H   UNL d   1      30.063 -12.090  -1.448  0.00  0.00     0.166 HD
ATOM     29  N   UNL d   1      27.266 -13.184  -2.305  0.00  0.00    -0.354 N 
ATOM     30  H   UNL d   1      26.533 -13.889  -2.376  0.00  0.00     0.166 HD
ENDBRANCH  23  24
ENDBRANCH  18  23
ENDBRANCH  15  18
ENDBRANCH  13  14
ENDBRANCH  12  13
ENDBRANCH   1  12
BRANCH   3  31
ATOM     31  O   UNL d   1      31.038 -12.407  -3.552  0.00  0.00    -0.360 OA
ATOM     32  H   UNL d   1      31.521 -12.949  -2.913  0.00  0.00     0.217 HD
ENDBRANCH   3  31
BRANCH   9  33
ATOM     33  C   UNL d   1      29.174 -16.829  -2.139  0.00  0.00    -0.042 A 
ATOM     34  C   UNL d   1      29.217 -17.448  -0.883  0.00  0.00     0.011 A 
ATOM     35  C   UNL d   1      28.056 -17.556  -0.112  0.00  0.00     0.040 A 
ATOM     36  C   UNL d   1      26.847 -17.050  -0.590  0.00  0.00     0.102 A 
ATOM     37  C   UNL d   1      26.800 -16.423  -1.830  0.00  0.00     0.102 A 
ATOM     38  O   UNL d   1      25.746 -17.193   0.211  0.00  0.00    -0.346 OA
ATOM     39  C   UNL d   1      27.947 -16.325  -2.597  0.00  0.00     0.047 A 
ATOM     40  O   UNL d   1      25.668 -15.884  -2.382  0.00  0.00    -0.346 OA
ATOM     41  C   UNL d   1      24.651 -15.713  -1.395  0.00  0.00     0.202 C 
ATOM     42  C   UNL d   1      24.537 -16.951  -0.520  0.00  0.00     0.202 C 
ENDBRANCH   9  33
TORSDOF 10
ENDMDL
