MODEL 1
REMARK VINA RESULT:   -10.258      0.000      0.000
REMARK INTER + INTRA:         -15.019
REMARK INTER:                 -13.539
REMARK INTRA:                  -1.480
REMARK CONF_INDEPENDENT:        3.281
REMARK UNBOUND:                -1.480
REMARK  11 active torsions:
REMARK  status: ('A' for Active; 'I' for Inactive)
REMARK    1  A    between atoms: O_2  and  C_3 
REMARK    2  A    between atoms: C_3  and  C_4 
REMARK    3  A    between atoms: C_4  and  C_5 
REMARK    4  A    between atoms: C_5  and  N_6 
REMARK       I    between atoms: N_6  and  C_7 
REMARK    5  A    between atoms: C_7  and  C_9 
REMARK    6  A    between atoms: C_12  and  N_13 
REMARK       I    between atoms: N_13  and  C_14 
REMARK    7  A    between atoms: C_14  and  C_16 
REMARK    8  A    between atoms: C_16  and  N_17 
REMARK    9  A    between atoms: N_17  and  C_18 
REMARK   10  A    between atoms: C_23  and  C_24 
REMARK       I    between atoms: C_24  and  N_26 
REMARK   11  A    between atoms: N_26  and  C_27 
ROOT
ATOM      1  C   UNL d   1      29.512 -15.723  -0.887  0.00  0.00     0.223 C 
ENDROOT
BRANCH   1   2
ATOM      2  C   UNL d   1      28.057 -16.120  -1.202  0.00  0.00     0.239 C 
ATOM      3  N   UNL d   1      27.245 -16.474  -0.121  0.00  0.00    -0.326 N 
ATOM      4  H   UNL d   1      27.650 -16.486   0.809  0.00  0.00     0.169 HD
ATOM      5  O   UNL d   1      27.711 -16.124  -2.387  0.00  0.00    -0.271 OA
BRANCH   3   6
ATOM      6  C   UNL d   1      25.894 -16.925  -0.244  0.00  0.00     0.034 A 
ATOM      7  C   UNL d   1      25.452 -18.078   0.424  0.00  0.00     0.030 A 
ATOM      8  C   UNL d   1      24.143 -18.575   0.206  0.00  0.00     0.019 A 
ATOM      9  C   UNL d   1      23.246 -17.894  -0.632  0.00  0.00     0.032 A 
ATOM     10  C   UNL d   1      23.667 -16.731  -1.255  0.00  0.00     0.019 A 
ATOM     11  C   UNL d   1      24.965 -16.260  -1.050  0.00  0.00     0.030 A 
BRANCH   9  12
ATOM     12  C   UNL d   1      21.821 -18.309  -0.740  0.00  0.00     0.251 C 
ATOM     13  N   UNL d   1      21.487 -19.560  -0.249  0.00  0.00    -0.357 N 
ATOM     14  H   UNL d   1      22.179 -20.115   0.240  0.00  0.00     0.162 HD
ATOM     15  O   UNL d   1      21.012 -17.552  -1.271  0.00  0.00    -0.268 OA
BRANCH  13  16
ATOM     16  C   UNL d   1      20.123 -20.052  -0.338  0.00  0.00     0.125 C 
BRANCH  16  17
ATOM     17  C   UNL d   1      19.179 -19.382   0.655  0.00  0.00     0.046 C 
BRANCH  17  18
ATOM     18  C   UNL d   1      19.181 -20.129   1.984  0.00  0.00     0.168 C 
BRANCH  18  19
ATOM     19  O   UNL d   1      17.983 -20.894   2.102  0.00  0.00    -0.396 OA
ATOM     20  C   UNL d   1      17.869 -21.822   1.026  0.00  0.00     0.201 C 
ENDBRANCH  18  19
ENDBRANCH  17  18
ENDBRANCH  16  17
ENDBRANCH  13  16
ENDBRANCH   9  12
ENDBRANCH   3   6
ENDBRANCH   1   2
BRANCH   1  21
ATOM     21  N   UNL d   1      29.622 -15.459   0.555  0.00  0.00    -0.381 N 
ATOM     22  H   UNL d   1      29.896 -16.275   1.114  0.00  0.00     0.160 HD
BRANCH  21  23
ATOM     23  C   UNL d   1      29.073 -14.390   1.223  0.00  0.00     0.029 A 
ATOM     24  C   UNL d   1      28.850 -13.198   0.534  0.00  0.00     0.031 A 
ATOM     25  C   UNL d   1      28.290 -12.094   1.176  0.00  0.00     0.027 A 
ATOM     26  C   UNL d   1      27.896 -12.174   2.517  0.00  0.00     0.049 A 
ATOM     27 CL   UNL d   1      27.084 -10.771   3.125  0.00  0.00    -0.083 Cl
ATOM     28  C   UNL d   1      28.126 -13.353   3.247  0.00  0.00     0.055 A 
ATOM     29  C   UNL d   1      28.699 -14.450   2.567  0.00  0.00     0.048 A 
BRANCH  28  30
ATOM     30  C   UNL d   1      27.811 -13.454   4.713  0.00  0.00     0.253 C 
ATOM     31  O   UNL d   1      26.849 -14.102   5.124  0.00  0.00    -0.268 OA
ATOM     32  N   UNL d   1      28.625 -12.781   5.609  0.00  0.00    -0.352 N 
ATOM     33  H   UNL d   1      29.334 -12.138   5.299  0.00  0.00     0.163 HD
BRANCH  32  34
ATOM     34  C   UNL d   1      28.340 -12.776   7.038  0.00  0.00     0.084 C 
ATOM     35  C   UNL d   1      28.917 -14.041   7.676  0.00  0.00     0.025 C 
ATOM     36  C   UNL d   1      28.718 -14.055   9.187  0.00  0.00     0.002 C 
ATOM     37  C   UNL d   1      29.291 -12.800   9.835  0.00  0.00     0.000 C 
ATOM     38  C   UNL d   1      28.692 -11.541   9.215  0.00  0.00     0.002 C 
ATOM     39  C   UNL d   1      28.901 -11.512   7.702  0.00  0.00     0.025 C 
ENDBRANCH  32  34
ENDBRANCH  28  30
ENDBRANCH  21  23
ENDBRANCH   1  21
TORSDOF 11
ENDMDL
MODEL 2
REMARK VINA RESULT:    -9.806      1.968      2.439
REMARK INTER + INTRA:         -14.341
REMARK INTER:                 -13.087
REMARK INTRA:                  -1.254
REMARK CONF_INDEPENDENT:        3.281
REMARK UNBOUND:                -1.254
REMARK  11 active torsions:
REMARK  status: ('A' for Active; 'I' for Inactive)
REMARK    1  A    between atoms: O_2  and  C_3 
REMARK    2  A    between atoms: C_3  and  C_4 
REMARK    3  A    between atoms: C_4  and  C_5 
REMARK    4  A    between atoms: C_5  and  N_6 
REMARK       I    between atoms: N_6  and  C_7 
REMARK    5  A    between atoms: C_7  and  C_9 
REMARK    6  A    between atoms: C_12  and  N_13 
REMARK       I    between atoms: N_13  and  C_14 
REMARK    7  A    between atoms: C_14  and  C_16 
REMARK    8  A    between atoms: C_16  and  N_17 
REMARK    9  A    between atoms: N_17  and  C_18 
REMARK   10  A    between atoms: C_23  and  C_24 
REMARK       I    between atoms: C_24  and  N_26 
REMARK   11  A    between atoms: N_26  and  C_27 
ROOT
ATOM      1  C   UNL d   1      28.981 -14.063   0.916  0.00  0.00     0.223 C 
ENDROOT
BRANCH   1   2
ATOM      2  C   UNL d   1      27.582 -14.696   0.796  0.00  0.00     0.239 C 
ATOM      3  N   UNL d   1      27.480 -15.883   0.064  0.00  0.00    -0.326 N 
ATOM      4  H   UNL d   1      28.313 -16.255  -0.379  0.00  0.00     0.169 HD
ATOM      5  O   UNL d   1      26.641 -14.103   1.331  0.00  0.00    -0.271 OA
BRANCH   3   6
ATOM      6  C   UNL d   1      26.251 -16.564  -0.195  0.00  0.00     0.034 A 
ATOM      7  C   UNL d   1      26.039 -17.875   0.258  0.00  0.00     0.030 A 
ATOM      8  C   UNL d   1      24.861 -18.577  -0.100  0.00  0.00     0.019 A 
ATOM      9  C   UNL d   1      23.858 -17.956  -0.862  0.00  0.00     0.032 A 
ATOM     10  C   UNL d   1      24.047 -16.645  -1.271  0.00  0.00     0.019 A 
ATOM     11  C   UNL d   1      25.219 -15.969  -0.930  0.00  0.00     0.030 A 
BRANCH   9  12
ATOM     12  C   UNL d   1      22.548 -18.618  -1.104  0.00  0.00     0.251 C 
ATOM     13  N   UNL d   1      21.554 -18.418  -0.161  0.00  0.00    -0.357 N 
ATOM     14  H   UNL d   1      21.703 -17.772   0.605  0.00  0.00     0.162 HD
ATOM     15  O   UNL d   1      22.406 -19.324  -2.099  0.00  0.00    -0.268 OA
BRANCH  13  16
ATOM     16  C   UNL d   1      20.254 -19.049  -0.309  0.00  0.00     0.125 C 
BRANCH  16  17
ATOM     17  C   UNL d   1      20.151 -20.384   0.420  0.00  0.00     0.046 C 
BRANCH  17  18
ATOM     18  C   UNL d   1      18.753 -20.571   1.001  0.00  0.00     0.168 C 
BRANCH  18  19
ATOM     19  O   UNL d   1      18.775 -20.280   2.398  0.00  0.00    -0.396 OA
ATOM     20  C   UNL d   1      20.110 -20.071   2.850  0.00  0.00     0.201 C 
ENDBRANCH  18  19
ENDBRANCH  17  18
ENDBRANCH  16  17
ENDBRANCH  13  16
ENDBRANCH   9  12
ENDBRANCH   3   6
ENDBRANCH   1   2
BRANCH   1  21
ATOM     21  N   UNL d   1      29.604 -14.540   2.159  0.00  0.00    -0.381 N 
ATOM     22  H   UNL d   1      29.524 -15.551   2.312  0.00  0.00     0.160 HD
BRANCH  21  23
ATOM     23  C   UNL d   1      29.939 -13.762   3.242  0.00  0.00     0.029 A 
ATOM     24  C   UNL d   1      31.036 -12.904   3.152  0.00  0.00     0.031 A 
ATOM     25  C   UNL d   1      31.403 -12.096   4.228  0.00  0.00     0.027 A 
ATOM     26  C   UNL d   1      30.648 -12.094   5.407  0.00  0.00     0.049 A 
ATOM     27 CL   UNL d   1      31.144 -10.930   6.590  0.00  0.00    -0.083 Cl
ATOM     28  C   UNL d   1      29.550 -12.961   5.540  0.00  0.00     0.055 A 
ATOM     29  C   UNL d   1      29.210 -13.769   4.433  0.00  0.00     0.048 A 
BRANCH  28  30
ATOM     30  C   UNL d   1      28.771 -13.067   6.821  0.00  0.00     0.253 C 
ATOM     31  O   UNL d   1      27.691 -12.495   6.968  0.00  0.00    -0.268 OA
ATOM     32  N   UNL d   1      29.304 -13.816   7.856  0.00  0.00    -0.352 N 
ATOM     33  H   UNL d   1      30.240 -14.182   7.816  0.00  0.00     0.163 HD
BRANCH  32  34
ATOM     34  C   UNL d   1      28.639 -13.905   9.149  0.00  0.00     0.084 C 
ATOM     35  C   UNL d   1      29.482 -14.760  10.097  0.00  0.00     0.025 C 
ATOM     36  C   UNL d   1      28.875 -14.825  11.493  0.00  0.00     0.002 C 
ATOM     37  C   UNL d   1      28.646 -13.430  12.065  0.00  0.00     0.000 C 
ATOM     38  C   UNL d   1      27.781 -12.591  11.131  0.00  0.00     0.002 C 
ATOM     39  C   UNL d   1      28.390 -12.507   9.732  0.00  0.00     0.025 C 
ENDBRANCH  32  34
ENDBRANCH  28  30
ENDBRANCH  21  23
ENDBRANCH   1  21
TORSDOF 11
ENDMDL
MODEL 3
REMARK VINA RESULT:    -9.593      1.392      1.920
REMARK INTER + INTRA:         -14.281
REMARK INTER:                 -12.874
REMARK INTRA:                  -1.407
REMARK CONF_INDEPENDENT:        3.281
REMARK UNBOUND:                -1.407
REMARK  11 active torsions:
REMARK  status: ('A' for Active; 'I' for Inactive)
REMARK    1  A    between atoms: O_2  and  C_3 
REMARK    2  A    between atoms: C_3  and  C_4 
REMARK    3  A    between atoms: C_4  and  C_5 
REMARK    4  A    between atoms: C_5  and  N_6 
REMARK       I    between atoms: N_6  and  C_7 
REMARK    5  A    between atoms: C_7  and  C_9 
REMARK    6  A    between atoms: C_12  and  N_13 
REMARK       I    between atoms: N_13  and  C_14 
REMARK    7  A    between atoms: C_14  and  C_16 
REMARK    8  A    between atoms: C_16  and  N_17 
REMARK    9  A    between atoms: N_17  and  C_18 
REMARK   10  A    between atoms: C_23  and  C_24 
REMARK       I    between atoms: C_24  and  N_26 
REMARK   11  A    between atoms: N_26  and  C_27 
ROOT
ATOM      1  C   UNL d   1      30.022 -14.721   0.206  0.00  0.00     0.223 C 
ENDROOT
BRANCH   1   2
ATOM      2  C   UNL d   1      28.692 -15.243  -0.368  0.00  0.00     0.239 C 
ATOM      3  N   UNL d   1      27.886 -16.005   0.484  0.00  0.00    -0.326 N 
ATOM      4  H   UNL d   1      28.221 -16.207   1.419  0.00  0.00     0.169 HD
ATOM      5  O   UNL d   1      28.435 -14.977  -1.546  0.00  0.00    -0.271 OA
BRANCH   3   6
ATOM      6  C   UNL d   1      26.654 -16.615   0.092  0.00  0.00     0.034 A 
ATOM      7  C   UNL d   1      25.730 -15.931  -0.714  0.00  0.00     0.030 A 
ATOM      8  C   UNL d   1      24.468 -16.504  -1.003  0.00  0.00     0.019 A 
ATOM      9  C   UNL d   1      24.139 -17.789  -0.543  0.00  0.00     0.032 A 
ATOM     10  C   UNL d   1      25.070 -18.484   0.214  0.00  0.00     0.019 A 
ATOM     11  C   UNL d   1      26.303 -17.902   0.511  0.00  0.00     0.030 A 
BRANCH   9  12
ATOM     12  C   UNL d   1      22.890 -18.471  -0.975  0.00  0.00     0.251 C 
ATOM     13  N   UNL d   1      21.790 -18.363  -0.141  0.00  0.00    -0.357 N 
ATOM     14  H   UNL d   1      21.828 -17.768   0.677  0.00  0.00     0.162 HD
ATOM     15  O   UNL d   1      22.885 -19.111  -2.023  0.00  0.00    -0.268 OA
BRANCH  13  16
ATOM     16  C   UNL d   1      20.538 -19.020  -0.477  0.00  0.00     0.125 C 
BRANCH  16  17
ATOM     17  C   UNL d   1      20.228 -20.212   0.422  0.00  0.00     0.046 C 
BRANCH  17  18
ATOM     18  C   UNL d   1      19.700 -19.742   1.773  0.00  0.00     0.168 C 
BRANCH  18  19
ATOM     19  O   UNL d   1      18.353 -20.182   1.938  0.00  0.00    -0.396 OA
ATOM     20  C   UNL d   1      18.059 -21.252   1.044  0.00  0.00     0.201 C 
ENDBRANCH  18  19
ENDBRANCH  17  18
ENDBRANCH  16  17
ENDBRANCH  13  16
ENDBRANCH   9  12
ENDBRANCH   3   6
ENDBRANCH   1   2
BRANCH   1  21
ATOM     21  N   UNL d   1      30.018 -14.931   1.661  0.00  0.00    -0.381 N 
ATOM     22  H   UNL d   1      30.101 -15.913   1.946  0.00  0.00     0.160 HD
BRANCH  21  23
ATOM     23  C   UNL d   1      29.574 -14.034   2.603  0.00  0.00     0.029 A 
ATOM     24  C   UNL d   1      29.153 -12.769   2.194  0.00  0.00     0.031 A 
ATOM     25  C   UNL d   1      28.692 -11.833   3.121  0.00  0.00     0.027 A 
ATOM     26  C   UNL d   1      28.597 -12.162   4.478  0.00  0.00     0.049 A 
ATOM     27 CL   UNL d   1      27.868 -10.949   5.475  0.00  0.00    -0.083 Cl
ATOM     28  C   UNL d   1      29.033 -13.421   4.927  0.00  0.00     0.055 A 
ATOM     29  C   UNL d   1      29.499 -14.341   3.963  0.00  0.00     0.048 A 
BRANCH  28  30
ATOM     30  C   UNL d   1      29.044 -13.783   6.386  0.00  0.00     0.253 C 
ATOM     31  O   UNL d   1      28.556 -14.838   6.793  0.00  0.00    -0.268 OA
ATOM     32  N   UNL d   1      29.606 -12.890   7.282  0.00  0.00    -0.352 N 
ATOM     33  H   UNL d   1      29.890 -11.967   7.001  0.00  0.00     0.163 HD
BRANCH  32  34
ATOM     34  C   UNL d   1      29.589 -13.143   8.717  0.00  0.00     0.084 C 
ATOM     35  C   UNL d   1      30.436 -12.086   9.429  0.00  0.00     0.025 C 
ATOM     36  C   UNL d   1      30.392 -12.252  10.944  0.00  0.00     0.002 C 
ATOM     37  C   UNL d   1      28.959 -12.252  11.462  0.00  0.00     0.000 C 
ATOM     38  C   UNL d   1      28.126 -13.326  10.770  0.00  0.00     0.002 C 
ATOM     39  C   UNL d   1      28.151 -13.158   9.252  0.00  0.00     0.025 C 
ENDBRANCH  32  34
ENDBRANCH  28  30
ENDBRANCH  21  23
ENDBRANCH   1  21
TORSDOF 11
ENDMDL
MODEL 4
REMARK VINA RESULT:    -9.506      5.832     10.338
REMARK INTER + INTRA:         -14.741
REMARK INTER:                 -12.787
REMARK INTRA:                  -1.953
REMARK CONF_INDEPENDENT:        3.281
REMARK UNBOUND:                -1.953
REMARK  11 active torsions:
REMARK  status: ('A' for Active; 'I' for Inactive)
REMARK    1  A    between atoms: O_2  and  C_3 
REMARK    2  A    between atoms: C_3  and  C_4 
REMARK    3  A    between atoms: C_4  and  C_5 
REMARK    4  A    between atoms: C_5  and  N_6 
REMARK       I    between atoms: N_6  and  C_7 
REMARK    5  A    between atoms: C_7  and  C_9 
REMARK    6  A    between atoms: C_12  and  N_13 
REMARK       I    between atoms: N_13  and  C_14 
REMARK    7  A    between atoms: C_14  and  C_16 
REMARK    8  A    between atoms: C_16  and  N_17 
REMARK    9  A    between atoms: N_17  and  C_18 
REMARK   10  A    between atoms: C_23  and  C_24 
REMARK       I    between atoms: C_24  and  N_26 
REMARK   11  A    between atoms: N_26  and  C_27 
ROOT
ATOM      1  C   UNL d   1      25.018 -13.525  -3.689  0.00  0.00     0.223 C 
ENDROOT
BRANCH   1   2
ATOM      2  C   UNL d   1      25.972 -14.439  -4.480  0.00  0.00     0.239 C 
ATOM      3  N   UNL d   1      27.343 -14.203  -4.341  0.00  0.00    -0.326 N 
ATOM      4  H   UNL d   1      27.648 -13.430  -3.760  0.00  0.00     0.169 HD
ATOM      5  O   UNL d   1      25.466 -15.303  -5.202  0.00  0.00    -0.271 OA
BRANCH   3   6
ATOM      6  C   UNL d   1      28.358 -14.918  -5.050  0.00  0.00     0.034 A 
ATOM      7  C   UNL d   1      29.028 -16.001  -4.460  0.00  0.00     0.030 A 
ATOM      8  C   UNL d   1      30.106 -16.629  -5.132  0.00  0.00     0.019 A 
ATOM      9  C   UNL d   1      30.484 -16.223  -6.421  0.00  0.00     0.032 A 
ATOM     10  C   UNL d   1      29.792 -15.183  -7.023  0.00  0.00     0.019 A 
ATOM     11  C   UNL d   1      28.745 -14.557  -6.345  0.00  0.00     0.030 A 
BRANCH   9  12
ATOM     12  C   UNL d   1      31.499 -16.978  -7.204  0.00  0.00     0.251 C 
ATOM     13  N   UNL d   1      31.113 -18.199  -7.730  0.00  0.00    -0.357 N 
ATOM     14  H   UNL d   1      30.151 -18.505  -7.650  0.00  0.00     0.162 HD
ATOM     15  O   UNL d   1      32.628 -16.511  -7.335  0.00  0.00    -0.268 OA
BRANCH  13  16
ATOM     16  C   UNL d   1      32.051 -19.012  -8.486  0.00  0.00     0.125 C 
BRANCH  16  17
ATOM     17  C   UNL d   1      32.642 -20.156  -7.670  0.00  0.00     0.046 C 
BRANCH  17  18
ATOM     18  C   UNL d   1      31.534 -21.022  -7.079  0.00  0.00     0.168 C 
BRANCH  18  19
ATOM     19  O   UNL d   1      30.617 -20.197  -6.363  0.00  0.00    -0.396 OA
ATOM     20  C   UNL d   1      30.443 -20.673  -5.031  0.00  0.00     0.201 C 
ENDBRANCH  18  19
ENDBRANCH  17  18
ENDBRANCH  16  17
ENDBRANCH  13  16
ENDBRANCH   9  12
ENDBRANCH   3   6
ENDBRANCH   1   2
BRANCH   1  21
ATOM     21  N   UNL d   1      24.159 -14.366  -2.843  0.00  0.00    -0.381 N 
ATOM     22  H   UNL d   1      23.230 -13.972  -2.661  0.00  0.00     0.160 HD
BRANCH  21  23
ATOM     23  C   UNL d   1      24.584 -15.387  -2.027  0.00  0.00     0.029 A 
ATOM     24  C   UNL d   1      25.895 -15.378  -1.551  0.00  0.00     0.031 A 
ATOM     25  C   UNL d   1      26.361 -16.395  -0.717  0.00  0.00     0.027 A 
ATOM     26  C   UNL d   1      25.507 -17.422  -0.301  0.00  0.00     0.049 A 
ATOM     27 CL   UNL d   1      26.192 -18.522   0.848  0.00  0.00    -0.083 Cl
ATOM     28  C   UNL d   1      24.186 -17.474  -0.778  0.00  0.00     0.055 A 
ATOM     29  C   UNL d   1      23.749 -16.431  -1.625  0.00  0.00     0.048 A 
BRANCH  28  30
ATOM     30  C   UNL d   1      23.262 -18.610  -0.440  0.00  0.00     0.253 C 
ATOM     31  O   UNL d   1      23.517 -19.769  -0.769  0.00  0.00    -0.268 OA
ATOM     32  N   UNL d   1      22.094 -18.327   0.246  0.00  0.00    -0.352 N 
ATOM     33  H   UNL d   1      21.793 -17.381   0.410  0.00  0.00     0.163 HD
BRANCH  32  34
ATOM     34  C   UNL d   1      21.118 -19.367   0.546  0.00  0.00     0.084 C 
ATOM     35  C   UNL d   1      20.651 -19.222   1.996  0.00  0.00     0.025 C 
ATOM     36  C   UNL d   1      19.569 -20.237   2.346  0.00  0.00     0.002 C 
ATOM     37  C   UNL d   1      18.395 -20.155   1.377  0.00  0.00     0.000 C 
ATOM     38  C   UNL d   1      18.862 -20.328  -0.065  0.00  0.00     0.002 C 
ATOM     39  C   UNL d   1      19.936 -19.304  -0.429  0.00  0.00     0.025 C 
ENDBRANCH  32  34
ENDBRANCH  28  30
ENDBRANCH  21  23
ENDBRANCH   1  21
TORSDOF 11
ENDMDL
MODEL 5
REMARK VINA RESULT:    -9.023      3.171      6.084
REMARK INTER + INTRA:         -13.902
REMARK INTER:                 -12.305
REMARK INTRA:                  -1.597
REMARK CONF_INDEPENDENT:        3.281
REMARK UNBOUND:                -1.597
REMARK  11 active torsions:
REMARK  status: ('A' for Active; 'I' for Inactive)
REMARK    1  A    between atoms: O_2  and  C_3 
REMARK    2  A    between atoms: C_3  and  C_4 
REMARK    3  A    between atoms: C_4  and  C_5 
REMARK    4  A    between atoms: C_5  and  N_6 
REMARK       I    between atoms: N_6  and  C_7 
REMARK    5  A    between atoms: C_7  and  C_9 
REMARK    6  A    between atoms: C_12  and  N_13 
REMARK       I    between atoms: N_13  and  C_14 
REMARK    7  A    between atoms: C_14  and  C_16 
REMARK    8  A    between atoms: C_16  and  N_17 
REMARK    9  A    between atoms: N_17  and  C_18 
REMARK   10  A    between atoms: C_23  and  C_24 
REMARK       I    between atoms: C_24  and  N_26 
REMARK   11  A    between atoms: N_26  and  C_27 
ROOT
ATOM      1  C   UNL d   1      29.733 -16.167  -0.643  0.00  0.00     0.223 C 
ENDROOT
BRANCH   1   2
ATOM      2  C   UNL d   1      28.279 -16.477  -1.045  0.00  0.00     0.239 C 
ATOM      3  N   UNL d   1      27.381 -16.768  -0.014  0.00  0.00    -0.326 N 
ATOM      4  H   UNL d   1      27.725 -16.795   0.939  0.00  0.00     0.169 HD
ATOM      5  O   UNL d   1      28.007 -16.473  -2.249  0.00  0.00    -0.271 OA
BRANCH   3   6
ATOM      6  C   UNL d   1      26.015 -17.137  -0.218  0.00  0.00     0.034 A 
ATOM      7  C   UNL d   1      25.194 -16.418  -1.102  0.00  0.00     0.030 A 
ATOM      8  C   UNL d   1      23.816 -16.726  -1.211  0.00  0.00     0.019 A 
ATOM      9  C   UNL d   1      23.257 -17.791  -0.487  0.00  0.00     0.032 A 
ATOM     10  C   UNL d   1      24.078 -18.531   0.351  0.00  0.00     0.019 A 
ATOM     11  C   UNL d   1      25.430 -18.207   0.467  0.00  0.00     0.030 A 
BRANCH   9  12
ATOM     12  C   UNL d   1      21.855 -18.232  -0.716  0.00  0.00     0.251 C 
ATOM     13  N   UNL d   1      21.519 -19.511  -0.306  0.00  0.00    -0.357 N 
ATOM     14  H   UNL d   1      22.188 -20.073   0.207  0.00  0.00     0.162 HD
ATOM     15  O   UNL d   1      21.067 -17.469  -1.270  0.00  0.00    -0.268 OA
BRANCH  13  16
ATOM     16  C   UNL d   1      20.177 -20.028  -0.515  0.00  0.00     0.125 C 
BRANCH  16  17
ATOM     17  C   UNL d   1      19.167 -19.497   0.497  0.00  0.00     0.046 C 
BRANCH  17  18
ATOM     18  C   UNL d   1      19.379 -20.150   1.859  0.00  0.00     0.168 C 
BRANCH  18  19
ATOM     19  O   UNL d   1      18.342 -21.099   2.099  0.00  0.00    -0.396 OA
ATOM     20  C   UNL d   1      17.793 -21.570   0.871  0.00  0.00     0.201 C 
ENDBRANCH  18  19
ENDBRANCH  17  18
ENDBRANCH  16  17
ENDBRANCH  13  16
ENDBRANCH   9  12
ENDBRANCH   3   6
ENDBRANCH   1   2
BRANCH   1  21
ATOM     21  N   UNL d   1      29.716 -15.360   0.587  0.00  0.00    -0.381 N 
ATOM     22  H   UNL d   1      30.134 -15.822   1.401  0.00  0.00     0.160 HD
BRANCH  21  23
ATOM     23  C   UNL d   1      28.916 -14.267   0.821  0.00  0.00     0.029 A 
ATOM     24  C   UNL d   1      28.235 -14.168   2.035  0.00  0.00     0.031 A 
ATOM     25  C   UNL d   1      27.418 -13.071   2.310  0.00  0.00     0.027 A 
ATOM     26  C   UNL d   1      27.302 -12.022   1.391  0.00  0.00     0.049 A 
ATOM     27 CL   UNL d   1      26.372 -10.668   1.941  0.00  0.00    -0.083 Cl
ATOM     28  C   UNL d   1      27.956 -12.099   0.149  0.00  0.00     0.055 A 
ATOM     29  C   UNL d   1      28.770 -13.226  -0.098  0.00  0.00     0.048 A 
BRANCH  28  30
ATOM     30  C   UNL d   1      27.781 -11.046  -0.908  0.00  0.00     0.253 C 
ATOM     31  O   UNL d   1      28.155  -9.886  -0.732  0.00  0.00    -0.268 OA
ATOM     32  N   UNL d   1      27.167 -11.401  -2.097  0.00  0.00    -0.352 N 
ATOM     33  H   UNL d   1      26.733 -12.300  -2.219  0.00  0.00     0.163 HD
BRANCH  32  34
ATOM     34  C   UNL d   1      26.901 -10.417  -3.138  0.00  0.00     0.084 C 
ATOM     35  C   UNL d   1      26.765 -11.128  -4.486  0.00  0.00     0.025 C 
ATOM     36  C   UNL d   1      26.408 -10.156  -5.605  0.00  0.00     0.002 C 
ATOM     37  C   UNL d   1      25.150  -9.362  -5.271  0.00  0.00     0.000 C 
ATOM     38  C   UNL d   1      25.301  -8.633  -3.940  0.00  0.00     0.002 C 
ATOM     39  C   UNL d   1      25.644  -9.601  -2.809  0.00  0.00     0.025 C 
ENDBRANCH  32  34
ENDBRANCH  28  30
ENDBRANCH  21  23
ENDBRANCH   1  21
TORSDOF 11
ENDMDL
MODEL 6
REMARK VINA RESULT:    -8.885      5.717     10.486
REMARK INTER + INTRA:         -13.798
REMARK INTER:                 -12.166
REMARK INTRA:                  -1.632
REMARK CONF_INDEPENDENT:        3.281
REMARK UNBOUND:                -1.632
REMARK  11 active torsions:
REMARK  status: ('A' for Active; 'I' for Inactive)
REMARK    1  A    between atoms: O_2  and  C_3 
REMARK    2  A    between atoms: C_3  and  C_4 
REMARK    3  A    between atoms: C_4  and  C_5 
REMARK    4  A    between atoms: C_5  and  N_6 
REMARK       I    between atoms: N_6  and  C_7 
REMARK    5  A    between atoms: C_7  and  C_9 
REMARK    6  A    between atoms: C_12  and  N_13 
REMARK       I    between atoms: N_13  and  C_14 
REMARK    7  A    between atoms: C_14  and  C_16 
REMARK    8  A    between atoms: C_16  and  N_17 
REMARK    9  A    between atoms: N_17  and  C_18 
REMARK   10  A    between atoms: C_23  and  C_24 
REMARK       I    between atoms: C_24  and  N_26 
REMARK   11  A    between atoms: N_26  and  C_27 
ROOT
ATOM      1  C   UNL d   1      25.768 -13.599  -4.138  0.00  0.00     0.223 C 
ENDROOT
BRANCH   1   2
ATOM      2  C   UNL d   1      26.652 -14.756  -4.643  0.00  0.00     0.239 C 
ATOM      3  N   UNL d   1      28.015 -14.696  -4.336  0.00  0.00    -0.326 N 
ATOM      4  H   UNL d   1      28.366 -13.890  -3.832  0.00  0.00     0.169 HD
ATOM      5  O   UNL d   1      26.106 -15.645  -5.303  0.00  0.00    -0.271 OA
BRANCH   3   6
ATOM      6  C   UNL d   1      28.981 -15.652  -4.780  0.00  0.00     0.034 A 
ATOM      7  C   UNL d   1      29.530 -15.583  -6.070  0.00  0.00     0.030 A 
ATOM      8  C   UNL d   1      30.401 -16.599  -6.533  0.00  0.00     0.019 A 
ATOM      9  C   UNL d   1      30.781 -17.659  -5.695  0.00  0.00     0.032 A 
ATOM     10  C   UNL d   1      30.275 -17.703  -4.405  0.00  0.00     0.019 A 
ATOM     11  C   UNL d   1      29.400 -16.708  -3.964  0.00  0.00     0.030 A 
BRANCH   9  12
ATOM     12  C   UNL d   1      31.821 -18.639  -6.107  0.00  0.00     0.251 C 
ATOM     13  N   UNL d   1      31.500 -19.982  -6.008  0.00  0.00    -0.357 N 
ATOM     14  H   UNL d   1      30.562 -20.263  -5.750  0.00  0.00     0.162 HD
ATOM     15  O   UNL d   1      32.914 -18.230  -6.492  0.00  0.00    -0.268 OA
BRANCH  13  16
ATOM     16  C   UNL d   1      32.468 -21.005  -6.367  0.00  0.00     0.125 C 
BRANCH  16  17
ATOM     17  C   UNL d   1      31.898 -22.067  -7.301  0.00  0.00     0.046 C 
BRANCH  17  18
ATOM     18  C   UNL d   1      31.965 -21.597  -8.750  0.00  0.00     0.168 C 
BRANCH  18  19
ATOM     19  O   UNL d   1      31.950 -20.171  -8.791  0.00  0.00    -0.396 OA
ATOM     20  C   UNL d   1      30.780 -19.697  -9.452  0.00  0.00     0.201 C 
ENDBRANCH  18  19
ENDBRANCH  17  18
ENDBRANCH  16  17
ENDBRANCH  13  16
ENDBRANCH   9  12
ENDBRANCH   3   6
ENDBRANCH   1   2
BRANCH   1  21
ATOM     21  N   UNL d   1      24.785 -14.142  -3.190  0.00  0.00    -0.381 N 
ATOM     22  H   UNL d   1      23.970 -13.539  -3.033  0.00  0.00     0.160 HD
BRANCH  21  23
ATOM     23  C   UNL d   1      25.015 -15.143  -2.275  0.00  0.00     0.029 A 
ATOM     24  C   UNL d   1      26.204 -15.139  -1.546  0.00  0.00     0.031 A 
ATOM     25  C   UNL d   1      26.471 -16.135  -0.607  0.00  0.00     0.027 A 
ATOM     26  C   UNL d   1      25.529 -17.135  -0.342  0.00  0.00     0.049 A 
ATOM     27 CL   UNL d   1      25.945 -18.207   0.953  0.00  0.00    -0.083 Cl
ATOM     28  C   UNL d   1      24.329 -17.182  -1.073  0.00  0.00     0.055 A 
ATOM     29  C   UNL d   1      24.094 -16.161  -2.020  0.00  0.00     0.048 A 
BRANCH  28  30
ATOM     30  C   UNL d   1      23.332 -18.292  -0.895  0.00  0.00     0.253 C 
ATOM     31  O   UNL d   1      23.288 -19.250  -1.667  0.00  0.00    -0.268 OA
ATOM     32  N   UNL d   1      22.439 -18.212   0.159  0.00  0.00    -0.352 N 
ATOM     33  H   UNL d   1      22.361 -17.383   0.724  0.00  0.00     0.163 HD
BRANCH  32  34
ATOM     34  C   UNL d   1      21.400 -19.215   0.352  0.00  0.00     0.084 C 
ATOM     35  C   UNL d   1      20.812 -19.074   1.758  0.00  0.00     0.025 C 
ATOM     36  C   UNL d   1      19.664 -20.048   1.992  0.00  0.00     0.002 C 
ATOM     37  C   UNL d   1      18.584 -19.902   0.925  0.00  0.00     0.000 C 
ATOM     38  C   UNL d   1      19.170 -20.071  -0.473  0.00  0.00     0.002 C 
ATOM     39  C   UNL d   1      20.312 -19.087  -0.722  0.00  0.00     0.025 C 
ENDBRANCH  32  34
ENDBRANCH  28  30
ENDBRANCH  21  23
ENDBRANCH   1  21
TORSDOF 11
ENDMDL
MODEL 7
REMARK VINA RESULT:    -8.864      5.854     10.258
REMARK INTER + INTRA:         -14.262
REMARK INTER:                 -12.145
REMARK INTRA:                  -2.117
REMARK CONF_INDEPENDENT:        3.281
REMARK UNBOUND:                -2.117
REMARK  11 active torsions:
REMARK  status: ('A' for Active; 'I' for Inactive)
REMARK    1  A    between atoms: O_2  and  C_3 
REMARK    2  A    between atoms: C_3  and  C_4 
REMARK    3  A    between atoms: C_4  and  C_5 
REMARK    4  A    between atoms: C_5  and  N_6 
REMARK       I    between atoms: N_6  and  C_7 
REMARK    5  A    between atoms: C_7  and  C_9 
REMARK    6  A    between atoms: C_12  and  N_13 
REMARK       I    between atoms: N_13  and  C_14 
REMARK    7  A    between atoms: C_14  and  C_16 
REMARK    8  A    between atoms: C_16  and  N_17 
REMARK    9  A    between atoms: N_17  and  C_18 
REMARK   10  A    between atoms: C_23  and  C_24 
REMARK       I    between atoms: C_24  and  N_26 
REMARK   11  A    between atoms: N_26  and  C_27 
ROOT
ATOM      1  C   UNL d   1      26.835 -13.464  -4.254  0.00  0.00     0.223 C 
ENDROOT
BRANCH   1   2
ATOM      2  C   UNL d   1      27.440 -14.674  -4.991  0.00  0.00     0.239 C 
ATOM      3  N   UNL d   1      28.780 -14.975  -4.730  0.00  0.00    -0.326 N 
ATOM      4  H   UNL d   1      29.301 -14.374  -4.101  0.00  0.00     0.169 HD
ATOM      5  O   UNL d   1      26.712 -15.283  -5.780  0.00  0.00    -0.271 OA
BRANCH   3   6
ATOM      6  C   UNL d   1      29.509 -16.023  -5.374  0.00  0.00     0.034 A 
ATOM      7  C   UNL d   1      29.761 -17.239  -4.719  0.00  0.00     0.030 A 
ATOM      8  C   UNL d   1      30.577 -18.224  -5.327  0.00  0.00     0.019 A 
ATOM      9  C   UNL d   1      31.099 -18.031  -6.616  0.00  0.00     0.032 A 
ATOM     10  C   UNL d   1      30.812 -16.849  -7.281  0.00  0.00     0.019 A 
ATOM     11  C   UNL d   1      30.023 -15.876  -6.666  0.00  0.00     0.030 A 
BRANCH   9  12
ATOM     12  C   UNL d   1      31.816 -19.120  -7.332  0.00  0.00     0.251 C 
ATOM     13  N   UNL d   1      31.447 -20.421  -7.037  0.00  0.00    -0.357 N 
ATOM     14  H   UNL d   1      30.660 -20.600  -6.425  0.00  0.00     0.162 HD
ATOM     15  O   UNL d   1      32.707 -18.833  -8.127  0.00  0.00    -0.268 OA
BRANCH  13  16
ATOM     16  C   UNL d   1      32.115 -21.544  -7.673  0.00  0.00     0.125 C 
BRANCH  16  17
ATOM     17  C   UNL d   1      32.233 -22.763  -6.764  0.00  0.00     0.046 C 
BRANCH  17  18
ATOM     18  C   UNL d   1      32.371 -22.333  -5.307  0.00  0.00     0.168 C 
BRANCH  18  19
ATOM     19  O   UNL d   1      31.123 -21.822  -4.841  0.00  0.00    -0.396 OA
ATOM     20  C   UNL d   1      30.933 -22.132  -3.463  0.00  0.00     0.201 C 
ENDBRANCH  18  19
ENDBRANCH  17  18
ENDBRANCH  16  17
ENDBRANCH  13  16
ENDBRANCH   9  12
ENDBRANCH   3   6
ENDBRANCH   1   2
BRANCH   1  21
ATOM     21  N   UNL d   1      25.661 -13.919  -3.495  0.00  0.00    -0.381 N 
ATOM     22  H   UNL d   1      24.892 -13.241  -3.460  0.00  0.00     0.160 HD
BRANCH  21  23
ATOM     23  C   UNL d   1      25.640 -14.947  -2.582  0.00  0.00     0.029 A 
ATOM     24  C   UNL d   1      26.843 -15.401  -2.041  0.00  0.00     0.031 A 
ATOM     25  C   UNL d   1      26.861 -16.439  -1.108  0.00  0.00     0.027 A 
ATOM     26  C   UNL d   1      25.667 -17.014  -0.660  0.00  0.00     0.049 A 
ATOM     27 CL   UNL d   1      25.848 -18.184   0.604  0.00  0.00    -0.083 Cl
ATOM     28  C   UNL d   1      24.439 -16.595  -1.201  0.00  0.00     0.055 A 
ATOM     29  C   UNL d   1      24.457 -15.547  -2.146  0.00  0.00     0.048 A 
BRANCH  28  30
ATOM     30  C   UNL d   1      23.140 -17.251  -0.825  0.00  0.00     0.253 C 
ATOM     31  O   UNL d   1      22.162 -16.592  -0.472  0.00  0.00    -0.268 OA
ATOM     32  N   UNL d   1      23.063 -18.633  -0.866  0.00  0.00    -0.352 N 
ATOM     33  H   UNL d   1      23.878 -19.203  -1.019  0.00  0.00     0.163 HD
BRANCH  32  34
ATOM     34  C   UNL d   1      21.860 -19.340  -0.448  0.00  0.00     0.084 C 
ATOM     35  C   UNL d   1      21.515 -18.950   0.991  0.00  0.00     0.025 C 
ATOM     36  C   UNL d   1      20.218 -19.599   1.458  0.00  0.00     0.002 C 
ATOM     37  C   UNL d   1      19.066 -19.284   0.510  0.00  0.00     0.000 C 
ATOM     38  C   UNL d   1      19.402 -19.701  -0.918  0.00  0.00     0.002 C 
ATOM     39  C   UNL d   1      20.694 -19.042  -1.400  0.00  0.00     0.025 C 
ENDBRANCH  32  34
ENDBRANCH  28  30
ENDBRANCH  21  23
ENDBRANCH   1  21
TORSDOF 11
ENDMDL
MODEL 8
REMARK VINA RESULT:    -8.828      5.827     10.998
REMARK INTER + INTRA:         -14.355
REMARK INTER:                 -12.109
REMARK INTRA:                  -2.246
REMARK CONF_INDEPENDENT:        3.281
REMARK UNBOUND:                -2.246
REMARK  11 active torsions:
REMARK  status: ('A' for Active; 'I' for Inactive)
REMARK    1  A    between atoms: O_2  and  C_3 
REMARK    2  A    between atoms: C_3  and  C_4 
REMARK    3  A    between atoms: C_4  and  C_5 
REMARK    4  A    between atoms: C_5  and  N_6 
REMARK       I    between atoms: N_6  and  C_7 
REMARK    5  A    between atoms: C_7  and  C_9 
REMARK    6  A    between atoms: C_12  and  N_13 
REMARK       I    between atoms: N_13  and  C_14 
REMARK    7  A    between atoms: C_14  and  C_16 
REMARK    8  A    between atoms: C_16  and  N_17 
REMARK    9  A    between atoms: N_17  and  C_18 
REMARK   10  A    between atoms: C_23  and  C_24 
REMARK       I    between atoms: C_24  and  N_26 
REMARK   11  A    between atoms: N_26  and  C_27 
ROOT
ATOM      1  C   UNL d   1      25.199 -13.452  -4.307  0.00  0.00     0.223 C 
ENDROOT
BRANCH   1   2
ATOM      2  C   UNL d   1      26.133 -14.574  -4.797  0.00  0.00     0.239 C 
ATOM      3  N   UNL d   1      27.508 -14.359  -4.670  0.00  0.00    -0.326 N 
ATOM      4  H   UNL d   1      27.831 -13.473  -4.298  0.00  0.00     0.169 HD
ATOM      5  O   UNL d   1      25.609 -15.577  -5.290  0.00  0.00    -0.271 OA
BRANCH   3   6
ATOM      6  C   UNL d   1      28.510 -15.269  -5.131  0.00  0.00     0.034 A 
ATOM      7  C   UNL d   1      29.035 -16.258  -4.285  0.00  0.00     0.030 A 
ATOM      8  C   UNL d   1      30.104 -17.080  -4.719  0.00  0.00     0.019 A 
ATOM      9  C   UNL d   1      30.617 -16.964  -6.021  0.00  0.00     0.032 A 
ATOM     10  C   UNL d   1      30.068 -16.018  -6.873  0.00  0.00     0.019 A 
ATOM     11  C   UNL d   1      29.029 -15.199  -6.428  0.00  0.00     0.030 A 
BRANCH   9  12
ATOM     12  C   UNL d   1      31.621 -17.928  -6.546  0.00  0.00     0.251 C 
ATOM     13  N   UNL d   1      31.815 -17.956  -7.917  0.00  0.00    -0.357 N 
ATOM     14  H   UNL d   1      31.349 -17.280  -8.510  0.00  0.00     0.162 HD
ATOM     15  O   UNL d   1      32.214 -18.666  -5.763  0.00  0.00    -0.268 OA
BRANCH  13  16
ATOM     16  C   UNL d   1      32.758 -18.885  -8.514  0.00  0.00     0.125 C 
BRANCH  16  17
ATOM     17  C   UNL d   1      34.161 -18.304  -8.657  0.00  0.00     0.046 C 
BRANCH  17  18
ATOM     18  C   UNL d   1      34.183 -17.216  -9.725  0.00  0.00     0.168 C 
BRANCH  18  19
ATOM     19  O   UNL d   1      33.109 -16.304  -9.499  0.00  0.00    -0.396 OA
ATOM     20  C   UNL d   1      33.605 -15.019  -9.135  0.00  0.00     0.201 C 
ENDBRANCH  18  19
ENDBRANCH  17  18
ENDBRANCH  16  17
ENDBRANCH  13  16
ENDBRANCH   9  12
ENDBRANCH   3   6
ENDBRANCH   1   2
BRANCH   1  21
ATOM     21  N   UNL d   1      24.866 -13.704  -2.897  0.00  0.00    -0.381 N 
ATOM     22  H   UNL d   1      24.653 -12.859  -2.355  0.00  0.00     0.160 HD
BRANCH  21  23
ATOM     23  C   UNL d   1      25.152 -14.851  -2.194  0.00  0.00     0.029 A 
ATOM     24  C   UNL d   1      26.428 -15.019  -1.655  0.00  0.00     0.031 A 
ATOM     25  C   UNL d   1      26.754 -16.167  -0.933  0.00  0.00     0.027 A 
ATOM     26  C   UNL d   1      25.792 -17.154  -0.693  0.00  0.00     0.049 A 
ATOM     27 CL   UNL d   1      26.309 -18.442   0.343  0.00  0.00    -0.083 Cl
ATOM     28  C   UNL d   1      24.503 -17.027  -1.239  0.00  0.00     0.055 A 
ATOM     29  C   UNL d   1      24.208 -15.855  -1.970  0.00  0.00     0.048 A 
BRANCH  28  30
ATOM     30  C   UNL d   1      23.468 -18.107  -1.093  0.00  0.00     0.253 C 
ATOM     31  O   UNL d   1      23.295 -18.958  -1.966  0.00  0.00    -0.268 OA
ATOM     32  N   UNL d   1      22.688 -18.121   0.050  0.00  0.00    -0.352 N 
ATOM     33  H   UNL d   1      22.712 -17.367   0.716  0.00  0.00     0.163 HD
BRANCH  32  34
ATOM     34  C   UNL d   1      21.618 -19.095   0.228  0.00  0.00     0.084 C 
ATOM     35  C   UNL d   1      21.030 -18.953   1.633  0.00  0.00     0.025 C 
ATOM     36  C   UNL d   1      19.852 -19.895   1.851  0.00  0.00     0.002 C 
ATOM     37  C   UNL d   1      18.781 -19.703   0.783  0.00  0.00     0.000 C 
ATOM     38  C   UNL d   1      19.366 -19.874  -0.615  0.00  0.00     0.002 C 
ATOM     39  C   UNL d   1      20.538 -18.922  -0.848  0.00  0.00     0.025 C 
ENDBRANCH  32  34
ENDBRANCH  28  30
ENDBRANCH  21  23
ENDBRANCH   1  21
TORSDOF 11
ENDMDL
MODEL 9
REMARK VINA RESULT:    -8.120      3.344     10.113
REMARK INTER + INTRA:         -13.646
REMARK INTER:                 -11.402
REMARK INTRA:                  -2.244
REMARK CONF_INDEPENDENT:        3.281
REMARK UNBOUND:                -2.244
REMARK  11 active torsions:
REMARK  status: ('A' for Active; 'I' for Inactive)
REMARK    1  A    between atoms: O_2  and  C_3 
REMARK    2  A    between atoms: C_3  and  C_4 
REMARK    3  A    between atoms: C_4  and  C_5 
REMARK    4  A    between atoms: C_5  and  N_6 
REMARK       I    between atoms: N_6  and  C_7 
REMARK    5  A    between atoms: C_7  and  C_9 
REMARK    6  A    between atoms: C_12  and  N_13 
REMARK       I    between atoms: N_13  and  C_14 
REMARK    7  A    between atoms: C_14  and  C_16 
REMARK    8  A    between atoms: C_16  and  N_17 
REMARK    9  A    between atoms: N_17  and  C_18 
REMARK   10  A    between atoms: C_23  and  C_24 
REMARK       I    between atoms: C_24  and  N_26 
REMARK   11  A    between atoms: N_26  and  C_27 
ROOT
ATOM      1  C   UNL d   1      30.160 -13.943   0.225  0.00  0.00     0.223 C 
ENDROOT
BRANCH   1   2
ATOM      2  C   UNL d   1      29.978 -13.458   1.676  0.00  0.00     0.239 C 
ATOM      3  N   UNL d   1      29.755 -14.435   2.651  0.00  0.00    -0.326 N 
ATOM      4  H   UNL d   1      29.690 -15.405   2.363  0.00  0.00     0.169 HD
ATOM      5  O   UNL d   1      30.017 -12.242   1.879  0.00  0.00    -0.271 OA
BRANCH   3   6
ATOM      6  C   UNL d   1      29.506 -14.152   4.030  0.00  0.00     0.034 A 
ATOM      7  C   UNL d   1      29.998 -12.983   4.631  0.00  0.00     0.030 A 
ATOM      8  C   UNL d   1      29.838 -12.769   6.022  0.00  0.00     0.019 A 
ATOM      9  C   UNL d   1      29.133 -13.689   6.814  0.00  0.00     0.032 A 
ATOM     10  C   UNL d   1      28.606 -14.821   6.213  0.00  0.00     0.019 A 
ATOM     11  C   UNL d   1      28.787 -15.033   4.845  0.00  0.00     0.030 A 
BRANCH   9  12
ATOM     12  C   UNL d   1      28.812 -13.399   8.238  0.00  0.00     0.251 C 
ATOM     13  N   UNL d   1      28.905 -14.450   9.134  0.00  0.00    -0.357 N 
ATOM     14  H   UNL d   1      29.263 -15.347   8.830  0.00  0.00     0.162 HD
ATOM     15  O   UNL d   1      28.462 -12.265   8.557  0.00  0.00    -0.268 OA
BRANCH  13  16
ATOM     16  C   UNL d   1      28.585 -14.258  10.538  0.00  0.00     0.125 C 
BRANCH  16  17
ATOM     17  C   UNL d   1      29.801 -14.378  11.450  0.00  0.00     0.046 C 
BRANCH  17  18
ATOM     18  C   UNL d   1      30.422 -15.766  11.335  0.00  0.00     0.168 C 
BRANCH  18  19
ATOM     19  O   UNL d   1      30.937 -15.950  10.017  0.00  0.00    -0.396 OA
ATOM     20  C   UNL d   1      31.848 -14.906   9.681  0.00  0.00     0.201 C 
ENDBRANCH  18  19
ENDBRANCH  17  18
ENDBRANCH  16  17
ENDBRANCH  13  16
ENDBRANCH   9  12
ENDBRANCH   3   6
ENDBRANCH   1   2
BRANCH   1  21
ATOM     21  N   UNL d   1      29.580 -12.940  -0.679  0.00  0.00    -0.381 N 
ATOM     22  H   UNL d   1      29.893 -11.979  -0.502  0.00  0.00     0.160 HD
BRANCH  21  23
ATOM     23  C   UNL d   1      28.452 -13.106  -1.448  0.00  0.00     0.029 A 
ATOM     24  C   UNL d   1      28.154 -12.163  -2.432  0.00  0.00     0.031 A 
ATOM     25  C   UNL d   1      27.021 -12.301  -3.235  0.00  0.00     0.027 A 
ATOM     26  C   UNL d   1      26.185 -13.415  -3.102  0.00  0.00     0.049 A 
ATOM     27 CL   UNL d   1      24.909 -13.514  -4.269  0.00  0.00    -0.083 Cl
ATOM     28  C   UNL d   1      26.444 -14.373  -2.106  0.00  0.00     0.055 A 
ATOM     29  C   UNL d   1      27.596 -14.200  -1.308  0.00  0.00     0.048 A 
BRANCH  28  30
ATOM     30  C   UNL d   1      25.520 -15.532  -1.860  0.00  0.00     0.253 C 
ATOM     31  O   UNL d   1      25.123 -16.248  -2.779  0.00  0.00    -0.268 OA
ATOM     32  N   UNL d   1      25.102 -15.776  -0.563  0.00  0.00    -0.352 N 
ATOM     33  H   UNL d   1      25.298 -15.134   0.186  0.00  0.00     0.163 HD
BRANCH  32  34
ATOM     34  C   UNL d   1      24.152 -16.839  -0.259  0.00  0.00     0.084 C 
ATOM     35  C   UNL d   1      22.800 -16.509  -0.897  0.00  0.00     0.025 C 
ATOM     36  C   UNL d   1      21.785 -17.625  -0.678  0.00  0.00     0.002 C 
ATOM     37  C   UNL d   1      22.316 -18.965  -1.174  0.00  0.00     0.000 C 
ATOM     38  C   UNL d   1      23.649 -19.303  -0.515  0.00  0.00     0.002 C 
ATOM     39  C   UNL d   1      24.678 -18.197  -0.742  0.00  0.00     0.025 C 
ENDBRANCH  32  34
ENDBRANCH  28  30
ENDBRANCH  21  23
ENDBRANCH   1  21
TORSDOF 11
ENDMDL
