MODEL 1
REMARK VINA RESULT:    -7.661      0.000      0.000
REMARK INTER + INTRA:          -9.740
REMARK INTER:                  -9.152
REMARK INTRA:                  -0.587
REMARK CONF_INDEPENDENT:        1.492
REMARK UNBOUND:                -0.587
REMARK  5 active torsions:
REMARK  status: ('A' for Active; 'I' for Inactive)
REMARK    1  A    between atoms: O_2  and  C_3 
REMARK    2  A    between atoms: C_9  and  C_10 
REMARK    3  A    between atoms: C_10  and  N_11 
REMARK    4  A    between atoms: C_12  and  C_13 
REMARK    5  A    between atoms: C_17  and  S_18 
ROOT
ATOM      1  C   UNL d   1      27.765 -11.888   1.591  0.00  0.00     0.113 A 
ATOM      2  C   UNL d   1      27.142 -10.702   1.926  0.00  0.00     0.139 A 
ATOM      3  C   UNL d   1      27.026 -10.293   3.235  0.00  0.00     0.108 A 
ATOM      4  C   UNL d   1      27.494 -11.043   4.285  0.00  0.00     0.047 A 
ATOM      5  C   UNL d   1      28.053 -12.291   3.996  0.00  0.00    -0.043 A 
ATOM      6  C   UNL d   1      28.200 -12.718   2.644  0.00  0.00     0.017 A 
ATOM      7  C   UNL d   1      28.828 -14.057   2.340  0.00  0.00     0.243 C 
ATOM      8  N   UNL d   1      29.669 -14.585   3.515  0.00  0.00    -0.065 N 
ATOM      9  C   UNL d   1      30.988 -13.875   3.614  0.00  0.00     0.270 C 
ATOM     10  C   UNL d   1      28.882 -14.552   4.801  0.00  0.00     0.240 C 
ATOM     11  C   UNL d   1      28.549 -13.111   5.163  0.00  0.00     0.067 C 
ATOM     12  O   UNL d   1      26.372  -9.108   3.360  0.00  0.00    -0.323 OA
ATOM     13  C   UNL d   1      25.860  -8.965   2.023  0.00  0.00     0.352 C 
ATOM     14  O   UNL d   1      26.535  -9.820   1.084  0.00  0.00    -0.320 OA
ATOM     15  H   UNL d   1      29.843 -15.574   3.264  0.00  0.00     0.280 HD
ENDROOT
BRANCH   7  16
ATOM     16  C   UNL d   1      27.782 -15.139   1.973  0.00  0.00     0.186 C 
BRANCH  16  17
ATOM     17  N   UNL d   1      27.534 -15.048   0.513  0.00  0.00    -0.302 NA
ATOM     18  C   UNL d   1      26.788 -16.026   0.108  0.00  0.00     0.107 C 
BRANCH  18  19
ATOM     19  C   UNL d   1      26.476 -16.283  -1.346  0.00  0.00     0.212 A 
ATOM     20  C   UNL d   1      25.064 -15.849  -1.549  0.00  0.00     0.263 A 
ATOM     21  O   UNL d   1      24.213 -16.253  -0.749  0.00  0.00    -0.270 OA
ATOM     22  N   UNL d   1      24.747 -14.951  -2.519  0.00  0.00    -0.188 NA
ATOM     23  C   UNL d   1      25.631 -14.553  -3.363  0.00  0.00     0.171 A 
ATOM     24  N   UNL d   1      26.952 -14.940  -3.357  0.00  0.00    -0.300 N 
ATOM     25  C   UNL d   1      27.914 -14.577  -4.403  0.00  0.00     0.161 C 
ATOM     26  C   UNL d   1      27.450 -15.760  -2.354  0.00  0.00     0.243 A 
ATOM     27  O   UNL d   1      28.632 -16.112  -2.314  0.00  0.00    -0.272 OA
BRANCH  23  28
ATOM     28  S   UNL d   1      25.078 -13.426  -4.583  0.00  0.00    -0.105 SA
ATOM     29  H   UNL d   1      24.017 -14.118  -5.024  0.00  0.00     0.110 HD
ENDBRANCH  23  28
ENDBRANCH  18  19
ENDBRANCH  16  17
ENDBRANCH   7  16
BRANCH   1  30
ATOM     30  O   UNL d   1      27.913 -12.349   0.311  0.00  0.00    -0.352 OA
ATOM     31  C   UNL d   1      28.961 -11.705  -0.424  0.00  0.00     0.210 C 
ENDBRANCH   1  30
TORSDOF 5
ENDMDL
MODEL 2
REMARK VINA RESULT:    -7.465      3.739      5.512
REMARK INTER + INTRA:         -10.313
REMARK INTER:                  -8.957
REMARK INTRA:                  -1.356
REMARK CONF_INDEPENDENT:        1.492
REMARK UNBOUND:                -1.356
REMARK  5 active torsions:
REMARK  status: ('A' for Active; 'I' for Inactive)
REMARK    1  A    between atoms: O_2  and  C_3 
REMARK    2  A    between atoms: C_9  and  C_10 
REMARK    3  A    between atoms: C_10  and  N_11 
REMARK    4  A    between atoms: C_12  and  C_13 
REMARK    5  A    between atoms: C_17  and  S_18 
ROOT
ATOM      1  C   UNL d   1      27.630 -14.030  -2.303  0.00  0.00     0.113 A 
ATOM      2  C   UNL d   1      26.520 -13.760  -3.079  0.00  0.00     0.139 A 
ATOM      3  C   UNL d   1      25.356 -14.483  -2.947  0.00  0.00     0.108 A 
ATOM      4  C   UNL d   1      25.233 -15.526  -2.063  0.00  0.00     0.047 A 
ATOM      5  C   UNL d   1      26.360 -15.889  -1.322  0.00  0.00    -0.043 A 
ATOM      6  C   UNL d   1      27.565 -15.136  -1.431  0.00  0.00     0.017 A 
ATOM      7  C   UNL d   1      28.772 -15.520  -0.607  0.00  0.00     0.243 C 
ATOM      8  N   UNL d   1      28.395 -16.387   0.606  0.00  0.00    -0.065 N 
ATOM      9  C   UNL d   1      27.780 -15.565   1.703  0.00  0.00     0.270 C 
ATOM     10  C   UNL d   1      27.537 -17.555   0.190  0.00  0.00     0.240 C 
ATOM     11  C   UNL d   1      26.213 -17.048  -0.365  0.00  0.00     0.067 C 
ATOM     12  O   UNL d   1      24.384 -14.075  -3.805  0.00  0.00    -0.323 OA
ATOM     13  C   UNL d   1      25.154 -13.214  -4.662  0.00  0.00     0.352 C 
ATOM     14  O   UNL d   1      26.409 -12.833  -4.070  0.00  0.00    -0.320 OA
ATOM     15  H   UNL d   1      29.305 -16.751   0.936  0.00  0.00     0.280 HD
ENDROOT
BRANCH   7  16
ATOM     16  C   UNL d   1      29.840 -16.282  -1.430  0.00  0.00     0.186 C 
BRANCH  16  17
ATOM     17  N   UNL d   1      29.278 -16.523  -2.782  0.00  0.00    -0.302 NA
ATOM     18  C   UNL d   1      30.140 -16.229  -3.702  0.00  0.00     0.107 C 
BRANCH  18  19
ATOM     19  C   UNL d   1      29.817 -16.239  -5.176  0.00  0.00     0.212 A 
ATOM     20  C   UNL d   1      28.488 -15.575  -5.311  0.00  0.00     0.263 A 
ATOM     21  O   UNL d   1      27.574 -15.950  -4.569  0.00  0.00    -0.270 OA
ATOM     22  N   UNL d   1      28.324 -14.517  -6.149  0.00  0.00    -0.188 NA
ATOM     23  C   UNL d   1      29.271 -14.146  -6.936  0.00  0.00     0.171 A 
ATOM     24  N   UNL d   1      30.519 -14.725  -6.988  0.00  0.00    -0.300 N 
ATOM     25  C   UNL d   1      31.540 -14.372  -7.980  0.00  0.00     0.161 C 
ATOM     26  C   UNL d   1      30.873 -15.737  -6.108  0.00  0.00     0.243 A 
ATOM     27  O   UNL d   1      31.989 -16.264  -6.121  0.00  0.00    -0.272 OA
BRANCH  23  28
ATOM     28  S   UNL d   1      28.912 -12.795  -7.989  0.00  0.00    -0.105 SA
ATOM     29  H   UNL d   1      28.991 -13.436  -9.165  0.00  0.00     0.110 HD
ENDBRANCH  23  28
ENDBRANCH  18  19
ENDBRANCH  16  17
ENDBRANCH   7  16
BRANCH   1  30
ATOM     30  O   UNL d   1      28.815 -13.349  -2.385  0.00  0.00    -0.352 OA
ATOM     31  C   UNL d   1      28.673 -11.924  -2.346  0.00  0.00     0.210 C 
ENDBRANCH   1  30
TORSDOF 5
ENDMDL
MODEL 3
REMARK VINA RESULT:    -7.182      3.984      5.982
REMARK INTER + INTRA:          -9.623
REMARK INTER:                  -8.674
REMARK INTRA:                  -0.949
REMARK CONF_INDEPENDENT:        1.492
REMARK UNBOUND:                -0.949
REMARK  5 active torsions:
REMARK  status: ('A' for Active; 'I' for Inactive)
REMARK    1  A    between atoms: O_2  and  C_3 
REMARK    2  A    between atoms: C_9  and  C_10 
REMARK    3  A    between atoms: C_10  and  N_11 
REMARK    4  A    between atoms: C_12  and  C_13 
REMARK    5  A    between atoms: C_17  and  S_18 
ROOT
ATOM      1  C   UNL d   1      27.588 -14.202  -2.334  0.00  0.00     0.113 A 
ATOM      2  C   UNL d   1      26.470 -13.893  -3.084  0.00  0.00     0.139 A 
ATOM      3  C   UNL d   1      25.268 -14.533  -2.884  0.00  0.00     0.108 A 
ATOM      4  C   UNL d   1      25.110 -15.528  -1.951  0.00  0.00     0.047 A 
ATOM      5  C   UNL d   1      26.238 -15.931  -1.231  0.00  0.00    -0.043 A 
ATOM      6  C   UNL d   1      27.483 -15.264  -1.412  0.00  0.00     0.017 A 
ATOM      7  C   UNL d   1      28.691 -15.690  -0.612  0.00  0.00     0.243 C 
ATOM      8  N   UNL d   1      28.302 -16.480   0.650  0.00  0.00    -0.065 N 
ATOM      9  C   UNL d   1      27.780 -15.575   1.729  0.00  0.00     0.270 C 
ATOM     10  C   UNL d   1      27.359 -17.606   0.314  0.00  0.00     0.240 C 
ATOM     11  C   UNL d   1      26.051 -17.038  -0.221  0.00  0.00     0.067 C 
ATOM     12  O   UNL d   1      24.294 -14.099  -3.727  0.00  0.00    -0.323 OA
ATOM     13  C   UNL d   1      25.088 -13.326  -4.645  0.00  0.00     0.352 C 
ATOM     14  O   UNL d   1      26.384 -13.003  -4.111  0.00  0.00    -0.320 OA
ATOM     15  H   UNL d   1      29.199 -16.888   0.966  0.00  0.00     0.280 HD
ENDROOT
BRANCH   7  16
ATOM     16  C   UNL d   1      29.679 -16.554  -1.434  0.00  0.00     0.186 C 
BRANCH  16  17
ATOM     17  N   UNL d   1      29.102 -16.729  -2.790  0.00  0.00    -0.302 NA
ATOM     18  C   UNL d   1      30.029 -16.705  -3.695  0.00  0.00     0.107 C 
BRANCH  18  19
ATOM     19  C   UNL d   1      29.742 -16.720  -5.176  0.00  0.00     0.212 A 
ATOM     20  C   UNL d   1      29.847 -15.304  -5.632  0.00  0.00     0.263 A 
ATOM     21  O   UNL d   1      29.241 -14.441  -4.987  0.00  0.00    -0.270 OA
ATOM     22  N   UNL d   1      30.671 -14.965  -6.658  0.00  0.00    -0.188 NA
ATOM     23  C   UNL d   1      31.281 -15.868  -7.340  0.00  0.00     0.171 A 
ATOM     24  N   UNL d   1      31.205 -17.221  -7.095  0.00  0.00    -0.300 N 
ATOM     25  C   UNL d   1      31.803 -18.241  -7.962  0.00  0.00     0.161 C 
ATOM     26  C   UNL d   1      30.496 -17.709  -6.006  0.00  0.00     0.243 A 
ATOM     27  O   UNL d   1      30.423 -18.915  -5.752  0.00  0.00    -0.272 OA
BRANCH  23  28
ATOM     28  S   UNL d   1      32.280 -15.294  -8.657  0.00  0.00    -0.105 SA
ATOM     29  H   UNL d   1      31.401 -14.451  -9.218  0.00  0.00     0.110 HD
ENDBRANCH  23  28
ENDBRANCH  18  19
ENDBRANCH  16  17
ENDBRANCH   7  16
BRANCH   1  30
ATOM     30  O   UNL d   1      28.809 -13.603  -2.484  0.00  0.00    -0.352 OA
ATOM     31  C   UNL d   1      28.797 -12.188  -2.263  0.00  0.00     0.210 C 
ENDBRANCH   1  30
TORSDOF 5
ENDMDL
MODEL 4
REMARK VINA RESULT:    -7.046      3.222      6.626
REMARK INTER + INTRA:          -9.432
REMARK INTER:                  -8.537
REMARK INTRA:                  -0.895
REMARK CONF_INDEPENDENT:        1.492
REMARK UNBOUND:                -0.895
REMARK  5 active torsions:
REMARK  status: ('A' for Active; 'I' for Inactive)
REMARK    1  A    between atoms: O_2  and  C_3 
REMARK    2  A    between atoms: C_9  and  C_10 
REMARK    3  A    between atoms: C_10  and  N_11 
REMARK    4  A    between atoms: C_12  and  C_13 
REMARK    5  A    between atoms: C_17  and  S_18 
ROOT
ATOM      1  C   UNL d   1      26.244 -16.018  -2.285  0.00  0.00     0.113 A 
ATOM      2  C   UNL d   1      25.954 -14.974  -3.142  0.00  0.00     0.139 A 
ATOM      3  C   UNL d   1      26.868 -13.978  -3.400  0.00  0.00     0.108 A 
ATOM      4  C   UNL d   1      28.105 -13.944  -2.808  0.00  0.00     0.047 A 
ATOM      5  C   UNL d   1      28.406 -14.933  -1.868  0.00  0.00    -0.043 A 
ATOM      6  C   UNL d   1      27.479 -15.983  -1.607  0.00  0.00     0.017 A 
ATOM      7  C   UNL d   1      27.822 -17.062  -0.608  0.00  0.00     0.243 C 
ATOM      8  N   UNL d   1      29.336 -17.155  -0.350  0.00  0.00    -0.065 N 
ATOM      9  C   UNL d   1      30.049 -17.835  -1.484  0.00  0.00     0.270 C 
ATOM     10  C   UNL d   1      29.911 -15.802  -0.017  0.00  0.00     0.240 C 
ATOM     11  C   UNL d   1      29.766 -14.872  -1.214  0.00  0.00     0.067 C 
ATOM     12  O   UNL d   1      26.392 -13.037  -4.258  0.00  0.00    -0.323 OA
ATOM     13  C   UNL d   1      25.002 -13.407  -4.286  0.00  0.00     0.352 C 
ATOM     14  O   UNL d   1      24.780 -14.740  -3.794  0.00  0.00    -0.320 OA
ATOM     15  H   UNL d   1      29.402 -17.754   0.491  0.00  0.00     0.280 HD
ENDROOT
BRANCH   7  16
ATOM     16  C   UNL d   1      27.114 -16.863   0.755  0.00  0.00     0.186 C 
BRANCH  16  17
ATOM     17  N   UNL d   1      27.107 -15.408   1.049  0.00  0.00    -0.302 NA
ATOM     18  C   UNL d   1      27.782 -15.150   2.124  0.00  0.00     0.107 C 
BRANCH  18  19
ATOM     19  C   UNL d   1      27.844 -13.781   2.756  0.00  0.00     0.212 A 
ATOM     20  C   UNL d   1      28.102 -14.007   4.207  0.00  0.00     0.263 A 
ATOM     21  O   UNL d   1      27.395 -14.828   4.801  0.00  0.00    -0.270 OA
ATOM     22  N   UNL d   1      29.152 -13.406   4.826  0.00  0.00    -0.188 NA
ATOM     23  C   UNL d   1      29.870 -12.534   4.211  0.00  0.00     0.171 A 
ATOM     24  N   UNL d   1      29.691 -12.156   2.899  0.00  0.00    -0.300 N 
ATOM     25  C   UNL d   1      30.435 -11.069   2.256  0.00  0.00     0.161 C 
ATOM     26  C   UNL d   1      28.733 -12.771   2.104  0.00  0.00     0.243 A 
ATOM     27  O   UNL d   1      28.560 -12.463   0.922  0.00  0.00    -0.272 OA
BRANCH  23  28
ATOM     28  S   UNL d   1      31.166 -11.811   5.139  0.00  0.00    -0.105 SA
ATOM     29  H   UNL d   1      32.064 -12.802   5.028  0.00  0.00     0.110 HD
ENDBRANCH  23  28
ENDBRANCH  18  19
ENDBRANCH  16  17
ENDBRANCH   7  16
BRANCH   1  30
ATOM     30  O   UNL d   1      25.380 -17.038  -1.989  0.00  0.00    -0.352 OA
ATOM     31  C   UNL d   1      24.211 -16.623  -1.273  0.00  0.00     0.210 C 
ENDBRANCH   1  30
TORSDOF 5
ENDMDL
MODEL 5
REMARK VINA RESULT:    -6.774      4.521      6.849
REMARK INTER + INTRA:          -9.543
REMARK INTER:                  -8.265
REMARK INTRA:                  -1.278
REMARK CONF_INDEPENDENT:        1.492
REMARK UNBOUND:                -1.278
REMARK  5 active torsions:
REMARK  status: ('A' for Active; 'I' for Inactive)
REMARK    1  A    between atoms: O_2  and  C_3 
REMARK    2  A    between atoms: C_9  and  C_10 
REMARK    3  A    between atoms: C_10  and  N_11 
REMARK    4  A    between atoms: C_12  and  C_13 
REMARK    5  A    between atoms: C_17  and  S_18 
ROOT
ATOM      1  C   UNL d   1      25.244 -15.614  -1.254  0.00  0.00     0.113 A 
ATOM      2  C   UNL d   1      24.120 -16.324  -0.877  0.00  0.00     0.139 A 
ATOM      3  C   UNL d   1      24.216 -17.546  -0.251  0.00  0.00     0.108 A 
ATOM      4  C   UNL d   1      25.422 -18.145   0.014  0.00  0.00     0.047 A 
ATOM      5  C   UNL d   1      26.581 -17.502  -0.430  0.00  0.00    -0.043 A 
ATOM      6  C   UNL d   1      26.499 -16.226  -1.059  0.00  0.00     0.017 A 
ATOM      7  C   UNL d   1      27.758 -15.527  -1.513  0.00  0.00     0.243 C 
ATOM      8  N   UNL d   1      29.011 -16.068  -0.803  0.00  0.00    -0.065 N 
ATOM      9  C   UNL d   1      29.113 -15.557   0.605  0.00  0.00     0.270 C 
ATOM     10  C   UNL d   1      29.076 -17.572  -0.893  0.00  0.00     0.240 C 
ATOM     11  C   UNL d   1      27.899 -18.182  -0.145  0.00  0.00     0.067 C 
ATOM     12  O   UNL d   1      23.002 -18.089   0.029  0.00  0.00    -0.323 OA
ATOM     13  C   UNL d   1      22.155 -17.209  -0.731  0.00  0.00     0.352 C 
ATOM     14  O   UNL d   1      22.818 -15.984  -1.088  0.00  0.00    -0.320 OA
ATOM     15  H   UNL d   1      29.792 -15.674  -1.357  0.00  0.00     0.280 HD
ENDROOT
BRANCH   7  16
ATOM     16  C   UNL d   1      27.986 -15.637  -3.041  0.00  0.00     0.186 C 
BRANCH  16  17
ATOM     17  N   UNL d   1      29.379 -16.102  -3.256  0.00  0.00    -0.302 NA
ATOM     18  C   UNL d   1      29.482 -16.760  -4.367  0.00  0.00     0.107 C 
BRANCH  18  19
ATOM     19  C   UNL d   1      30.741 -17.475  -4.793  0.00  0.00     0.212 A 
ATOM     20  C   UNL d   1      31.180 -18.277  -3.615  0.00  0.00     0.263 A 
ATOM     21  O   UNL d   1      31.242 -17.710  -2.518  0.00  0.00    -0.270 OA
ATOM     22  N   UNL d   1      31.397 -19.613  -3.728  0.00  0.00    -0.188 NA
ATOM     23  C   UNL d   1      31.354 -20.194  -4.874  0.00  0.00     0.171 A 
ATOM     24  N   UNL d   1      31.055 -19.564  -6.061  0.00  0.00    -0.300 N 
ATOM     25  C   UNL d   1      31.137 -20.215  -7.373  0.00  0.00     0.161 C 
ATOM     26  C   UNL d   1      30.693 -18.224  -6.086  0.00  0.00     0.243 A 
ATOM     27  O   UNL d   1      30.405 -17.637  -7.132  0.00  0.00    -0.272 OA
BRANCH  23  28
ATOM     28  S   UNL d   1      31.692 -21.911  -4.881  0.00  0.00    -0.105 SA
ATOM     29  H   UNL d   1      30.503 -22.344  -5.326  0.00  0.00     0.110 HD
ENDBRANCH  23  28
ENDBRANCH  18  19
ENDBRANCH  16  17
ENDBRANCH   7  16
BRANCH   1  30
ATOM     30  O   UNL d   1      25.216 -14.396  -1.877  0.00  0.00    -0.352 OA
ATOM     31  C   UNL d   1      24.856 -14.457  -3.262  0.00  0.00     0.210 C 
ENDBRANCH   1  30
TORSDOF 5
ENDMDL
MODEL 6
REMARK VINA RESULT:    -6.440      3.066      7.464
REMARK INTER + INTRA:         -10.007
REMARK INTER:                  -7.932
REMARK INTRA:                  -2.075
REMARK CONF_INDEPENDENT:        1.492
REMARK UNBOUND:                -2.075
REMARK  5 active torsions:
REMARK  status: ('A' for Active; 'I' for Inactive)
REMARK    1  A    between atoms: O_2  and  C_3 
REMARK    2  A    between atoms: C_9  and  C_10 
REMARK    3  A    between atoms: C_10  and  N_11 
REMARK    4  A    between atoms: C_12  and  C_13 
REMARK    5  A    between atoms: C_17  and  S_18 
ROOT
ATOM      1  C   UNL d   1      26.911 -15.384  -3.410  0.00  0.00     0.113 A 
ATOM      2  C   UNL d   1      27.670 -15.458  -4.562  0.00  0.00     0.139 A 
ATOM      3  C   UNL d   1      29.008 -15.778  -4.524  0.00  0.00     0.108 A 
ATOM      4  C   UNL d   1      29.675 -16.015  -3.348  0.00  0.00     0.047 A 
ATOM      5  C   UNL d   1      28.965 -15.865  -2.154  0.00  0.00    -0.043 A 
ATOM      6  C   UNL d   1      27.574 -15.556  -2.178  0.00  0.00     0.017 A 
ATOM      7  C   UNL d   1      26.808 -15.419  -0.884  0.00  0.00     0.243 C 
ATOM      8  N   UNL d   1      27.526 -16.106   0.291  0.00  0.00    -0.065 N 
ATOM      9  C   UNL d   1      27.371 -17.598   0.238  0.00  0.00     0.270 C 
ATOM     10  C   UNL d   1      28.965 -15.664   0.378  0.00  0.00     0.240 C 
ATOM     11  C   UNL d   1      29.717 -16.114  -0.868  0.00  0.00     0.067 C 
ATOM     12  O   UNL d   1      29.582 -15.789  -5.756  0.00  0.00    -0.323 OA
ATOM     13  C   UNL d   1      28.530 -15.179  -6.524  0.00  0.00     0.352 C 
ATOM     14  O   UNL d   1      27.267 -15.199  -5.837  0.00  0.00    -0.320 OA
ATOM     15  H   UNL d   1      27.025 -15.749   1.123  0.00  0.00     0.280 HD
ENDROOT
BRANCH   7  16
ATOM     16  C   UNL d   1      26.551 -13.943  -0.494  0.00  0.00     0.186 C 
BRANCH  16  17
ATOM     17  N   UNL d   1      26.281 -13.904   0.965  0.00  0.00    -0.302 NA
ATOM     18  C   UNL d   1      27.093 -13.093   1.565  0.00  0.00     0.107 C 
BRANCH  18  19
ATOM     19  C   UNL d   1      27.156 -12.943   3.066  0.00  0.00     0.212 A 
ATOM     20  C   UNL d   1      28.020 -14.055   3.556  0.00  0.00     0.263 A 
ATOM     21  O   UNL d   1      27.780 -15.198   3.151  0.00  0.00    -0.270 OA
ATOM     22  N   UNL d   1      29.103 -13.799   4.336  0.00  0.00    -0.188 NA
ATOM     23  C   UNL d   1      29.335 -12.613   4.774  0.00  0.00     0.171 A 
ATOM     24  N   UNL d   1      28.571 -11.506   4.482  0.00  0.00    -0.300 N 
ATOM     25  C   UNL d   1      28.777 -10.189   5.093  0.00  0.00     0.161 C 
ATOM     26  C   UNL d   1      27.502 -11.590   3.600  0.00  0.00     0.243 A 
ATOM     27  O   UNL d   1      26.809 -10.612   3.307  0.00  0.00    -0.272 OA
BRANCH  23  28
ATOM     28  S   UNL d   1      30.742 -12.433   5.800  0.00  0.00    -0.105 SA
ATOM     29  H   UNL d   1      31.542 -13.324   5.196  0.00  0.00     0.110 HD
ENDBRANCH  23  28
ENDBRANCH  18  19
ENDBRANCH  16  17
ENDBRANCH   7  16
BRANCH   1  30
ATOM     30  O   UNL d   1      25.578 -15.073  -3.382  0.00  0.00    -0.352 OA
ATOM     31  C   UNL d   1      25.265 -13.792  -3.941  0.00  0.00     0.210 C 
ENDBRANCH   1  30
TORSDOF 5
ENDMDL
MODEL 7
REMARK VINA RESULT:    -6.143      3.844      7.621
REMARK INTER + INTRA:          -9.511
REMARK INTER:                  -7.635
REMARK INTRA:                  -1.876
REMARK CONF_INDEPENDENT:        1.492
REMARK UNBOUND:                -1.876
REMARK  5 active torsions:
REMARK  status: ('A' for Active; 'I' for Inactive)
REMARK    1  A    between atoms: O_2  and  C_3 
REMARK    2  A    between atoms: C_9  and  C_10 
REMARK    3  A    between atoms: C_10  and  N_11 
REMARK    4  A    between atoms: C_12  and  C_13 
REMARK    5  A    between atoms: C_17  and  S_18 
ROOT
ATOM      1  C   UNL d   1      26.644 -15.744  -1.799  0.00  0.00     0.113 A 
ATOM      2  C   UNL d   1      26.434 -15.603  -3.158  0.00  0.00     0.139 A 
ATOM      3  C   UNL d   1      27.459 -15.280  -4.016  0.00  0.00     0.108 A 
ATOM      4  C   UNL d   1      28.740 -15.052  -3.580  0.00  0.00     0.047 A 
ATOM      5  C   UNL d   1      28.978 -15.098  -2.204  0.00  0.00    -0.043 A 
ATOM      6  C   UNL d   1      27.931 -15.454  -1.305  0.00  0.00     0.017 A 
ATOM      7  C   UNL d   1      28.204 -15.525   0.179  0.00  0.00     0.243 C 
ATOM      8  N   UNL d   1      29.704 -15.672   0.489  0.00  0.00    -0.065 N 
ATOM      9  C   UNL d   1      30.187 -17.069   0.229  0.00  0.00     0.270 C 
ATOM     10  C   UNL d   1      30.510 -14.623  -0.235  0.00  0.00     0.240 C 
ATOM     11  C   UNL d   1      30.390 -14.829  -1.738  0.00  0.00     0.067 C 
ATOM     12  O   UNL d   1      27.050 -15.176  -5.308  0.00  0.00    -0.323 OA
ATOM     13  C   UNL d   1      25.624 -15.199  -5.120  0.00  0.00     0.352 C 
ATOM     14  O   UNL d   1      25.251 -15.705  -3.826  0.00  0.00    -0.320 OA
ATOM     15  H   UNL d   1      29.761 -15.484   1.505  0.00  0.00     0.280 HD
ENDROOT
BRANCH   7  16
ATOM     16  C   UNL d   1      27.673 -14.287   0.945  0.00  0.00     0.186 C 
BRANCH  16  17
ATOM     17  N   UNL d   1      28.608 -14.019   2.066  0.00  0.00    -0.302 NA
ATOM     18  C   UNL d   1      28.200 -14.590   3.155  0.00  0.00     0.107 C 
BRANCH  18  19
ATOM     19  C   UNL d   1      28.864 -14.387   4.496  0.00  0.00     0.212 A 
ATOM     20  C   UNL d   1      30.294 -14.079   4.207  0.00  0.00     0.263 A 
ATOM     21  O   UNL d   1      30.900 -14.820   3.426  0.00  0.00    -0.270 OA
ATOM     22  N   UNL d   1      30.874 -12.955   4.703  0.00  0.00    -0.188 NA
ATOM     23  C   UNL d   1      30.247 -12.200   5.533  0.00  0.00     0.171 A 
ATOM     24  N   UNL d   1      28.956 -12.411   5.964  0.00  0.00    -0.300 N 
ATOM     25  C   UNL d   1      28.304 -11.613   7.007  0.00  0.00     0.161 C 
ATOM     26  C   UNL d   1      28.195 -13.452   5.451  0.00  0.00     0.243 A 
ATOM     27  O   UNL d   1      27.031 -13.656   5.807  0.00  0.00    -0.272 OA
BRANCH  23  28
ATOM     28  S   UNL d   1      31.126 -10.806   6.122  0.00  0.00    -0.105 SA
ATOM     29  H   UNL d   1      32.370 -11.231   5.857  0.00  0.00     0.110 HD
ENDBRANCH  23  28
ENDBRANCH  18  19
ENDBRANCH  16  17
ENDBRANCH   7  16
BRANCH   1  30
ATOM     30  O   UNL d   1      25.668 -16.065  -0.895  0.00  0.00    -0.352 OA
ATOM     31  C   UNL d   1      25.020 -17.315  -1.154  0.00  0.00     0.210 C 
ENDBRANCH   1  30
TORSDOF 5
ENDMDL
MODEL 8
REMARK VINA RESULT:    -5.911      2.219      3.161
REMARK INTER + INTRA:          -9.522
REMARK INTER:                  -7.403
REMARK INTRA:                  -2.120
REMARK CONF_INDEPENDENT:        1.492
REMARK UNBOUND:                -2.120
REMARK  5 active torsions:
REMARK  status: ('A' for Active; 'I' for Inactive)
REMARK    1  A    between atoms: O_2  and  C_3 
REMARK    2  A    between atoms: C_9  and  C_10 
REMARK    3  A    between atoms: C_10  and  N_11 
REMARK    4  A    between atoms: C_12  and  C_13 
REMARK    5  A    between atoms: C_17  and  S_18 
ROOT
ATOM      1  C   UNL d   1      28.269 -12.851  -1.593  0.00  0.00     0.113 A 
ATOM      2  C   UNL d   1      27.834 -11.547  -1.731  0.00  0.00     0.139 A 
ATOM      3  C   UNL d   1      27.414 -10.809  -0.648  0.00  0.00     0.108 A 
ATOM      4  C   UNL d   1      27.376 -11.324   0.623  0.00  0.00     0.047 A 
ATOM      5  C   UNL d   1      27.724 -12.667   0.794  0.00  0.00    -0.043 A 
ATOM      6  C   UNL d   1      28.182 -13.437  -0.314  0.00  0.00     0.017 A 
ATOM      7  C   UNL d   1      28.579 -14.881  -0.117  0.00  0.00     0.243 C 
ATOM      8  N   UNL d   1      28.895 -15.200   1.355  0.00  0.00    -0.065 N 
ATOM      9  C   UNL d   1      30.240 -14.668   1.759  0.00  0.00     0.270 C 
ATOM     10  C   UNL d   1      27.780 -14.740   2.259  0.00  0.00     0.240 C 
ATOM     11  C   UNL d   1      27.661 -13.223   2.196  0.00  0.00     0.067 C 
ATOM     12  O   UNL d   1      27.015  -9.555  -0.989  0.00  0.00    -0.323 OA
ATOM     13  C   UNL d   1      26.974  -9.689  -2.421  0.00  0.00     0.352 C 
ATOM     14  O   UNL d   1      27.709 -10.835  -2.885  0.00  0.00    -0.320 OA
ATOM     15  H   UNL d   1      28.927 -16.234   1.377  0.00  0.00     0.280 HD
ENDROOT
BRANCH   7  16
ATOM     16  C   UNL d   1      27.493 -15.872  -0.601  0.00  0.00     0.186 C 
BRANCH  16  17
ATOM     17  N   UNL d   1      26.677 -15.178  -1.628  0.00  0.00    -0.302 NA
ATOM     18  C   UNL d   1      26.795 -15.755  -2.782  0.00  0.00     0.107 C 
BRANCH  18  19
ATOM     19  C   UNL d   1      26.196 -15.200  -4.051  0.00  0.00     0.212 A 
ATOM     20  C   UNL d   1      25.155 -14.222  -3.624  0.00  0.00     0.263 A 
ATOM     21  O   UNL d   1      24.337 -14.581  -2.770  0.00  0.00    -0.270 OA
ATOM     22  N   UNL d   1      25.176 -12.942  -4.082  0.00  0.00    -0.188 NA
ATOM     23  C   UNL d   1      26.014 -12.580  -4.988  0.00  0.00     0.171 A 
ATOM     24  N   UNL d   1      26.971 -13.399  -5.544  0.00  0.00    -0.300 N 
ATOM     25  C   UNL d   1      27.830 -13.004  -6.665  0.00  0.00     0.161 C 
ATOM     26  C   UNL d   1      27.148 -14.698  -5.090  0.00  0.00     0.243 A 
ATOM     27  O   UNL d   1      28.007 -15.450  -5.558  0.00  0.00    -0.272 OA
BRANCH  23  28
ATOM     28  S   UNL d   1      25.906 -10.914  -5.513  0.00  0.00    -0.105 SA
ATOM     29  H   UNL d   1      26.861 -10.397  -4.726  0.00  0.00     0.110 HD
ENDBRANCH  23  28
ENDBRANCH  18  19
ENDBRANCH  16  17
ENDBRANCH   7  16
BRANCH   1  30
ATOM     30  O   UNL d   1      28.699 -13.636  -2.629  0.00  0.00    -0.352 OA
ATOM     31  C   UNL d   1      29.866 -13.138  -3.293  0.00  0.00     0.210 C 
ENDBRANCH   1  30
TORSDOF 5
ENDMDL
MODEL 9
REMARK VINA RESULT:    -5.289      3.827      6.460
REMARK INTER + INTRA:          -9.372
REMARK INTER:                  -6.781
REMARK INTRA:                  -2.591
REMARK CONF_INDEPENDENT:        1.492
REMARK UNBOUND:                -2.591
REMARK  5 active torsions:
REMARK  status: ('A' for Active; 'I' for Inactive)
REMARK    1  A    between atoms: O_2  and  C_3 
REMARK    2  A    between atoms: C_9  and  C_10 
REMARK    3  A    between atoms: C_10  and  N_11 
REMARK    4  A    between atoms: C_12  and  C_13 
REMARK    5  A    between atoms: C_17  and  S_18 
ROOT
ATOM      1  C   UNL d   1      26.495 -15.482  -3.377  0.00  0.00     0.113 A 
ATOM      2  C   UNL d   1      27.199 -15.388  -4.562  0.00  0.00     0.139 A 
ATOM      3  C   UNL d   1      28.536 -15.706  -4.634  0.00  0.00     0.108 A 
ATOM      4  C   UNL d   1      29.256 -16.110  -3.537  0.00  0.00     0.047 A 
ATOM      5  C   UNL d   1      28.604 -16.135  -2.302  0.00  0.00    -0.043 A 
ATOM      6  C   UNL d   1      27.215 -15.829  -2.216  0.00  0.00     0.017 A 
ATOM      7  C   UNL d   1      26.511 -15.883  -0.881  0.00  0.00     0.243 C 
ATOM      8  N   UNL d   1      27.281 -16.730   0.147  0.00  0.00    -0.065 N 
ATOM      9  C   UNL d   1      27.116 -18.200  -0.113  0.00  0.00     0.270 C 
ATOM     10  C   UNL d   1      28.724 -16.302   0.229  0.00  0.00     0.240 C 
ATOM     11  C   UNL d   1      29.414 -16.566  -1.103  0.00  0.00     0.067 C 
ATOM     12  O   UNL d   1      29.051 -15.538  -5.880  0.00  0.00    -0.323 OA
ATOM     13  C   UNL d   1      27.967 -14.825  -6.502  0.00  0.00     0.352 C 
ATOM     14  O   UNL d   1      26.738 -14.947  -5.766  0.00  0.00    -0.320 OA
ATOM     15  H   UNL d   1      26.820 -16.499   1.045  0.00  0.00     0.280 HD
ENDROOT
BRANCH   7  16
ATOM     16  C   UNL d   1      26.280 -14.479  -0.270  0.00  0.00     0.186 C 
BRANCH  16  17
ATOM     17  N   UNL d   1      27.257 -13.551  -0.893  0.00  0.00    -0.302 NA
ATOM     18  C   UNL d   1      26.655 -12.667  -1.623  0.00  0.00     0.107 C 
BRANCH  18  19
ATOM     19  C   UNL d   1      27.386 -11.673  -2.492  0.00  0.00     0.212 A 
ATOM     20  C   UNL d   1      28.832 -12.025  -2.396  0.00  0.00     0.263 A 
ATOM     21  O   UNL d   1      29.314 -12.195  -1.271  0.00  0.00    -0.270 OA
ATOM     22  N   UNL d   1      29.564 -12.259  -3.517  0.00  0.00    -0.188 NA
ATOM     23  C   UNL d   1      29.065 -12.059  -4.685  0.00  0.00     0.171 A 
ATOM     24  N   UNL d   1      27.775 -11.643  -4.925  0.00  0.00    -0.300 N 
ATOM     25  C   UNL d   1      27.264 -11.297  -6.256  0.00  0.00     0.161 C 
ATOM     26  C   UNL d   1      26.873 -11.479  -3.883  0.00  0.00     0.243 A 
ATOM     27  O   UNL d   1      25.706 -11.123  -4.069  0.00  0.00    -0.272 OA
BRANCH  23  28
ATOM     28  S   UNL d   1      30.131 -12.362  -6.040  0.00  0.00    -0.105 SA
ATOM     29  H   UNL d   1      30.115 -13.703  -6.006  0.00  0.00     0.110 HD
ENDBRANCH  23  28
ENDBRANCH  18  19
ENDBRANCH  16  17
ENDBRANCH   7  16
BRANCH   1  30
ATOM     30  O   UNL d   1      25.167 -15.182  -3.242  0.00  0.00    -0.352 OA
ATOM     31  C   UNL d   1      24.763 -13.995  -3.934  0.00  0.00     0.210 C 
ENDBRANCH   1  30
TORSDOF 5
ENDMDL
