MODEL 1
REMARK VINA RESULT:    -7.989      0.000      0.000
REMARK INTER + INTRA:         -13.485
REMARK INTER:                 -11.271
REMARK INTRA:                  -2.215
REMARK CONF_INDEPENDENT:        3.281
REMARK UNBOUND:                -2.215
REMARK  11 active torsions:
REMARK  status: ('A' for Active; 'I' for Inactive)
REMARK       I    between atoms: C_2  and  N_3 
REMARK       I    between atoms: C_2  and  N_13 
REMARK    1  A    between atoms: N_3  and  C_4 
REMARK    2  A    between atoms: C_4  and  C_5 
REMARK    3  A    between atoms: C_5  and  C_6 
REMARK    4  A    between atoms: C_6  and  C_7 
REMARK    5  A    between atoms: N_13  and  C_14 
REMARK    6  A    between atoms: C_15  and  C_14 
REMARK    7  A    between atoms: C_15  and  C_17 
REMARK    8  A    between atoms: C_15  and  O_16 
REMARK    9  A    between atoms: C_17  and  O_18 
REMARK   10  A    between atoms: O_18  and  C_19 
REMARK   11  A    between atoms: C_22  and  N_23 
ROOT
ATOM      1  O   UNL d   1      31.199 -13.361   2.064  0.00  0.00    -0.247 OA
ATOM      2  C   UNL d   1      30.473 -14.029   2.802  0.00  0.00     0.316 C 
ATOM      3  N   UNL d   1      29.339 -14.652   2.373  0.00  0.00    -0.343 N 
ATOM      4  N   UNL d   1      30.784 -14.159   4.128  0.00  0.00    -0.341 N 
ATOM      5  H   UNL d   1      28.823 -15.245   2.997  0.00  0.00     0.164 HD
ATOM      6  H   UNL d   1      31.714 -13.808   4.327  0.00  0.00     0.164 HD
ENDROOT
BRANCH   4   7
ATOM      7  C   UNL d   1      30.130 -15.049   5.080  0.00  0.00     0.158 C 
BRANCH   7   8
ATOM      8  C   UNL d   1      28.666 -14.754   5.437  0.00  0.00     0.160 C 
BRANCH   8   9
ATOM      9  C   UNL d   1      28.245 -13.295   5.254  0.00  0.00     0.209 C 
BRANCH   9  10
ATOM     10  O   UNL d   1      27.891 -13.073   3.887  0.00  0.00    -0.349 OA
BRANCH  10  11
ATOM     11  C   UNL d   1      27.405 -11.832   3.584  0.00  0.00     0.069 A 
ATOM     12  C   UNL d   1      26.842 -11.692   2.312  0.00  0.00     0.039 A 
ATOM     13  C   UNL d   1      26.424 -10.438   1.856  0.00  0.00     0.039 A 
ATOM     14  C   UNL d   1      26.512  -9.334   2.711  0.00  0.00     0.103 A 
ATOM     15  C   UNL d   1      27.087  -9.464   3.980  0.00  0.00     0.039 A 
ATOM     16  C   UNL d   1      27.541 -10.716   4.409  0.00  0.00     0.039 A 
BRANCH  14  17
ATOM     17  N   UNL d   1      25.949  -8.041   2.297  0.00  0.00    -0.116 N 
ATOM     18  O   UNL d   1      25.156  -8.035   1.345  0.00  0.00    -0.532 OA
ATOM     19  O   UNL d   1      26.279  -7.036   2.943  0.00  0.00    -0.532 OA
ENDBRANCH  14  17
ENDBRANCH  10  11
ENDBRANCH   9  10
ENDBRANCH   8   9
BRANCH   8  20
ATOM     20  O   UNL d   1      27.760 -15.630   4.766  0.00  0.00    -0.392 OA
ATOM     21  H   UNL d   1      28.221 -16.001   3.993  0.00  0.00     0.210 HD
ENDBRANCH   8  20
ENDBRANCH   7   8
ENDBRANCH   4   7
BRANCH   3  22
ATOM     22  C   UNL d   1      28.835 -14.537   1.021  0.00  0.00     0.125 C 
BRANCH  22  23
ATOM     23  C   UNL d   1      27.400 -15.052   0.914  0.00  0.00     0.024 C 
BRANCH  23  24
ATOM     24  C   UNL d   1      27.380 -16.513   0.474  0.00  0.00     0.040 C 
BRANCH  24  25
ATOM     25  C   UNL d   1      26.043 -16.936  -0.080  0.00  0.00    -0.058 A 
ATOM     26  C   UNL d   1      25.281 -16.053  -0.854  0.00  0.00     0.007 A 
ATOM     27  C   UNL d   1      23.977 -16.390  -1.222  0.00  0.00     0.001 A 
ATOM     28  C   UNL d   1      23.462 -17.644  -0.900  0.00  0.00     0.000 A 
ATOM     29  C   UNL d   1      24.235 -18.552  -0.181  0.00  0.00     0.001 A 
ATOM     30  C   UNL d   1      25.518 -18.197   0.234  0.00  0.00     0.007 A 
ENDBRANCH  24  25
ENDBRANCH  23  24
ENDBRANCH  22  23
ENDBRANCH   3  22
TORSDOF 11
ENDMDL
MODEL 2
REMARK VINA RESULT:    -7.153      4.342      8.951
REMARK INTER + INTRA:         -12.335
REMARK INTER:                 -10.434
REMARK INTRA:                  -1.900
REMARK CONF_INDEPENDENT:        3.281
REMARK UNBOUND:                -1.900
REMARK  11 active torsions:
REMARK  status: ('A' for Active; 'I' for Inactive)
REMARK       I    between atoms: C_2  and  N_3 
REMARK       I    between atoms: C_2  and  N_13 
REMARK    1  A    between atoms: N_3  and  C_4 
REMARK    2  A    between atoms: C_4  and  C_5 
REMARK    3  A    between atoms: C_5  and  C_6 
REMARK    4  A    between atoms: C_6  and  C_7 
REMARK    5  A    between atoms: N_13  and  C_14 
REMARK    6  A    between atoms: C_15  and  C_14 
REMARK    7  A    between atoms: C_15  and  C_17 
REMARK    8  A    between atoms: C_15  and  O_16 
REMARK    9  A    between atoms: C_17  and  O_18 
REMARK   10  A    between atoms: O_18  and  C_19 
REMARK   11  A    between atoms: C_22  and  N_23 
ROOT
ATOM      1  O   UNL d   1      27.625 -12.649   1.936  0.00  0.00    -0.247 OA
ATOM      2  C   UNL d   1      27.923 -13.844   1.948  0.00  0.00     0.316 C 
ATOM      3  N   UNL d   1      27.979 -14.591   3.086  0.00  0.00    -0.343 N 
ATOM      4  N   UNL d   1      28.235 -14.480   0.777  0.00  0.00    -0.341 N 
ATOM      5  H   UNL d   1      28.155 -15.578   3.034  0.00  0.00     0.164 HD
ATOM      6  H   UNL d   1      28.012 -13.905  -0.028  0.00  0.00     0.164 HD
ENDROOT
BRANCH   4   7
ATOM      7  C   UNL d   1      28.434 -15.914   0.606  0.00  0.00     0.158 C 
BRANCH   7   8
ATOM      8  C   UNL d   1      27.869 -16.561  -0.668  0.00  0.00     0.160 C 
BRANCH   8   9
ATOM      9  C   UNL d   1      26.629 -17.429  -0.449  0.00  0.00     0.209 C 
BRANCH   9  10
ATOM     10  O   UNL d   1      25.462 -16.605  -0.486  0.00  0.00    -0.349 OA
BRANCH  10  11
ATOM     11  C   UNL d   1      24.263 -17.259  -0.520  0.00  0.00     0.069 A 
ATOM     12  C   UNL d   1      24.322 -18.648  -0.375  0.00  0.00     0.039 A 
ATOM     13  C   UNL d   1      23.168 -19.426  -0.514  0.00  0.00     0.039 A 
ATOM     14  C   UNL d   1      21.939 -18.794  -0.735  0.00  0.00     0.103 A 
ATOM     15  C   UNL d   1      21.875 -17.405  -0.895  0.00  0.00     0.039 A 
ATOM     16  C   UNL d   1      23.043 -16.642  -0.796  0.00  0.00     0.039 A 
BRANCH  14  17
ATOM     17  N   UNL d   1      20.701 -19.585  -0.745  0.00  0.00    -0.116 N 
ATOM     18  O   UNL d   1      20.315 -20.066   0.330  0.00  0.00    -0.532 OA
ATOM     19  O   UNL d   1      20.099 -19.700  -1.823  0.00  0.00    -0.532 OA
ENDBRANCH  14  17
ENDBRANCH  10  11
ENDBRANCH   9  10
ENDBRANCH   8   9
BRANCH   8  20
ATOM     20  O   UNL d   1      27.640 -15.604  -1.702  0.00  0.00    -0.392 OA
ATOM     21  H   UNL d   1      26.700 -15.353  -1.674  0.00  0.00     0.210 HD
ENDBRANCH   8  20
ENDBRANCH   7   8
ENDBRANCH   4   7
BRANCH   3  22
ATOM     22  C   UNL d   1      27.760 -14.041   4.407  0.00  0.00     0.125 C 
BRANCH  22  23
ATOM     23  C   UNL d   1      28.585 -14.775   5.463  0.00  0.00     0.024 C 
BRANCH  23  24
ATOM     24  C   UNL d   1      29.535 -13.815   6.174  0.00  0.00     0.040 C 
BRANCH  24  25
ATOM     25  C   UNL d   1      29.167 -13.596   7.619  0.00  0.00    -0.058 A 
ATOM     26  C   UNL d   1      28.358 -12.517   7.994  0.00  0.00     0.007 A 
ATOM     27  C   UNL d   1      28.160 -12.226   9.344  0.00  0.00     0.001 A 
ATOM     28  C   UNL d   1      28.690 -13.062  10.325  0.00  0.00     0.000 A 
ATOM     29  C   UNL d   1      29.446 -14.172   9.960  0.00  0.00     0.001 A 
ATOM     30  C   UNL d   1      29.691 -14.434   8.613  0.00  0.00     0.007 A 
ENDBRANCH  24  25
ENDBRANCH  23  24
ENDBRANCH  22  23
ENDBRANCH   3  22
TORSDOF 11
ENDMDL
MODEL 3
REMARK VINA RESULT:    -6.882      3.967      5.680
REMARK INTER + INTRA:         -12.566
REMARK INTER:                 -10.163
REMARK INTRA:                  -2.403
REMARK CONF_INDEPENDENT:        3.281
REMARK UNBOUND:                -2.403
REMARK  11 active torsions:
REMARK  status: ('A' for Active; 'I' for Inactive)
REMARK       I    between atoms: C_2  and  N_3 
REMARK       I    between atoms: C_2  and  N_13 
REMARK    1  A    between atoms: N_3  and  C_4 
REMARK    2  A    between atoms: C_4  and  C_5 
REMARK    3  A    between atoms: C_5  and  C_6 
REMARK    4  A    between atoms: C_6  and  C_7 
REMARK    5  A    between atoms: N_13  and  C_14 
REMARK    6  A    between atoms: C_15  and  C_14 
REMARK    7  A    between atoms: C_15  and  C_17 
REMARK    8  A    between atoms: C_15  and  O_16 
REMARK    9  A    between atoms: C_17  and  O_18 
REMARK   10  A    between atoms: O_18  and  C_19 
REMARK   11  A    between atoms: C_22  and  N_23 
ROOT
ATOM      1  O   UNL d   1      24.003 -14.074  -4.301  0.00  0.00    -0.247 OA
ATOM      2  C   UNL d   1      25.184 -13.726  -4.278  0.00  0.00     0.316 C 
ATOM      3  N   UNL d   1      26.183 -14.502  -3.771  0.00  0.00    -0.343 N 
ATOM      4  N   UNL d   1      25.543 -12.498  -4.762  0.00  0.00    -0.341 N 
ATOM      5  H   UNL d   1      27.139 -14.204  -3.843  0.00  0.00     0.164 HD
ATOM      6  H   UNL d   1      24.777 -12.059  -5.262  0.00  0.00     0.164 HD
ENDROOT
BRANCH   4   7
ATOM      7  C   UNL d   1      26.904 -12.018  -4.963  0.00  0.00     0.158 C 
BRANCH   7   8
ATOM      8  C   UNL d   1      27.757 -11.758  -3.712  0.00  0.00     0.160 C 
BRANCH   8   9
ATOM      9  C   UNL d   1      26.956 -11.547  -2.426  0.00  0.00     0.209 C 
BRANCH   9  10
ATOM     10  O   UNL d   1      27.857 -11.287  -1.347  0.00  0.00    -0.349 OA
BRANCH  10  11
ATOM     11  C   UNL d   1      27.485 -10.303  -0.475  0.00  0.00     0.069 A 
ATOM     12  C   UNL d   1      27.498 -10.651   0.879  0.00  0.00     0.039 A 
ATOM     13  C   UNL d   1      27.022  -9.759   1.845  0.00  0.00     0.039 A 
ATOM     14  C   UNL d   1      26.594  -8.486   1.451  0.00  0.00     0.103 A 
ATOM     15  C   UNL d   1      26.564  -8.137   0.096  0.00  0.00     0.039 A 
ATOM     16  C   UNL d   1      27.003  -9.053  -0.865  0.00  0.00     0.039 A 
BRANCH  14  17
ATOM     17  N   UNL d   1      26.223  -7.492   2.467  0.00  0.00    -0.116 N 
ATOM     18  O   UNL d   1      26.655  -7.652   3.617  0.00  0.00    -0.532 OA
ATOM     19  O   UNL d   1      25.522  -6.534   2.107  0.00  0.00    -0.532 OA
ENDBRANCH  14  17
ENDBRANCH  10  11
ENDBRANCH   9  10
ENDBRANCH   8   9
BRANCH   8  20
ATOM     20  O   UNL d   1      28.759 -12.757  -3.526  0.00  0.00    -0.392 OA
ATOM     21  H   UNL d   1      28.888 -12.876  -2.569  0.00  0.00     0.210 HD
ENDBRANCH   8  20
ENDBRANCH   7   8
ENDBRANCH   4   7
BRANCH   3  22
ATOM     22  C   UNL d   1      25.951 -15.788  -3.147  0.00  0.00     0.125 C 
BRANCH  22  23
ATOM     23  C   UNL d   1      26.557 -15.847  -1.746  0.00  0.00     0.024 C 
BRANCH  23  24
ATOM     24  C   UNL d   1      25.509 -15.516  -0.687  0.00  0.00     0.040 C 
BRANCH  24  25
ATOM     25  C   UNL d   1      24.480 -16.606  -0.526  0.00  0.00    -0.058 A 
ATOM     26  C   UNL d   1      24.871 -17.919  -0.237  0.00  0.00     0.007 A 
ATOM     27  C   UNL d   1      23.931 -18.950  -0.254  0.00  0.00     0.001 A 
ATOM     28  C   UNL d   1      22.584 -18.665  -0.466  0.00  0.00     0.000 A 
ATOM     29  C   UNL d   1      22.177 -17.352  -0.695  0.00  0.00     0.001 A 
ATOM     30  C   UNL d   1      23.122 -16.328  -0.733  0.00  0.00     0.007 A 
ENDBRANCH  24  25
ENDBRANCH  23  24
ENDBRANCH  22  23
ENDBRANCH   3  22
TORSDOF 11
ENDMDL
MODEL 4
REMARK VINA RESULT:    -6.763      5.730      7.698
REMARK INTER + INTRA:         -12.372
REMARK INTER:                 -10.044
REMARK INTRA:                  -2.328
REMARK CONF_INDEPENDENT:        3.281
REMARK UNBOUND:                -2.328
REMARK  11 active torsions:
REMARK  status: ('A' for Active; 'I' for Inactive)
REMARK       I    between atoms: C_2  and  N_3 
REMARK       I    between atoms: C_2  and  N_13 
REMARK    1  A    between atoms: N_3  and  C_4 
REMARK    2  A    between atoms: C_4  and  C_5 
REMARK    3  A    between atoms: C_5  and  C_6 
REMARK    4  A    between atoms: C_6  and  C_7 
REMARK    5  A    between atoms: N_13  and  C_14 
REMARK    6  A    between atoms: C_15  and  C_14 
REMARK    7  A    between atoms: C_15  and  C_17 
REMARK    8  A    between atoms: C_15  and  O_16 
REMARK    9  A    between atoms: C_17  and  O_18 
REMARK   10  A    between atoms: O_18  and  C_19 
REMARK   11  A    between atoms: C_22  and  N_23 
ROOT
ATOM      1  O   UNL d   1      31.142 -19.026  -2.433  0.00  0.00    -0.247 OA
ATOM      2  C   UNL d   1      30.499 -18.062  -2.016  0.00  0.00     0.316 C 
ATOM      3  N   UNL d   1      30.065 -17.048  -2.817  0.00  0.00    -0.343 N 
ATOM      4  N   UNL d   1      30.202 -17.964  -0.684  0.00  0.00    -0.341 N 
ATOM      5  H   UNL d   1      29.482 -16.323  -2.442  0.00  0.00     0.164 HD
ATOM      6  H   UNL d   1      30.415 -18.826  -0.193  0.00  0.00     0.164 HD
ENDROOT
BRANCH   4   7
ATOM      7  C   UNL d   1      29.310 -16.987  -0.072  0.00  0.00     0.158 C 
BRANCH   7   8
ATOM      8  C   UNL d   1      28.004 -16.659  -0.810  0.00  0.00     0.160 C 
BRANCH   8   9
ATOM      9  C   UNL d   1      26.831 -17.581  -0.475  0.00  0.00     0.209 C 
BRANCH   9  10
ATOM     10  O   UNL d   1      25.786 -16.816   0.130  0.00  0.00    -0.349 OA
BRANCH  10  11
ATOM     11  C   UNL d   1      24.509 -17.208  -0.155  0.00  0.00     0.069 A 
ATOM     12  C   UNL d   1      24.281 -18.587  -0.158  0.00  0.00     0.039 A 
ATOM     13  C   UNL d   1      23.042 -19.101  -0.552  0.00  0.00     0.039 A 
ATOM     14  C   UNL d   1      22.008 -18.218  -0.882  0.00  0.00     0.103 A 
ATOM     15  C   UNL d   1      22.233 -16.836  -0.895  0.00  0.00     0.039 A 
ATOM     16  C   UNL d   1      23.490 -16.336  -0.539  0.00  0.00     0.039 A 
BRANCH  14  17
ATOM     17  N   UNL d   1      20.663 -18.737  -1.164  0.00  0.00    -0.116 N 
ATOM     18  O   UNL d   1      20.567 -19.698  -1.941  0.00  0.00    -0.532 OA
ATOM     19  O   UNL d   1      19.706 -18.202  -0.586  0.00  0.00    -0.532 OA
ENDBRANCH  14  17
ENDBRANCH  10  11
ENDBRANCH   9  10
ENDBRANCH   8   9
BRANCH   8  20
ATOM     20  O   UNL d   1      27.630 -15.289  -0.661  0.00  0.00    -0.392 OA
ATOM     21  H   UNL d   1      27.049 -15.221   0.117  0.00  0.00     0.210 HD
ENDBRANCH   8  20
ENDBRANCH   7   8
ENDBRANCH   4   7
BRANCH   3  22
ATOM     22  C   UNL d   1      30.373 -16.966  -4.229  0.00  0.00     0.125 C 
BRANCH  22  23
ATOM     23  C   UNL d   1      29.326 -16.148  -4.984  0.00  0.00     0.024 C 
BRANCH  23  24
ATOM     24  C   UNL d   1      29.042 -14.834  -4.262  0.00  0.00     0.040 C 
BRANCH  24  25
ATOM     25  C   UNL d   1      27.571 -14.507  -4.207  0.00  0.00    -0.058 A 
ATOM     26  C   UNL d   1      27.069 -13.368  -4.846  0.00  0.00     0.007 A 
ATOM     27  C   UNL d   1      25.741 -12.983  -4.652  0.00  0.00     0.001 A 
ATOM     28  C   UNL d   1      24.886 -13.781  -3.895  0.00  0.00     0.000 A 
ATOM     29  C   UNL d   1      25.362 -14.948  -3.304  0.00  0.00     0.001 A 
ATOM     30  C   UNL d   1      26.701 -15.306  -3.452  0.00  0.00     0.007 A 
ENDBRANCH  24  25
ENDBRANCH  23  24
ENDBRANCH  22  23
ENDBRANCH   3  22
TORSDOF 11
ENDMDL
MODEL 5
REMARK VINA RESULT:    -6.446      4.185      5.692
REMARK INTER + INTRA:         -12.315
REMARK INTER:                  -9.727
REMARK INTRA:                  -2.588
REMARK CONF_INDEPENDENT:        3.281
REMARK UNBOUND:                -2.588
REMARK  11 active torsions:
REMARK  status: ('A' for Active; 'I' for Inactive)
REMARK       I    between atoms: C_2  and  N_3 
REMARK       I    between atoms: C_2  and  N_13 
REMARK    1  A    between atoms: N_3  and  C_4 
REMARK    2  A    between atoms: C_4  and  C_5 
REMARK    3  A    between atoms: C_5  and  C_6 
REMARK    4  A    between atoms: C_6  and  C_7 
REMARK    5  A    between atoms: N_13  and  C_14 
REMARK    6  A    between atoms: C_15  and  C_14 
REMARK    7  A    between atoms: C_15  and  C_17 
REMARK    8  A    between atoms: C_15  and  O_16 
REMARK    9  A    between atoms: C_17  and  O_18 
REMARK   10  A    between atoms: O_18  and  C_19 
REMARK   11  A    between atoms: C_22  and  N_23 
ROOT
ATOM      1  O   UNL d   1      26.651 -15.580  -5.438  0.00  0.00    -0.247 OA
ATOM      2  C   UNL d   1      26.400 -14.810  -4.509  0.00  0.00     0.316 C 
ATOM      3  N   UNL d   1      27.071 -14.825  -3.323  0.00  0.00    -0.343 N 
ATOM      4  N   UNL d   1      25.393 -13.893  -4.637  0.00  0.00    -0.341 N 
ATOM      5  H   UNL d   1      26.878 -14.128  -2.626  0.00  0.00     0.164 HD
ATOM      6  H   UNL d   1      25.060 -13.840  -5.594  0.00  0.00     0.164 HD
ENDROOT
BRANCH   4   7
ATOM      7  C   UNL d   1      25.095 -12.810  -3.708  0.00  0.00     0.158 C 
BRANCH   7   8
ATOM      8  C   UNL d   1      26.244 -11.865  -3.328  0.00  0.00     0.160 C 
BRANCH   8   9
ATOM      9  C   UNL d   1      25.944 -10.379  -3.536  0.00  0.00     0.209 C 
BRANCH   9  10
ATOM     10  O   UNL d   1      26.991  -9.600  -2.952  0.00  0.00    -0.349 OA
BRANCH  10  11
ATOM     11  C   UNL d   1      26.699  -8.993  -1.763  0.00  0.00     0.069 A 
ATOM     12  C   UNL d   1      27.454  -9.413  -0.663  0.00  0.00     0.039 A 
ATOM     13  C   UNL d   1      27.158  -8.945   0.621  0.00  0.00     0.039 A 
ATOM     14  C   UNL d   1      26.140  -7.999   0.787  0.00  0.00     0.103 A 
ATOM     15  C   UNL d   1      25.372  -7.585  -0.308  0.00  0.00     0.039 A 
ATOM     16  C   UNL d   1      25.650  -8.093  -1.581  0.00  0.00     0.039 A 
BRANCH  14  17
ATOM     17  N   UNL d   1      25.910  -7.395   2.106  0.00  0.00    -0.116 N 
ATOM     18  O   UNL d   1      25.333  -6.298   2.146  0.00  0.00    -0.532 OA
ATOM     19  O   UNL d   1      26.280  -8.031   3.104  0.00  0.00    -0.532 OA
ENDBRANCH  14  17
ENDBRANCH  10  11
ENDBRANCH   9  10
ENDBRANCH   8   9
BRANCH   8  20
ATOM     20  O   UNL d   1      26.724 -12.104  -2.006  0.00  0.00    -0.392 OA
ATOM     21  H   UNL d   1      27.391 -11.425  -1.802  0.00  0.00     0.210 HD
ENDBRANCH   8  20
ENDBRANCH   7   8
ENDBRANCH   4   7
BRANCH   3  22
ATOM     22  C   UNL d   1      28.102 -15.790  -3.006  0.00  0.00     0.125 C 
BRANCH  22  23
ATOM     23  C   UNL d   1      28.288 -15.935  -1.496  0.00  0.00     0.024 C 
BRANCH  23  24
ATOM     24  C   UNL d   1      27.068 -15.408  -0.746  0.00  0.00     0.040 C 
BRANCH  24  25
ATOM     25  C   UNL d   1      25.917 -16.382  -0.751  0.00  0.00    -0.058 A 
ATOM     26  C   UNL d   1      24.649 -15.985  -1.191  0.00  0.00     0.007 A 
ATOM     27  C   UNL d   1      23.555 -16.838  -1.036  0.00  0.00     0.001 A 
ATOM     28  C   UNL d   1      23.737 -18.123  -0.529  0.00  0.00     0.000 A 
ATOM     29  C   UNL d   1      25.006 -18.548  -0.143  0.00  0.00     0.001 A 
ATOM     30  C   UNL d   1      26.091 -17.678  -0.246  0.00  0.00     0.007 A 
ENDBRANCH  24  25
ENDBRANCH  23  24
ENDBRANCH  22  23
ENDBRANCH   3  22
TORSDOF 11
ENDMDL
MODEL 6
REMARK VINA RESULT:    -6.392      6.368      9.706
REMARK INTER + INTRA:         -12.784
REMARK INTER:                  -9.673
REMARK INTRA:                  -3.111
REMARK CONF_INDEPENDENT:        3.281
REMARK UNBOUND:                -3.111
REMARK  11 active torsions:
REMARK  status: ('A' for Active; 'I' for Inactive)
REMARK       I    between atoms: C_2  and  N_3 
REMARK       I    between atoms: C_2  and  N_13 
REMARK    1  A    between atoms: N_3  and  C_4 
REMARK    2  A    between atoms: C_4  and  C_5 
REMARK    3  A    between atoms: C_5  and  C_6 
REMARK    4  A    between atoms: C_6  and  C_7 
REMARK    5  A    between atoms: N_13  and  C_14 
REMARK    6  A    between atoms: C_15  and  C_14 
REMARK    7  A    between atoms: C_15  and  C_17 
REMARK    8  A    between atoms: C_15  and  O_16 
REMARK    9  A    between atoms: C_17  and  O_18 
REMARK   10  A    between atoms: O_18  and  C_19 
REMARK   11  A    between atoms: C_22  and  N_23 
ROOT
ATOM      1  O   UNL d   1      24.101 -14.325  -3.689  0.00  0.00    -0.247 OA
ATOM      2  C   UNL d   1      25.282 -14.068  -3.927  0.00  0.00     0.316 C 
ATOM      3  N   UNL d   1      26.320 -14.816  -3.458  0.00  0.00    -0.343 N 
ATOM      4  N   UNL d   1      25.603 -12.976  -4.686  0.00  0.00    -0.341 N 
ATOM      5  H   UNL d   1      27.261 -14.609  -3.743  0.00  0.00     0.164 HD
ATOM      6  H   UNL d   1      24.781 -12.575  -5.124  0.00  0.00     0.164 HD
ENDROOT
BRANCH   4   7
ATOM      7  C   UNL d   1      26.927 -12.644  -5.197  0.00  0.00     0.158 C 
BRANCH   7   8
ATOM      8  C   UNL d   1      27.699 -13.746  -5.937  0.00  0.00     0.160 C 
BRANCH   8   9
ATOM      9  C   UNL d   1      29.160 -13.899  -5.512  0.00  0.00     0.209 C 
BRANCH   9  10
ATOM     10  O   UNL d   1      29.262 -14.940  -4.537  0.00  0.00    -0.349 OA
BRANCH  10  11
ATOM     11  C   UNL d   1      29.798 -16.120  -4.969  0.00  0.00     0.069 A 
ATOM     12  C   UNL d   1      30.127 -16.180  -6.327  0.00  0.00     0.039 A 
ATOM     13  C   UNL d   1      30.570 -17.377  -6.898  0.00  0.00     0.039 A 
ATOM     14  C   UNL d   1      30.746 -18.501  -6.083  0.00  0.00     0.103 A 
ATOM     15  C   UNL d   1      30.406 -18.452  -4.726  0.00  0.00     0.039 A 
ATOM     16  C   UNL d   1      29.923 -17.260  -4.175  0.00  0.00     0.039 A 
BRANCH  14  17
ATOM     17  N   UNL d   1      31.341 -19.723  -6.639  0.00  0.00    -0.116 N 
ATOM     18  O   UNL d   1      30.930 -20.811  -6.212  0.00  0.00    -0.532 OA
ATOM     19  O   UNL d   1      32.199 -19.594  -7.525  0.00  0.00    -0.532 OA
ENDBRANCH  14  17
ENDBRANCH  10  11
ENDBRANCH   9  10
ENDBRANCH   8   9
BRANCH   8  20
ATOM     20  O   UNL d   1      27.023 -15.003  -5.888  0.00  0.00    -0.392 OA
ATOM     21  H   UNL d   1      27.669 -15.679  -5.616  0.00  0.00     0.210 HD
ENDBRANCH   8  20
ENDBRANCH   7   8
ENDBRANCH   4   7
BRANCH   3  22
ATOM     22  C   UNL d   1      26.146 -15.950  -2.576  0.00  0.00     0.125 C 
BRANCH  22  23
ATOM     23  C   UNL d   1      26.576 -15.619  -1.147  0.00  0.00     0.024 C 
BRANCH  23  24
ATOM     24  C   UNL d   1      26.270 -16.780  -0.205  0.00  0.00     0.040 C 
BRANCH  24  25
ATOM     25  C   UNL d   1      24.841 -17.250  -0.306  0.00  0.00    -0.058 A 
ATOM     26  C   UNL d   1      24.534 -18.614  -0.258  0.00  0.00     0.007 A 
ATOM     27  C   UNL d   1      23.234 -19.050  -0.519  0.00  0.00     0.001 A 
ATOM     28  C   UNL d   1      22.216 -18.123  -0.736  0.00  0.00     0.000 A 
ATOM     29  C   UNL d   1      22.502 -16.760  -0.727  0.00  0.00     0.001 A 
ATOM     30  C   UNL d   1      23.810 -16.325  -0.521  0.00  0.00     0.007 A 
ENDBRANCH  24  25
ENDBRANCH  23  24
ENDBRANCH  22  23
ENDBRANCH   3  22
TORSDOF 11
ENDMDL
MODEL 7
REMARK VINA RESULT:    -5.965      5.301      8.065
REMARK INTER + INTRA:         -12.416
REMARK INTER:                  -9.246
REMARK INTRA:                  -3.170
REMARK CONF_INDEPENDENT:        3.281
REMARK UNBOUND:                -3.170
REMARK  11 active torsions:
REMARK  status: ('A' for Active; 'I' for Inactive)
REMARK       I    between atoms: C_2  and  N_3 
REMARK       I    between atoms: C_2  and  N_13 
REMARK    1  A    between atoms: N_3  and  C_4 
REMARK    2  A    between atoms: C_4  and  C_5 
REMARK    3  A    between atoms: C_5  and  C_6 
REMARK    4  A    between atoms: C_6  and  C_7 
REMARK    5  A    between atoms: N_13  and  C_14 
REMARK    6  A    between atoms: C_15  and  C_14 
REMARK    7  A    between atoms: C_15  and  C_17 
REMARK    8  A    between atoms: C_15  and  O_16 
REMARK    9  A    between atoms: C_17  and  O_18 
REMARK   10  A    between atoms: O_18  and  C_19 
REMARK   11  A    between atoms: C_22  and  N_23 
ROOT
ATOM      1  O   UNL d   1      26.832 -12.637  -0.055  0.00  0.00    -0.247 OA
ATOM      2  C   UNL d   1      27.202 -13.765  -0.383  0.00  0.00     0.316 C 
ATOM      3  N   UNL d   1      26.770 -14.397  -1.511  0.00  0.00    -0.343 N 
ATOM      4  N   UNL d   1      28.080 -14.452   0.410  0.00  0.00    -0.341 N 
ATOM      5  H   UNL d   1      27.159 -15.285  -1.772  0.00  0.00     0.164 HD
ATOM      6  H   UNL d   1      28.472 -13.856   1.131  0.00  0.00     0.164 HD
ENDROOT
BRANCH   4   7
ATOM      7  C   UNL d   1      28.741 -15.707   0.073  0.00  0.00     0.158 C 
BRANCH   7   8
ATOM      8  C   UNL d   1      27.848 -16.912  -0.260  0.00  0.00     0.160 C 
BRANCH   8   9
ATOM      9  C   UNL d   1      26.419 -16.816   0.277  0.00  0.00     0.209 C 
BRANCH   9  10
ATOM     10  O   UNL d   1      25.543 -16.415  -0.779  0.00  0.00    -0.349 OA
BRANCH  10  11
ATOM     11  C   UNL d   1      24.355 -17.084  -0.864  0.00  0.00     0.069 A 
ATOM     12  C   UNL d   1      23.209 -16.286  -0.926  0.00  0.00     0.039 A 
ATOM     13  C   UNL d   1      21.937 -16.867  -0.895  0.00  0.00     0.039 A 
ATOM     14  C   UNL d   1      21.821 -18.261  -0.867  0.00  0.00     0.103 A 
ATOM     15  C   UNL d   1      22.965 -19.066  -0.790  0.00  0.00     0.039 A 
ATOM     16  C   UNL d   1      24.231 -18.471  -0.779  0.00  0.00     0.039 A 
BRANCH  14  17
ATOM     17  N   UNL d   1      20.497 -18.888  -0.974  0.00  0.00    -0.116 N 
ATOM     18  O   UNL d   1      20.443 -20.057  -1.383  0.00  0.00    -0.532 OA
ATOM     19  O   UNL d   1      19.514 -18.220  -0.622  0.00  0.00    -0.532 OA
ENDBRANCH  14  17
ENDBRANCH  10  11
ENDBRANCH   9  10
ENDBRANCH   8   9
BRANCH   8  20
ATOM     20  O   UNL d   1      27.846 -17.211  -1.655  0.00  0.00    -0.392 OA
ATOM     21  H   UNL d   1      27.002 -17.648  -1.866  0.00  0.00     0.210 HD
ENDBRANCH   8  20
ENDBRANCH   7   8
ENDBRANCH   4   7
BRANCH   3  22
ATOM     22  C   UNL d   1      25.779 -13.835  -2.404  0.00  0.00     0.125 C 
BRANCH  22  23
ATOM     23  C   UNL d   1      25.535 -14.742  -3.610  0.00  0.00     0.024 C 
BRANCH  23  24
ATOM     24  C   UNL d   1      26.855 -15.239  -4.191  0.00  0.00     0.040 C 
BRANCH  24  25
ATOM     25  C   UNL d   1      27.373 -14.358  -5.299  0.00  0.00    -0.058 A 
ATOM     26  C   UNL d   1      28.348 -14.826  -6.186  0.00  0.00     0.007 A 
ATOM     27  C   UNL d   1      28.941 -13.953  -7.100  0.00  0.00     0.001 A 
ATOM     28  C   UNL d   1      28.499 -12.636  -7.197  0.00  0.00     0.000 A 
ATOM     29  C   UNL d   1      27.487 -12.177  -6.358  0.00  0.00     0.001 A 
ATOM     30  C   UNL d   1      26.931 -13.032  -5.407  0.00  0.00     0.007 A 
ENDBRANCH  24  25
ENDBRANCH  23  24
ENDBRANCH  22  23
ENDBRANCH   3  22
TORSDOF 11
ENDMDL
MODEL 8
REMARK VINA RESULT:    -5.916      3.990      7.736
REMARK INTER + INTRA:         -12.337
REMARK INTER:                  -9.197
REMARK INTRA:                  -3.140
REMARK CONF_INDEPENDENT:        3.281
REMARK UNBOUND:                -3.140
REMARK  11 active torsions:
REMARK  status: ('A' for Active; 'I' for Inactive)
REMARK       I    between atoms: C_2  and  N_3 
REMARK       I    between atoms: C_2  and  N_13 
REMARK    1  A    between atoms: N_3  and  C_4 
REMARK    2  A    between atoms: C_4  and  C_5 
REMARK    3  A    between atoms: C_5  and  C_6 
REMARK    4  A    between atoms: C_6  and  C_7 
REMARK    5  A    between atoms: N_13  and  C_14 
REMARK    6  A    between atoms: C_15  and  C_14 
REMARK    7  A    between atoms: C_15  and  C_17 
REMARK    8  A    between atoms: C_15  and  O_16 
REMARK    9  A    between atoms: C_17  and  O_18 
REMARK   10  A    between atoms: O_18  and  C_19 
REMARK   11  A    between atoms: C_22  and  N_23 
ROOT
ATOM      1  O   UNL d   1      29.829 -13.238  -0.343  0.00  0.00    -0.247 OA
ATOM      2  C   UNL d   1      29.247 -14.302  -0.128  0.00  0.00     0.316 C 
ATOM      3  N   UNL d   1      27.919 -14.383   0.167  0.00  0.00    -0.343 N 
ATOM      4  N   UNL d   1      29.943 -15.479  -0.163  0.00  0.00    -0.341 N 
ATOM      5  H   UNL d   1      27.476 -15.279   0.260  0.00  0.00     0.164 HD
ATOM      6  H   UNL d   1      30.874 -15.348  -0.544  0.00  0.00     0.164 HD
ENDROOT
BRANCH   4   7
ATOM      7  C   UNL d   1      29.370 -16.818  -0.105  0.00  0.00     0.158 C 
BRANCH   7   8
ATOM      8  C   UNL d   1      28.104 -17.084  -0.934  0.00  0.00     0.160 C 
BRANCH   8   9
ATOM      9  C   UNL d   1      26.889 -17.532  -0.119  0.00  0.00     0.209 C 
BRANCH   9  10
ATOM     10  O   UNL d   1      25.831 -16.586  -0.290  0.00  0.00    -0.349 OA
BRANCH  10  11
ATOM     11  C   UNL d   1      24.574 -17.106  -0.424  0.00  0.00     0.069 A 
ATOM     12  C   UNL d   1      24.486 -18.501  -0.401  0.00  0.00     0.039 A 
ATOM     13  C   UNL d   1      23.266 -19.139  -0.648  0.00  0.00     0.039 A 
ATOM     14  C   UNL d   1      22.118 -18.366  -0.854  0.00  0.00     0.103 A 
ATOM     15  C   UNL d   1      22.202 -16.969  -0.893  0.00  0.00     0.039 A 
ATOM     16  C   UNL d   1      23.436 -16.344  -0.686  0.00  0.00     0.039 A 
BRANCH  14  17
ATOM     17  N   UNL d   1      20.808 -19.019  -0.977  0.00  0.00    -0.116 N 
ATOM     18  O   UNL d   1      19.981 -18.828  -0.074  0.00  0.00    -0.532 OA
ATOM     19  O   UNL d   1      20.596 -19.700  -1.991  0.00  0.00    -0.532 OA
ENDBRANCH  14  17
ENDBRANCH  10  11
ENDBRANCH   9  10
ENDBRANCH   8   9
BRANCH   8  20
ATOM     20  O   UNL d   1      27.769 -15.981  -1.776  0.00  0.00    -0.392 OA
ATOM     21  H   UNL d   1      26.934 -16.193  -2.228  0.00  0.00     0.210 HD
ENDBRANCH   8  20
ENDBRANCH   7   8
ENDBRANCH   4   7
BRANCH   3  22
ATOM     22  C   UNL d   1      27.069 -13.222   0.324  0.00  0.00     0.125 C 
BRANCH  22  23
ATOM     23  C   UNL d   1      26.351 -13.232   1.673  0.00  0.00     0.024 C 
BRANCH  23  24
ATOM     24  C   UNL d   1      27.132 -12.429   2.709  0.00  0.00     0.040 C 
BRANCH  24  25
ATOM     25  C   UNL d   1      27.979 -13.300   3.601  0.00  0.00    -0.058 A 
ATOM     26  C   UNL d   1      29.325 -13.538   3.296  0.00  0.00     0.007 A 
ATOM     27  C   UNL d   1      30.055 -14.474   4.030  0.00  0.00     0.001 A 
ATOM     28  C   UNL d   1      29.476 -15.107   5.128  0.00  0.00     0.000 A 
ATOM     29  C   UNL d   1      28.155 -14.832   5.475  0.00  0.00     0.001 A 
ATOM     30  C   UNL d   1      27.407 -13.938   4.710  0.00  0.00     0.007 A 
ENDBRANCH  24  25
ENDBRANCH  23  24
ENDBRANCH  22  23
ENDBRANCH   3  22
TORSDOF 11
ENDMDL
MODEL 9
REMARK VINA RESULT:    -5.885      1.546      2.613
REMARK INTER + INTRA:         -12.286
REMARK INTER:                  -9.167
REMARK INTRA:                  -3.119
REMARK CONF_INDEPENDENT:        3.281
REMARK UNBOUND:                -3.119
REMARK  11 active torsions:
REMARK  status: ('A' for Active; 'I' for Inactive)
REMARK       I    between atoms: C_2  and  N_3 
REMARK       I    between atoms: C_2  and  N_13 
REMARK    1  A    between atoms: N_3  and  C_4 
REMARK    2  A    between atoms: C_4  and  C_5 
REMARK    3  A    between atoms: C_5  and  C_6 
REMARK    4  A    between atoms: C_6  and  C_7 
REMARK    5  A    between atoms: N_13  and  C_14 
REMARK    6  A    between atoms: C_15  and  C_14 
REMARK    7  A    between atoms: C_15  and  C_17 
REMARK    8  A    between atoms: C_15  and  O_16 
REMARK    9  A    between atoms: C_17  and  O_18 
REMARK   10  A    between atoms: O_18  and  C_19 
REMARK   11  A    between atoms: C_22  and  N_23 
ROOT
ATOM      1  O   UNL d   1      30.017 -13.615  -1.742  0.00  0.00    -0.247 OA
ATOM      2  C   UNL d   1      29.845 -13.486  -0.529  0.00  0.00     0.316 C 
ATOM      3  N   UNL d   1      28.725 -13.914   0.118  0.00  0.00    -0.343 N 
ATOM      4  N   UNL d   1      30.800 -12.871   0.233  0.00  0.00    -0.341 N 
ATOM      5  H   UNL d   1      28.666 -13.853   1.118  0.00  0.00     0.164 HD
ATOM      6  H   UNL d   1      31.658 -12.732  -0.290  0.00  0.00     0.164 HD
ENDROOT
BRANCH   4   7
ATOM      7  C   UNL d   1      30.823 -12.801   1.689  0.00  0.00     0.158 C 
BRANCH   7   8
ATOM      8  C   UNL d   1      30.684 -14.119   2.465  0.00  0.00     0.160 C 
BRANCH   8   9
ATOM      9  C   UNL d   1      29.785 -14.042   3.699  0.00  0.00     0.209 C 
BRANCH   9  10
ATOM     10  O   UNL d   1      28.416 -14.031   3.287  0.00  0.00    -0.349 OA
BRANCH  10  11
ATOM     11  C   UNL d   1      27.855 -12.800   3.095  0.00  0.00     0.069 A 
ATOM     12  C   UNL d   1      28.131 -11.843   4.076  0.00  0.00     0.039 A 
ATOM     13  C   UNL d   1      27.512 -10.590   4.040  0.00  0.00     0.039 A 
ATOM     14  C   UNL d   1      26.662 -10.277   2.973  0.00  0.00     0.103 A 
ATOM     15  C   UNL d   1      26.370 -11.235   1.995  0.00  0.00     0.039 A 
ATOM     16  C   UNL d   1      26.963 -12.500   2.066  0.00  0.00     0.039 A 
BRANCH  14  17
ATOM     17  N   UNL d   1      26.115  -8.919   2.847  0.00  0.00    -0.116 N 
ATOM     18  O   UNL d   1      26.663  -8.014   3.492  0.00  0.00    -0.532 OA
ATOM     19  O   UNL d   1      25.154  -8.754   2.082  0.00  0.00    -0.532 OA
ENDBRANCH  14  17
ENDBRANCH  10  11
ENDBRANCH   9  10
ENDBRANCH   8   9
BRANCH   8  20
ATOM     20  O   UNL d   1      30.294 -15.202   1.621  0.00  0.00    -0.392 OA
ATOM     21  H   UNL d   1      29.419 -15.510   1.915  0.00  0.00     0.210 HD
ENDBRANCH   8  20
ENDBRANCH   7   8
ENDBRANCH   4   7
BRANCH   3  22
ATOM     22  C   UNL d   1      27.592 -14.505  -0.563  0.00  0.00     0.125 C 
BRANCH  22  23
ATOM     23  C   UNL d   1      27.220 -15.858   0.042  0.00  0.00     0.024 C 
BRANCH  23  24
ATOM     24  C   UNL d   1      26.639 -16.786  -1.022  0.00  0.00     0.040 C 
BRANCH  24  25
ATOM     25  C   UNL d   1      25.214 -17.184  -0.731  0.00  0.00    -0.058 A 
ATOM     26  C   UNL d   1      24.920 -18.448  -0.204  0.00  0.00     0.007 A 
ATOM     27  C   UNL d   1      23.595 -18.870  -0.095  0.00  0.00     0.001 A 
ATOM     28  C   UNL d   1      22.555 -18.002  -0.421  0.00  0.00     0.000 A 
ATOM     29  C   UNL d   1      22.837 -16.721  -0.889  0.00  0.00     0.001 A 
ATOM     30  C   UNL d   1      24.161 -16.316  -1.051  0.00  0.00     0.007 A 
ENDBRANCH  24  25
ENDBRANCH  23  24
ENDBRANCH  22  23
ENDBRANCH   3  22
TORSDOF 11
ENDMDL
