MODEL 1
REMARK VINA RESULT:    -9.479      0.000      0.000
REMARK INTER + INTRA:         -14.934
REMARK INTER:                 -12.164
REMARK INTRA:                  -2.770
REMARK CONF_INDEPENDENT:        2.685
REMARK UNBOUND:                -2.770
REMARK  9 active torsions:
REMARK  status: ('A' for Active; 'I' for Inactive)
REMARK    1  A    between atoms: C_2  and  C_3 
REMARK       I    between atoms: C_2  and  N_30 
REMARK    2  A    between atoms: C_3  and  S_4 
REMARK    3  A    between atoms: S_4  and  C_5 
REMARK    4  A    between atoms: N_15  and  N_16 
REMARK       I    between atoms: N_16  and  C_17 
REMARK    5  A    between atoms: C_17  and  C_19 
REMARK    6  A    between atoms: C_19  and  C_20 
REMARK    7  A    between atoms: C_20  and  C_21 
REMARK    8  A    between atoms: N_30  and  C_31 
REMARK    9  A    between atoms: C_32  and  C_31 
ROOT
ATOM      1  C   UNL d   1      26.630 -14.546  -0.416  0.00  0.00     0.274 C 
ATOM      2  N   UNL d   1      27.300 -13.364  -0.926  0.00  0.00    -0.358 N 
ATOM      3  C   UNL d   1      26.885 -12.757  -2.102  0.00  0.00     0.046 A 
ATOM      4  C   UNL d   1      27.387 -11.515  -2.502  0.00  0.00     0.030 A 
ATOM      5  C   UNL d   1      26.895 -10.865  -3.651  0.00  0.00     0.002 A 
ATOM      6  C   UNL d   1      25.907 -11.453  -4.435  0.00  0.00     0.001 A 
ATOM      7  C   UNL d   1      25.384 -12.672  -4.043  0.00  0.00     0.019 A 
ATOM      8  C   UNL d   1      25.853 -13.286  -2.871  0.00  0.00     0.060 A 
ATOM      9  C   UNL d   1      25.256 -14.554  -2.463  0.00  0.00     0.277 C 
ATOM     10  O   UNL d   1      24.198 -14.869  -3.012  0.00  0.00    -0.266 OA
ATOM     11  N   UNL d   1      25.967 -15.283  -1.507  0.00  0.00    -0.221 N 
ATOM     12  H   UNL d   1      28.267 -13.242  -0.647  0.00  0.00     0.162 HD
ENDROOT
BRANCH  11  13
ATOM     13  N   UNL d   1      25.532 -16.642  -1.194  0.00  0.00    -0.262 N 
ATOM     14  C   UNL d   1      24.209 -16.844  -0.803  0.00  0.00     0.236 C 
ATOM     15  O   UNL d   1      23.374 -15.986  -0.539  0.00  0.00    -0.272 OA
ATOM     16  H   UNL d   1      25.929 -17.336  -1.826  0.00  0.00     0.190 HD
BRANCH  14  17
ATOM     17  C   UNL d   1      23.761 -18.280  -0.764  0.00  0.00     0.109 C 
BRANCH  17  18
ATOM     18  C   UNL d   1      22.645 -18.371   0.296  0.00  0.00     0.046 C 
BRANCH  18  19
ATOM     19  C   UNL d   1      21.377 -18.955  -0.198  0.00  0.00    -0.050 A 
ATOM     20  C   UNL d   1      20.441 -19.539   0.554  0.00  0.00    -0.006 A 
ATOM     21  C   UNL d   1      20.292 -19.772   1.952  0.00  0.00     0.014 A 
ATOM     22  C   UNL d   1      19.426 -19.988  -0.414  0.00  0.00     0.038 A 
ATOM     23  C   UNL d   1      19.202 -20.433   2.371  0.00  0.00     0.001 A 
ATOM     24  C   UNL d   1      18.192 -20.910   1.435  0.00  0.00     0.002 A 
ATOM     25  C   UNL d   1      18.260 -20.720   0.103  0.00  0.00     0.030 A 
ATOM     26  N   UNL d   1      19.729 -19.676  -1.617  0.00  0.00    -0.385 N 
ATOM     27  C   UNL d   1      21.009 -18.955  -1.645  0.00  0.00     0.155 A 
ATOM     28  H   UNL d   1      19.162 -19.918  -2.424  0.00  0.00     0.160 HD
ENDBRANCH  18  19
ENDBRANCH  17  18
ENDBRANCH  14  17
ENDBRANCH  11  13
BRANCH   1  29
ATOM     29  S   UNL d   1      27.912 -15.577   0.387  0.00  0.00    -0.112 SA
BRANCH  29  30
ATOM     30  C   UNL d   1      27.780 -15.142   2.182  0.00  0.00     0.180 C 
BRANCH  30  31
ATOM     31  C   UNL d   1      28.110 -13.641   2.370  0.00  0.00     0.227 C 
ATOM     32  O   UNL d   1      28.527 -12.913   1.469  0.00  0.00    -0.273 OA
ATOM     33  N   UNL d   1      27.961 -13.079   3.612  0.00  0.00    -0.358 N 
ATOM     34  H   UNL d   1      28.208 -12.094   3.651  0.00  0.00     0.162 HD
BRANCH  33  35
ATOM     35  C   UNL d   1      27.502 -13.736   4.822  0.00  0.00     0.154 C 
BRANCH  35  36
ATOM     36  C   UNL d   1      27.817 -12.962   6.118  0.00  0.00     0.139 C 
ATOM     37  C   UNL d   1      28.868 -13.688   6.948  0.00  0.00     0.035 C 
ATOM     38  C   UNL d   1      30.162 -13.076   6.481  0.00  0.00     0.029 C 
ATOM     39  C   UNL d   1      29.762 -11.650   6.179  0.00  0.00     0.168 C 
ATOM     40  O   UNL d   1      28.380 -11.676   5.784  0.00  0.00    -0.384 OA
ENDBRANCH  35  36
ENDBRANCH  33  35
ENDBRANCH  30  31
ENDBRANCH  29  30
ENDBRANCH   1  29
TORSDOF 9
ENDMDL
MODEL 2
REMARK VINA RESULT:    -8.908      2.853      7.420
REMARK INTER + INTRA:         -14.880
REMARK INTER:                 -11.593
REMARK INTRA:                  -3.288
REMARK CONF_INDEPENDENT:        2.685
REMARK UNBOUND:                -3.288
REMARK  9 active torsions:
REMARK  status: ('A' for Active; 'I' for Inactive)
REMARK    1  A    between atoms: C_2  and  C_3 
REMARK       I    between atoms: C_2  and  N_30 
REMARK    2  A    between atoms: C_3  and  S_4 
REMARK    3  A    between atoms: S_4  and  C_5 
REMARK    4  A    between atoms: N_15  and  N_16 
REMARK       I    between atoms: N_16  and  C_17 
REMARK    5  A    between atoms: C_17  and  C_19 
REMARK    6  A    between atoms: C_19  and  C_20 
REMARK    7  A    between atoms: C_20  and  C_21 
REMARK    8  A    between atoms: N_30  and  C_31 
REMARK    9  A    between atoms: C_32  and  C_31 
ROOT
ATOM      1  C   UNL d   1      26.809 -16.347  -1.930  0.00  0.00     0.274 C 
ATOM      2  N   UNL d   1      26.328 -17.350  -0.996  0.00  0.00    -0.358 N 
ATOM      3  C   UNL d   1      24.981 -17.446  -0.680  0.00  0.00     0.046 A 
ATOM      4  C   UNL d   1      24.477 -18.520   0.059  0.00  0.00     0.030 A 
ATOM      5  C   UNL d   1      23.096 -18.656   0.300  0.00  0.00     0.002 A 
ATOM      6  C   UNL d   1      22.194 -17.709  -0.174  0.00  0.00     0.001 A 
ATOM      7  C   UNL d   1      22.672 -16.650  -0.924  0.00  0.00     0.019 A 
ATOM      8  C   UNL d   1      24.046 -16.552  -1.194  0.00  0.00     0.060 A 
ATOM      9  C   UNL d   1      24.517 -15.444  -2.019  0.00  0.00     0.277 C 
ATOM     10  O   UNL d   1      23.660 -14.824  -2.652  0.00  0.00    -0.266 OA
ATOM     11  N   UNL d   1      25.890 -15.195  -1.980  0.00  0.00    -0.221 N 
ATOM     12  H   UNL d   1      26.999 -17.684  -0.314  0.00  0.00     0.162 HD
ENDROOT
BRANCH  11  13
ATOM     13  N   UNL d   1      26.405 -13.990  -2.625  0.00  0.00    -0.262 N 
ATOM     14  C   UNL d   1      25.935 -13.664  -3.897  0.00  0.00     0.236 C 
ATOM     15  O   UNL d   1      25.234 -14.354  -4.628  0.00  0.00    -0.272 OA
ATOM     16  H   UNL d   1      26.521 -13.216  -1.971  0.00  0.00     0.190 HD
BRANCH  14  17
ATOM     17  C   UNL d   1      26.291 -12.284  -4.381  0.00  0.00     0.109 C 
BRANCH  17  18
ATOM     18  C   UNL d   1      27.824 -12.244  -4.526  0.00  0.00     0.046 C 
BRANCH  18  19
ATOM     19  C   UNL d   1      28.363 -13.126  -5.588  0.00  0.00    -0.050 A 
ATOM     20  C   UNL d   1      28.898 -14.336  -5.402  0.00  0.00    -0.006 A 
ATOM     21  C   UNL d   1      29.107 -15.165  -4.263  0.00  0.00     0.014 A 
ATOM     22  C   UNL d   1      29.318 -14.757  -6.748  0.00  0.00     0.038 A 
ATOM     23  C   UNL d   1      29.717 -16.347  -4.443  0.00  0.00     0.001 A 
ATOM     24  C   UNL d   1      30.164 -16.781  -5.760  0.00  0.00     0.002 A 
ATOM     25  C   UNL d   1      29.995 -16.056  -6.882  0.00  0.00     0.030 A 
ATOM     26  N   UNL d   1      29.034 -13.886  -7.642  0.00  0.00    -0.385 N 
ATOM     27  C   UNL d   1      28.366 -12.731  -7.027  0.00  0.00     0.155 A 
ATOM     28  H   UNL d   1      29.263 -13.990  -8.626  0.00  0.00     0.160 HD
ENDBRANCH  18  19
ENDBRANCH  17  18
ENDBRANCH  14  17
ENDBRANCH  11  13
BRANCH   1  29
ATOM     29  S   UNL d   1      28.469 -15.838  -1.351  0.00  0.00    -0.112 SA
BRANCH  29  30
ATOM     30  C   UNL d   1      28.302 -15.770   0.492  0.00  0.00     0.180 C 
BRANCH  30  31
ATOM     31  C   UNL d   1      27.623 -14.437   0.895  0.00  0.00     0.227 C 
ATOM     32  O   UNL d   1      27.111 -13.659   0.091  0.00  0.00    -0.273 OA
ATOM     33  N   UNL d   1      27.606 -14.074   2.217  0.00  0.00    -0.358 N 
ATOM     34  H   UNL d   1      27.151 -13.183   2.394  0.00  0.00     0.162 HD
BRANCH  33  35
ATOM     35  C   UNL d   1      28.156 -14.816   3.337  0.00  0.00     0.154 C 
BRANCH  35  36
ATOM     36  C   UNL d   1      27.697 -14.306   4.718  0.00  0.00     0.139 C 
ATOM     37  C   UNL d   1      28.804 -14.453   5.754  0.00  0.00     0.035 C 
ATOM     38  C   UNL d   1      29.510 -13.124   5.697  0.00  0.00     0.029 C 
ATOM     39  C   UNL d   1      28.383 -12.165   5.392  0.00  0.00     0.168 C 
ATOM     40  O   UNL d   1      27.403 -12.895   4.635  0.00  0.00    -0.384 OA
ENDBRANCH  35  36
ENDBRANCH  33  35
ENDBRANCH  30  31
ENDBRANCH  29  30
ENDBRANCH   1  29
TORSDOF 9
ENDMDL
MODEL 3
REMARK VINA RESULT:    -8.752      4.801      9.567
REMARK INTER + INTRA:         -14.706
REMARK INTER:                 -11.437
REMARK INTRA:                  -3.269
REMARK CONF_INDEPENDENT:        2.685
REMARK UNBOUND:                -3.269
REMARK  9 active torsions:
REMARK  status: ('A' for Active; 'I' for Inactive)
REMARK    1  A    between atoms: C_2  and  C_3 
REMARK       I    between atoms: C_2  and  N_30 
REMARK    2  A    between atoms: C_3  and  S_4 
REMARK    3  A    between atoms: S_4  and  C_5 
REMARK    4  A    between atoms: N_15  and  N_16 
REMARK       I    between atoms: N_16  and  C_17 
REMARK    5  A    between atoms: C_17  and  C_19 
REMARK    6  A    between atoms: C_19  and  C_20 
REMARK    7  A    between atoms: C_20  and  C_21 
REMARK    8  A    between atoms: N_30  and  C_31 
REMARK    9  A    between atoms: C_32  and  C_31 
ROOT
ATOM      1  C   UNL d   1      26.539 -15.533  -0.455  0.00  0.00     0.274 C 
ATOM      2  N   UNL d   1      25.144 -15.492  -0.851  0.00  0.00    -0.358 N 
ATOM      3  C   UNL d   1      24.333 -16.612  -0.734  0.00  0.00     0.046 A 
ATOM      4  C   UNL d   1      22.950 -16.538  -0.924  0.00  0.00     0.030 A 
ATOM      5  C   UNL d   1      22.124 -17.659  -0.716  0.00  0.00     0.002 A 
ATOM      6  C   UNL d   1      22.666 -18.883  -0.334  0.00  0.00     0.001 A 
ATOM      7  C   UNL d   1      24.030 -18.969  -0.121  0.00  0.00     0.019 A 
ATOM      8  C   UNL d   1      24.834 -17.832  -0.289  0.00  0.00     0.060 A 
ATOM      9  C   UNL d   1      26.265 -17.944  -0.021  0.00  0.00     0.277 C 
ATOM     10  O   UNL d   1      26.634 -18.945   0.595  0.00  0.00    -0.266 OA
ATOM     11  N   UNL d   1      27.061 -16.910  -0.517  0.00  0.00    -0.221 N 
ATOM     12  H   UNL d   1      24.897 -14.802  -1.551  0.00  0.00     0.162 HD
ENDROOT
BRANCH  11  13
ATOM     13  N   UNL d   1      28.514 -17.051  -0.456  0.00  0.00    -0.262 N 
ATOM     14  C   UNL d   1      29.235 -17.040  -1.650  0.00  0.00     0.236 C 
ATOM     15  O   UNL d   1      28.783 -17.075  -2.790  0.00  0.00    -0.272 OA
ATOM     16  H   UNL d   1      28.924 -16.541   0.326  0.00  0.00     0.190 HD
BRANCH  14  17
ATOM     17  C   UNL d   1      30.726 -16.912  -1.501  0.00  0.00     0.109 C 
BRANCH  17  18
ATOM     18  C   UNL d   1      31.358 -18.010  -2.378  0.00  0.00     0.046 C 
BRANCH  18  19
ATOM     19  C   UNL d   1      31.555 -17.626  -3.795  0.00  0.00    -0.050 A 
ATOM     20  C   UNL d   1      31.211 -18.356  -4.858  0.00  0.00    -0.006 A 
ATOM     21  C   UNL d   1      30.570 -19.617  -5.031  0.00  0.00     0.014 A 
ATOM     22  C   UNL d   1      31.665 -17.559  -6.009  0.00  0.00     0.038 A 
ATOM     23  C   UNL d   1      30.401 -20.075  -6.281  0.00  0.00     0.001 A 
ATOM     24  C   UNL d   1      30.860 -19.319  -7.439  0.00  0.00     0.002 A 
ATOM     25  C   UNL d   1      31.466 -18.119  -7.355  0.00  0.00     0.030 A 
ATOM     26  N   UNL d   1      32.203 -16.454  -5.653  0.00  0.00    -0.385 N 
ATOM     27  C   UNL d   1      32.191 -16.334  -4.189  0.00  0.00     0.155 A 
ATOM     28  H   UNL d   1      32.594 -15.780  -6.305  0.00  0.00     0.160 HD
ENDBRANCH  18  19
ENDBRANCH  17  18
ENDBRANCH  14  17
ENDBRANCH  11  13
BRANCH   1  29
ATOM     29  S   UNL d   1      27.448 -14.434  -1.602  0.00  0.00    -0.112 SA
BRANCH  29  30
ATOM     30  C   UNL d   1      26.961 -15.038  -3.284  0.00  0.00     0.180 C 
BRANCH  30  31
ATOM     31  C   UNL d   1      25.750 -14.216  -3.791  0.00  0.00     0.227 C 
ATOM     32  O   UNL d   1      24.584 -14.450  -3.476  0.00  0.00    -0.273 OA
ATOM     33  N   UNL d   1      25.968 -13.182  -4.664  0.00  0.00    -0.358 N 
ATOM     34  H   UNL d   1      25.121 -12.702  -4.955  0.00  0.00     0.162 HD
BRANCH  33  35
ATOM     35  C   UNL d   1      27.245 -12.731  -5.187  0.00  0.00     0.154 C 
BRANCH  35  36
ATOM     36  C   UNL d   1      27.780 -13.576  -6.361  0.00  0.00     0.139 C 
ATOM     37  C   UNL d   1      29.274 -13.355  -6.560  0.00  0.00     0.035 C 
ATOM     38  C   UNL d   1      29.899 -14.443  -5.727  0.00  0.00     0.029 C 
ATOM     39  C   UNL d   1      28.907 -15.574  -5.865  0.00  0.00     0.168 C 
ATOM     40  O   UNL d   1      27.613 -14.977  -6.059  0.00  0.00    -0.384 OA
ENDBRANCH  35  36
ENDBRANCH  33  35
ENDBRANCH  30  31
ENDBRANCH  29  30
ENDBRANCH   1  29
TORSDOF 9
ENDMDL
MODEL 4
REMARK VINA RESULT:    -8.682      3.127      8.967
REMARK INTER + INTRA:         -14.697
REMARK INTER:                 -11.367
REMARK INTRA:                  -3.330
REMARK CONF_INDEPENDENT:        2.685
REMARK UNBOUND:                -3.330
REMARK  9 active torsions:
REMARK  status: ('A' for Active; 'I' for Inactive)
REMARK    1  A    between atoms: C_2  and  C_3 
REMARK       I    between atoms: C_2  and  N_30 
REMARK    2  A    between atoms: C_3  and  S_4 
REMARK    3  A    between atoms: S_4  and  C_5 
REMARK    4  A    between atoms: N_15  and  N_16 
REMARK       I    between atoms: N_16  and  C_17 
REMARK    5  A    between atoms: C_17  and  C_19 
REMARK    6  A    between atoms: C_19  and  C_20 
REMARK    7  A    between atoms: C_20  and  C_21 
REMARK    8  A    between atoms: N_30  and  C_31 
REMARK    9  A    between atoms: C_32  and  C_31 
ROOT
ATOM      1  C   UNL d   1      26.344 -15.418  -0.474  0.00  0.00     0.274 C 
ATOM      2  N   UNL d   1      25.008 -15.546  -1.029  0.00  0.00    -0.358 N 
ATOM      3  C   UNL d   1      24.257 -16.695  -0.827  0.00  0.00     0.046 A 
ATOM      4  C   UNL d   1      22.907 -16.759  -1.183  0.00  0.00     0.030 A 
ATOM      5  C   UNL d   1      22.129 -17.896  -0.894  0.00  0.00     0.002 A 
ATOM      6  C   UNL d   1      22.691 -19.003  -0.264  0.00  0.00     0.001 A 
ATOM      7  C   UNL d   1      24.021 -18.949   0.114  0.00  0.00     0.019 A 
ATOM      8  C   UNL d   1      24.771 -17.791  -0.140  0.00  0.00     0.060 A 
ATOM      9  C   UNL d   1      26.161 -17.750   0.303  0.00  0.00     0.277 C 
ATOM     10  O   UNL d   1      26.509 -18.614   1.109  0.00  0.00    -0.266 OA
ATOM     11  N   UNL d   1      26.950 -16.744  -0.258  0.00  0.00    -0.221 N 
ATOM     12  H   UNL d   1      24.810 -14.990  -1.853  0.00  0.00     0.162 HD
ENDROOT
BRANCH  11  13
ATOM     13  N   UNL d   1      28.390 -16.760  -0.010  0.00  0.00    -0.262 N 
ATOM     14  C   UNL d   1      29.254 -16.680  -1.102  0.00  0.00     0.236 C 
ATOM     15  O   UNL d   1      28.957 -16.747  -2.290  0.00  0.00    -0.272 OA
ATOM     16  H   UNL d   1      28.651 -16.221   0.815  0.00  0.00     0.190 HD
BRANCH  14  17
ATOM     17  C   UNL d   1      30.698 -16.426  -0.764  0.00  0.00     0.109 C 
BRANCH  17  18
ATOM     18  C   UNL d   1      30.788 -14.974  -0.257  0.00  0.00     0.046 C 
BRANCH  18  19
ATOM     19  C   UNL d   1      30.739 -14.835   1.217  0.00  0.00    -0.050 A 
ATOM     20  C   UNL d   1      29.681 -14.442   1.930  0.00  0.00    -0.006 A 
ATOM     21  C   UNL d   1      28.342 -14.079   1.603  0.00  0.00     0.014 A 
ATOM     22  C   UNL d   1      30.166 -14.423   3.319  0.00  0.00     0.038 A 
ATOM     23  C   UNL d   1      27.528 -13.698   2.600  0.00  0.00     0.001 A 
ATOM     24  C   UNL d   1      27.986 -13.648   3.982  0.00  0.00     0.002 A 
ATOM     25  C   UNL d   1      29.232 -13.984   4.368  0.00  0.00     0.030 A 
ATOM     26  N   UNL d   1      31.387 -14.793   3.414  0.00  0.00    -0.385 N 
ATOM     27  C   UNL d   1      31.918 -15.126   2.085  0.00  0.00     0.155 A 
ATOM     28  H   UNL d   1      31.902 -14.826   4.288  0.00  0.00     0.160 HD
ENDBRANCH  18  19
ENDBRANCH  17  18
ENDBRANCH  14  17
ENDBRANCH  11  13
BRANCH   1  29
ATOM     29  S   UNL d   1      27.322 -14.437  -1.671  0.00  0.00    -0.112 SA
BRANCH  29  30
ATOM     30  C   UNL d   1      26.107 -13.215  -2.350  0.00  0.00     0.180 C 
BRANCH  30  31
ATOM     31  C   UNL d   1      25.398 -13.829  -3.582  0.00  0.00     0.227 C 
ATOM     32  O   UNL d   1      24.337 -14.449  -3.522  0.00  0.00    -0.273 OA
ATOM     33  N   UNL d   1      25.986 -13.708  -4.815  0.00  0.00    -0.358 N 
ATOM     34  H   UNL d   1      25.461 -14.147  -5.567  0.00  0.00     0.162 HD
BRANCH  33  35
ATOM     35  C   UNL d   1      27.235 -13.039  -5.129  0.00  0.00     0.154 C 
BRANCH  35  36
ATOM     36  C   UNL d   1      28.164 -13.843  -6.061  0.00  0.00     0.139 C 
ATOM     37  C   UNL d   1      29.618 -13.723  -5.623  0.00  0.00     0.035 C 
ATOM     38  C   UNL d   1      29.804 -14.908  -4.712  0.00  0.00     0.029 C 
ATOM     39  C   UNL d   1      28.905 -15.950  -5.339  0.00  0.00     0.168 C 
ATOM     40  O   UNL d   1      27.829 -15.244  -5.980  0.00  0.00    -0.384 OA
ENDBRANCH  35  36
ENDBRANCH  33  35
ENDBRANCH  30  31
ENDBRANCH  29  30
ENDBRANCH   1  29
TORSDOF 9
ENDMDL
MODEL 5
REMARK VINA RESULT:    -8.435      3.097      9.000
REMARK INTER + INTRA:         -14.606
REMARK INTER:                 -11.120
REMARK INTRA:                  -3.486
REMARK CONF_INDEPENDENT:        2.685
REMARK UNBOUND:                -3.486
REMARK  9 active torsions:
REMARK  status: ('A' for Active; 'I' for Inactive)
REMARK    1  A    between atoms: C_2  and  C_3 
REMARK       I    between atoms: C_2  and  N_30 
REMARK    2  A    between atoms: C_3  and  S_4 
REMARK    3  A    between atoms: S_4  and  C_5 
REMARK    4  A    between atoms: N_15  and  N_16 
REMARK       I    between atoms: N_16  and  C_17 
REMARK    5  A    between atoms: C_17  and  C_19 
REMARK    6  A    between atoms: C_19  and  C_20 
REMARK    7  A    between atoms: C_20  and  C_21 
REMARK    8  A    between atoms: N_30  and  C_31 
REMARK    9  A    between atoms: C_32  and  C_31 
ROOT
ATOM      1  C   UNL d   1      26.277 -15.335  -0.361  0.00  0.00     0.274 C 
ATOM      2  N   UNL d   1      24.943 -15.469  -0.918  0.00  0.00    -0.358 N 
ATOM      3  C   UNL d   1      24.222 -16.646  -0.772  0.00  0.00     0.046 A 
ATOM      4  C   UNL d   1      22.872 -16.726  -1.127  0.00  0.00     0.030 A 
ATOM      5  C   UNL d   1      22.125 -17.897  -0.893  0.00  0.00     0.002 A 
ATOM      6  C   UNL d   1      22.717 -19.018  -0.320  0.00  0.00     0.001 A 
ATOM      7  C   UNL d   1      24.046 -18.950   0.057  0.00  0.00     0.019 A 
ATOM      8  C   UNL d   1      24.766 -17.761  -0.141  0.00  0.00     0.060 A 
ATOM      9  C   UNL d   1      26.156 -17.707   0.300  0.00  0.00     0.277 C 
ATOM     10  O   UNL d   1      26.529 -18.601   1.061  0.00  0.00    -0.266 OA
ATOM     11  N   UNL d   1      26.918 -16.654  -0.212  0.00  0.00    -0.221 N 
ATOM     12  H   UNL d   1      24.728 -14.879  -1.713  0.00  0.00     0.162 HD
ENDROOT
BRANCH  11  13
ATOM     13  N   UNL d   1      28.358 -16.645   0.032  0.00  0.00    -0.262 N 
ATOM     14  C   UNL d   1      29.217 -16.574  -1.064  0.00  0.00     0.236 C 
ATOM     15  O   UNL d   1      28.918 -16.667  -2.250  0.00  0.00    -0.272 OA
ATOM     16  H   UNL d   1      28.614 -16.088   0.846  0.00  0.00     0.190 HD
BRANCH  14  17
ATOM     17  C   UNL d   1      30.659 -16.294  -0.736  0.00  0.00     0.109 C 
BRANCH  17  18
ATOM     18  C   UNL d   1      30.718 -14.860  -0.175  0.00  0.00     0.046 C 
BRANCH  18  19
ATOM     19  C   UNL d   1      30.693 -14.779   1.304  0.00  0.00    -0.050 A 
ATOM     20  C   UNL d   1      29.648 -14.408   2.049  0.00  0.00    -0.006 A 
ATOM     21  C   UNL d   1      28.307 -14.025   1.758  0.00  0.00     0.014 A 
ATOM     22  C   UNL d   1      30.156 -14.446   3.430  0.00  0.00     0.038 A 
ATOM     23  C   UNL d   1      27.511 -13.679   2.782  0.00  0.00     0.001 A 
ATOM     24  C   UNL d   1      27.992 -13.685   4.157  0.00  0.00     0.002 A 
ATOM     25  C   UNL d   1      29.242 -14.043   4.510  0.00  0.00     0.030 A 
ATOM     26  N   UNL d   1      31.376 -14.826   3.490  0.00  0.00    -0.385 N 
ATOM     27  C   UNL d   1      31.884 -15.110   2.141  0.00  0.00     0.155 A 
ATOM     28  H   UNL d   1      31.905 -14.896   4.354  0.00  0.00     0.160 HD
ENDBRANCH  18  19
ENDBRANCH  17  18
ENDBRANCH  14  17
ENDBRANCH  11  13
BRANCH   1  29
ATOM     29  S   UNL d   1      27.225 -14.271  -1.510  0.00  0.00    -0.112 SA
BRANCH  29  30
ATOM     30  C   UNL d   1      26.679 -14.826  -3.190  0.00  0.00     0.180 C 
BRANCH  30  31
ATOM     31  C   UNL d   1      25.459 -13.982  -3.636  0.00  0.00     0.227 C 
ATOM     32  O   UNL d   1      24.334 -14.449  -3.816  0.00  0.00    -0.273 OA
ATOM     33  N   UNL d   1      25.628 -12.643  -3.874  0.00  0.00    -0.358 N 
ATOM     34  H   UNL d   1      24.781 -12.167  -4.172  0.00  0.00     0.162 HD
BRANCH  33  35
ATOM     35  C   UNL d   1      26.856 -11.878  -3.746  0.00  0.00     0.154 C 
BRANCH  35  36
ATOM     36  C   UNL d   1      26.869 -10.568  -4.558  0.00  0.00     0.139 C 
ATOM     37  C   UNL d   1      27.773 -10.688  -5.779  0.00  0.00     0.035 C 
ATOM     38  C   UNL d   1      26.830 -11.140  -6.863  0.00  0.00     0.029 C 
ATOM     39  C   UNL d   1      25.541 -10.447  -6.489  0.00  0.00     0.168 C 
ATOM     40  O   UNL d   1      25.543 -10.299  -5.059  0.00  0.00    -0.384 OA
ENDBRANCH  35  36
ENDBRANCH  33  35
ENDBRANCH  30  31
ENDBRANCH  29  30
ENDBRANCH   1  29
TORSDOF 9
ENDMDL
MODEL 6
REMARK VINA RESULT:    -8.060      2.455      8.703
REMARK INTER + INTRA:         -14.850
REMARK INTER:                 -10.744
REMARK INTRA:                  -4.105
REMARK CONF_INDEPENDENT:        2.685
REMARK UNBOUND:                -4.105
REMARK  9 active torsions:
REMARK  status: ('A' for Active; 'I' for Inactive)
REMARK    1  A    between atoms: C_2  and  C_3 
REMARK       I    between atoms: C_2  and  N_30 
REMARK    2  A    between atoms: C_3  and  S_4 
REMARK    3  A    between atoms: S_4  and  C_5 
REMARK    4  A    between atoms: N_15  and  N_16 
REMARK       I    between atoms: N_16  and  C_17 
REMARK    5  A    between atoms: C_17  and  C_19 
REMARK    6  A    between atoms: C_19  and  C_20 
REMARK    7  A    between atoms: C_20  and  C_21 
REMARK    8  A    between atoms: N_30  and  C_31 
REMARK    9  A    between atoms: C_32  and  C_31 
ROOT
ATOM      1  C   UNL d   1      28.107 -14.029   2.634  0.00  0.00     0.274 C 
ATOM      2  N   UNL d   1      28.671 -14.582   3.851  0.00  0.00    -0.358 N 
ATOM      3  C   UNL d   1      28.675 -13.855   5.033  0.00  0.00     0.046 A 
ATOM      4  C   UNL d   1      29.032 -14.440   6.252  0.00  0.00     0.030 A 
ATOM      5  C   UNL d   1      28.948 -13.720   7.459  0.00  0.00     0.002 A 
ATOM      6  C   UNL d   1      28.526 -12.394   7.470  0.00  0.00     0.001 A 
ATOM      7  C   UNL d   1      28.149 -11.805   6.276  0.00  0.00     0.019 A 
ATOM      8  C   UNL d   1      28.195 -12.550   5.088  0.00  0.00     0.060 A 
ATOM      9  C   UNL d   1      27.756 -11.913   3.849  0.00  0.00     0.277 C 
ATOM     10  O   UNL d   1      27.118 -10.865   3.964  0.00  0.00    -0.266 OA
ATOM     11  N   UNL d   1      28.131 -12.555   2.668  0.00  0.00    -0.221 N 
ATOM     12  H   UNL d   1      29.383 -15.294   3.732  0.00  0.00     0.162 HD
ENDROOT
BRANCH  11  13
ATOM     13  N   UNL d   1      27.894 -11.878   1.394  0.00  0.00    -0.262 N 
ATOM     14  C   UNL d   1      28.929 -11.125   0.840  0.00  0.00     0.236 C 
ATOM     15  O   UNL d   1      29.995 -10.827   1.366  0.00  0.00    -0.272 OA
ATOM     16  H   UNL d   1      27.346 -12.444   0.747  0.00  0.00     0.190 HD
BRANCH  14  17
ATOM     17  C   UNL d   1      28.715 -10.689  -0.585  0.00  0.00     0.109 C 
BRANCH  17  18
ATOM     18  C   UNL d   1      28.695 -11.967  -1.444  0.00  0.00     0.046 C 
BRANCH  18  19
ATOM     19  C   UNL d   1      27.471 -12.137  -2.262  0.00  0.00    -0.050 A 
ATOM     20  C   UNL d   1      27.042 -13.282  -2.798  0.00  0.00    -0.006 A 
ATOM     21  C   UNL d   1      27.511 -14.627  -2.774  0.00  0.00     0.014 A 
ATOM     22  C   UNL d   1      25.832 -12.902  -3.545  0.00  0.00     0.038 A 
ATOM     23  C   UNL d   1      26.826 -15.549  -3.469  0.00  0.00     0.001 A 
ATOM     24  C   UNL d   1      25.638 -15.198  -4.235  0.00  0.00     0.002 A 
ATOM     25  C   UNL d   1      25.131 -13.952  -4.299  0.00  0.00     0.030 A 
ATOM     26  N   UNL d   1      25.564 -11.656  -3.436  0.00  0.00    -0.385 N 
ATOM     27  C   UNL d   1      26.564 -10.996  -2.585  0.00  0.00     0.155 A 
ATOM     28  H   UNL d   1      24.779 -11.203  -3.895  0.00  0.00     0.160 HD
ENDBRANCH  18  19
ENDBRANCH  17  18
ENDBRANCH  14  17
ENDBRANCH  11  13
BRANCH   1  29
ATOM     29  S   UNL d   1      29.113 -14.670   1.245  0.00  0.00    -0.112 SA
BRANCH  29  30
ATOM     30  C   UNL d   1      27.973 -15.831   0.362  0.00  0.00     0.180 C 
BRANCH  30  31
ATOM     31  C   UNL d   1      26.598 -15.147   0.164  0.00  0.00     0.227 C 
ATOM     32  O   UNL d   1      26.398 -13.947   0.349  0.00  0.00    -0.273 OA
ATOM     33  N   UNL d   1      25.524 -15.911  -0.212  0.00  0.00    -0.358 N 
ATOM     34  H   UNL d   1      24.659 -15.387  -0.309  0.00  0.00     0.162 HD
BRANCH  33  35
ATOM     35  C   UNL d   1      25.512 -17.340  -0.471  0.00  0.00     0.154 C 
BRANCH  35  36
ATOM     36  C   UNL d   1      24.296 -17.822  -1.287  0.00  0.00     0.139 C 
ATOM     37  C   UNL d   1      23.615 -19.005  -0.610  0.00  0.00     0.035 C 
ATOM     38  C   UNL d   1      22.558 -18.355   0.242  0.00  0.00     0.029 C 
ATOM     39  C   UNL d   1      22.157 -17.157  -0.588  0.00  0.00     0.168 C 
ATOM     40  O   UNL d   1      23.312 -16.768  -1.351  0.00  0.00    -0.384 OA
ENDBRANCH  35  36
ENDBRANCH  33  35
ENDBRANCH  30  31
ENDBRANCH  29  30
ENDBRANCH   1  29
TORSDOF 9
ENDMDL
MODEL 7
REMARK VINA RESULT:    -7.314      4.021      8.910
REMARK INTER + INTRA:         -14.631
REMARK INTER:                  -9.998
REMARK INTRA:                  -4.633
REMARK CONF_INDEPENDENT:        2.685
REMARK UNBOUND:                -4.633
REMARK  9 active torsions:
REMARK  status: ('A' for Active; 'I' for Inactive)
REMARK    1  A    between atoms: C_2  and  C_3 
REMARK       I    between atoms: C_2  and  N_30 
REMARK    2  A    between atoms: C_3  and  S_4 
REMARK    3  A    between atoms: S_4  and  C_5 
REMARK    4  A    between atoms: N_15  and  N_16 
REMARK       I    between atoms: N_16  and  C_17 
REMARK    5  A    between atoms: C_17  and  C_19 
REMARK    6  A    between atoms: C_19  and  C_20 
REMARK    7  A    between atoms: C_20  and  C_21 
REMARK    8  A    between atoms: N_30  and  C_31 
REMARK    9  A    between atoms: C_32  and  C_31 
ROOT
ATOM      1  C   UNL d   1      26.422 -15.543  -0.919  0.00  0.00     0.274 C 
ATOM      2  N   UNL d   1      24.987 -15.509  -1.138  0.00  0.00    -0.358 N 
ATOM      3  C   UNL d   1      24.197 -16.620  -0.878  0.00  0.00     0.046 A 
ATOM      4  C   UNL d   1      22.801 -16.546  -0.895  0.00  0.00     0.030 A 
ATOM      5  C   UNL d   1      22.008 -17.654  -0.543  0.00  0.00     0.002 A 
ATOM      6  C   UNL d   1      22.593 -18.866  -0.188  0.00  0.00     0.001 A 
ATOM      7  C   UNL d   1      23.973 -18.952  -0.145  0.00  0.00     0.019 A 
ATOM      8  C   UNL d   1      24.750 -17.825  -0.455  0.00  0.00     0.060 A 
ATOM      9  C   UNL d   1      26.203 -17.935  -0.366  0.00  0.00     0.277 C 
ATOM     10  O   UNL d   1      26.646 -18.914   0.236  0.00  0.00    -0.266 OA
ATOM     11  N   UNL d   1      26.931 -16.924  -0.996  0.00  0.00    -0.221 N 
ATOM     12  H   UNL d   1      24.655 -14.844  -1.827  0.00  0.00     0.162 HD
ENDROOT
BRANCH  11  13
ATOM     13  N   UNL d   1      28.380 -17.070  -1.113  0.00  0.00    -0.262 N 
ATOM     14  C   UNL d   1      29.193 -16.357  -0.233  0.00  0.00     0.236 C 
ATOM     15  O   UNL d   1      28.847 -15.484   0.556  0.00  0.00    -0.272 OA
ATOM     16  H   UNL d   1      28.662 -18.028  -1.316  0.00  0.00     0.190 HD
BRANCH  14  17
ATOM     17  C   UNL d   1      30.643 -16.759  -0.226  0.00  0.00     0.109 C 
BRANCH  17  18
ATOM     18  C   UNL d   1      31.429 -15.608  -0.883  0.00  0.00     0.046 C 
BRANCH  18  19
ATOM     19  C   UNL d   1      30.774 -15.021  -2.075  0.00  0.00    -0.050 A 
ATOM     20  C   UNL d   1      30.471 -15.672  -3.201  0.00  0.00    -0.006 A 
ATOM     21  C   UNL d   1      30.609 -17.022  -3.635  0.00  0.00     0.014 A 
ATOM     22  C   UNL d   1      29.893 -14.638  -4.074  0.00  0.00     0.038 A 
ATOM     23  C   UNL d   1      30.211 -17.332  -4.879  0.00  0.00     0.001 A 
ATOM     24  C   UNL d   1      29.655 -16.325  -5.773  0.00  0.00     0.002 A 
ATOM     25  C   UNL d   1      29.486 -15.033  -5.431  0.00  0.00     0.030 A 
ATOM     26  N   UNL d   1      29.839 -13.494  -3.504  0.00  0.00    -0.385 N 
ATOM     27  C   UNL d   1      30.377 -13.583  -2.140  0.00  0.00     0.155 A 
ATOM     28  H   UNL d   1      29.489 -12.654  -3.954  0.00  0.00     0.160 HD
ENDBRANCH  18  19
ENDBRANCH  17  18
ENDBRANCH  14  17
ENDBRANCH  11  13
BRANCH   1  29
ATOM     29  S   UNL d   1      27.179 -14.491  -2.212  0.00  0.00    -0.112 SA
BRANCH  29  30
ATOM     30  C   UNL d   1      26.313 -14.998  -3.769  0.00  0.00     0.180 C 
BRANCH  30  31
ATOM     31  C   UNL d   1      25.209 -13.964  -4.099  0.00  0.00     0.227 C 
ATOM     32  O   UNL d   1      24.037 -14.075  -3.739  0.00  0.00    -0.273 OA
ATOM     33  N   UNL d   1      25.530 -12.870  -4.860  0.00  0.00    -0.358 N 
ATOM     34  H   UNL d   1      24.746 -12.248  -5.039  0.00  0.00     0.162 HD
BRANCH  33  35
ATOM     35  C   UNL d   1      26.832 -12.535  -5.409  0.00  0.00     0.154 C 
BRANCH  35  36
ATOM     36  C   UNL d   1      27.519 -11.341  -4.716  0.00  0.00     0.139 C 
ATOM     37  C   UNL d   1      26.649 -10.093  -4.782  0.00  0.00     0.035 C 
ATOM     38  C   UNL d   1      25.861 -10.151  -3.500  0.00  0.00     0.029 C 
ATOM     39  C   UNL d   1      26.842 -10.783  -2.539  0.00  0.00     0.168 C 
ATOM     40  O   UNL d   1      27.699 -11.638  -3.315  0.00  0.00    -0.384 OA
ENDBRANCH  35  36
ENDBRANCH  33  35
ENDBRANCH  30  31
ENDBRANCH  29  30
ENDBRANCH   1  29
TORSDOF 9
ENDMDL
MODEL 8
REMARK VINA RESULT:    -7.195      4.343      8.282
REMARK INTER + INTRA:         -14.311
REMARK INTER:                  -9.880
REMARK INTRA:                  -4.431
REMARK CONF_INDEPENDENT:        2.685
REMARK UNBOUND:                -4.431
REMARK  9 active torsions:
REMARK  status: ('A' for Active; 'I' for Inactive)
REMARK    1  A    between atoms: C_2  and  C_3 
REMARK       I    between atoms: C_2  and  N_30 
REMARK    2  A    between atoms: C_3  and  S_4 
REMARK    3  A    between atoms: S_4  and  C_5 
REMARK    4  A    between atoms: N_15  and  N_16 
REMARK       I    between atoms: N_16  and  C_17 
REMARK    5  A    between atoms: C_17  and  C_19 
REMARK    6  A    between atoms: C_19  and  C_20 
REMARK    7  A    between atoms: C_20  and  C_21 
REMARK    8  A    between atoms: N_30  and  C_31 
REMARK    9  A    between atoms: C_32  and  C_31 
ROOT
ATOM      1  C   UNL d   1      25.769 -14.269  -2.679  0.00  0.00     0.274 C 
ATOM      2  N   UNL d   1      24.503 -14.800  -2.207  0.00  0.00    -0.358 N 
ATOM      3  C   UNL d   1      24.437 -16.032  -1.572  0.00  0.00     0.046 A 
ATOM      4  C   UNL d   1      23.269 -16.468  -0.940  0.00  0.00     0.030 A 
ATOM      5  C   UNL d   1      23.237 -17.680  -0.222  0.00  0.00     0.002 A 
ATOM      6  C   UNL d   1      24.365 -18.490  -0.140  0.00  0.00     0.001 A 
ATOM      7  C   UNL d   1      25.536 -18.064  -0.742  0.00  0.00     0.019 A 
ATOM      8  C   UNL d   1      25.564 -16.833  -1.415  0.00  0.00     0.060 A 
ATOM      9  C   UNL d   1      26.823 -16.393  -2.009  0.00  0.00     0.277 C 
ATOM     10  O   UNL d   1      27.841 -16.989  -1.650  0.00  0.00    -0.266 OA
ATOM     11  N   UNL d   1      26.729 -15.356  -2.939  0.00  0.00    -0.221 N 
ATOM     12  H   UNL d   1      23.672 -14.469  -2.683  0.00  0.00     0.162 HD
ENDROOT
BRANCH  11  13
ATOM     13  N   UNL d   1      27.916 -14.995  -3.712  0.00  0.00    -0.262 N 
ATOM     14  C   UNL d   1      27.855 -15.082  -5.102  0.00  0.00     0.236 C 
ATOM     15  O   UNL d   1      26.957 -15.575  -5.777  0.00  0.00    -0.272 OA
ATOM     16  H   UNL d   1      28.401 -14.185  -3.329  0.00  0.00     0.190 HD
BRANCH  14  17
ATOM     17  C   UNL d   1      29.001 -14.442  -5.839  0.00  0.00     0.109 C 
BRANCH  17  18
ATOM     18  C   UNL d   1      30.290 -14.855  -5.103  0.00  0.00     0.046 C 
BRANCH  18  19
ATOM     19  C   UNL d   1      30.402 -16.306  -4.829  0.00  0.00    -0.050 A 
ATOM     20  C   UNL d   1      30.594 -17.261  -5.742  0.00  0.00    -0.006 A 
ATOM     21  C   UNL d   1      30.778 -17.262  -7.155  0.00  0.00     0.014 A 
ATOM     22  C   UNL d   1      30.578 -18.513  -4.968  0.00  0.00     0.038 A 
ATOM     23  C   UNL d   1      30.922 -18.443  -7.775  0.00  0.00     0.001 A 
ATOM     24  C   UNL d   1      30.888 -19.700  -7.038  0.00  0.00     0.002 A 
ATOM     25  C   UNL d   1      30.726 -19.778  -5.703  0.00  0.00     0.030 A 
ATOM     26  N   UNL d   1      30.415 -18.308  -3.716  0.00  0.00    -0.385 N 
ATOM     27  C   UNL d   1      30.299 -16.868  -3.450  0.00  0.00     0.155 A 
ATOM     28  H   UNL d   1      30.359 -19.049  -3.024  0.00  0.00     0.160 HD
ENDBRANCH  18  19
ENDBRANCH  17  18
ENDBRANCH  14  17
ENDBRANCH  11  13
BRANCH   1  29
ATOM     29  S   UNL d   1      25.410 -13.331  -4.211  0.00  0.00    -0.112 SA
BRANCH  29  30
ATOM     30  C   UNL d   1      26.274 -11.713  -3.960  0.00  0.00     0.180 C 
BRANCH  30  31
ATOM     31  C   UNL d   1      27.722 -11.976  -3.476  0.00  0.00     0.227 C 
ATOM     32  O   UNL d   1      28.667 -12.199  -4.233  0.00  0.00    -0.273 OA
ATOM     33  N   UNL d   1      27.979 -11.993  -2.130  0.00  0.00    -0.358 N 
ATOM     34  H   UNL d   1      28.950 -12.182  -1.898  0.00  0.00     0.162 HD
BRANCH  33  35
ATOM     35  C   UNL d   1      27.030 -11.773  -1.053  0.00  0.00     0.154 C 
BRANCH  35  36
ATOM     36  C   UNL d   1      27.547 -12.192   0.338  0.00  0.00     0.139 C 
ATOM     37  C   UNL d   1      26.632 -13.231   0.973  0.00  0.00     0.035 C 
ATOM     38  C   UNL d   1      27.245 -14.539   0.549  0.00  0.00     0.029 C 
ATOM     39  C   UNL d   1      28.721 -14.217   0.520  0.00  0.00     0.168 C 
ATOM     40  O   UNL d   1      28.840 -12.820   0.200  0.00  0.00    -0.384 OA
ENDBRANCH  35  36
ENDBRANCH  33  35
ENDBRANCH  30  31
ENDBRANCH  29  30
ENDBRANCH   1  29
TORSDOF 9
ENDMDL
MODEL 9
REMARK VINA RESULT:    -6.691      4.544      6.752
REMARK INTER + INTRA:         -14.342
REMARK INTER:                  -9.376
REMARK INTRA:                  -4.966
REMARK CONF_INDEPENDENT:        2.685
REMARK UNBOUND:                -4.966
REMARK  9 active torsions:
REMARK  status: ('A' for Active; 'I' for Inactive)
REMARK    1  A    between atoms: C_2  and  C_3 
REMARK       I    between atoms: C_2  and  N_30 
REMARK    2  A    between atoms: C_3  and  S_4 
REMARK    3  A    between atoms: S_4  and  C_5 
REMARK    4  A    between atoms: N_15  and  N_16 
REMARK       I    between atoms: N_16  and  C_17 
REMARK    5  A    between atoms: C_17  and  C_19 
REMARK    6  A    between atoms: C_19  and  C_20 
REMARK    7  A    between atoms: C_20  and  C_21 
REMARK    8  A    between atoms: N_30  and  C_31 
REMARK    9  A    between atoms: C_32  and  C_31 
ROOT
ATOM      1  C   UNL d   1      30.139 -16.805  -3.745  0.00  0.00     0.274 C 
ATOM      2  N   UNL d   1      30.377 -18.213  -4.008  0.00  0.00    -0.358 N 
ATOM      3  C   UNL d   1      30.591 -18.674  -5.298  0.00  0.00     0.046 A 
ATOM      4  C   UNL d   1      31.013 -19.983  -5.549  0.00  0.00     0.030 A 
ATOM      5  C   UNL d   1      31.313 -20.416  -6.854  0.00  0.00     0.002 A 
ATOM      6  C   UNL d   1      31.177 -19.555  -7.940  0.00  0.00     0.001 A 
ATOM      7  C   UNL d   1      30.780 -18.250  -7.709  0.00  0.00     0.019 A 
ATOM      8  C   UNL d   1      30.528 -17.821  -6.397  0.00  0.00     0.060 A 
ATOM      9  C   UNL d   1      30.147 -16.429  -6.181  0.00  0.00     0.277 C 
ATOM     10  O   UNL d   1      30.337 -15.653  -7.119  0.00  0.00    -0.266 OA
ATOM     11  N   UNL d   1      29.586 -16.136  -4.936  0.00  0.00    -0.221 N 
ATOM     12  H   UNL d   1      29.999 -18.865  -3.329  0.00  0.00     0.162 HD
ENDROOT
BRANCH  11  13
ATOM     13  N   UNL d   1      29.007 -14.812  -4.720  0.00  0.00    -0.262 N 
ATOM     14  C   UNL d   1      27.776 -14.521  -5.305  0.00  0.00     0.236 C 
ATOM     15  O   UNL d   1      27.163 -15.200  -6.122  0.00  0.00    -0.272 OA
ATOM     16  H   UNL d   1      29.149 -14.474  -3.769  0.00  0.00     0.190 HD
BRANCH  14  17
ATOM     17  C   UNL d   1      27.115 -13.258  -4.822  0.00  0.00     0.109 C 
BRANCH  17  18
ATOM     18  C   UNL d   1      25.831 -13.680  -4.084  0.00  0.00     0.046 C 
BRANCH  18  19
ATOM     19  C   UNL d   1      26.032 -14.040  -2.661  0.00  0.00    -0.050 A 
ATOM     20  C   UNL d   1      25.742 -15.218  -2.104  0.00  0.00    -0.006 A 
ATOM     21  C   UNL d   1      25.222 -16.450  -2.598  0.00  0.00     0.014 A 
ATOM     22  C   UNL d   1      26.076 -15.040  -0.682  0.00  0.00     0.038 A 
ATOM     23  C   UNL d   1      25.026 -17.450  -1.726  0.00  0.00     0.001 A 
ATOM     24  C   UNL d   1      25.327 -17.295  -0.309  0.00  0.00     0.002 A 
ATOM     25  C   UNL d   1      25.827 -16.167   0.230  0.00  0.00     0.030 A 
ATOM     26  N   UNL d   1      26.541 -13.874  -0.434  0.00  0.00    -0.385 N 
ATOM     27  C   UNL d   1      26.595 -13.078  -1.668  0.00  0.00     0.155 A 
ATOM     28  H   UNL d   1      26.810 -13.558   0.493  0.00  0.00     0.160 HD
ENDBRANCH  18  19
ENDBRANCH  17  18
ENDBRANCH  14  17
ENDBRANCH  11  13
BRANCH   1  29
ATOM     29  S   UNL d   1      28.967 -16.719  -2.341  0.00  0.00    -0.112 SA
BRANCH  29  30
ATOM     30  C   UNL d   1      29.955 -15.951  -0.976  0.00  0.00     0.180 C 
BRANCH  30  31
ATOM     31  C   UNL d   1      29.554 -14.463  -0.829  0.00  0.00     0.227 C 
ATOM     32  O   UNL d   1      29.594 -13.649  -1.751  0.00  0.00    -0.273 OA
ATOM     33  N   UNL d   1      29.154 -14.001   0.398  0.00  0.00    -0.358 N 
ATOM     34  H   UNL d   1      28.918 -13.013   0.410  0.00  0.00     0.162 HD
BRANCH  33  35
ATOM     35  C   UNL d   1      29.042 -14.765   1.628  0.00  0.00     0.154 C 
BRANCH  35  36
ATOM     36  C   UNL d   1      27.803 -14.415   2.476  0.00  0.00     0.139 C 
ATOM     37  C   UNL d   1      28.155 -14.338   3.956  0.00  0.00     0.035 C 
ATOM     38  C   UNL d   1      28.482 -12.882   4.159  0.00  0.00     0.029 C 
ATOM     39  C   UNL d   1      27.542 -12.195   3.195  0.00  0.00     0.168 C 
ATOM     40  O   UNL d   1      27.320 -13.106   2.105  0.00  0.00    -0.384 OA
ENDBRANCH  35  36
ENDBRANCH  33  35
ENDBRANCH  30  31
ENDBRANCH  29  30
ENDBRANCH   1  29
TORSDOF 9
ENDMDL
