MODEL 1
REMARK VINA RESULT:   -21.244      0.000      0.000
REMARK INTER + INTRA:         -24.300
REMARK INTER:                 -23.929
REMARK INTRA:                  -0.371
REMARK CONF_INDEPENDENT:        2.685
REMARK UNBOUND:                -0.371
REMARK  9 active torsions:
REMARK  status: ('A' for Active; 'I' for Inactive)
REMARK    1  A    between atoms: C_5  and  C_6 
REMARK    2  A    between atoms: C_6  and  S_7 
REMARK    3  A    between atoms: S_7  and  C_8 
REMARK    4  A    between atoms: C_11  and  S_12 
REMARK    5  A    between atoms: S_12  and  C_13 
REMARK    6  A    between atoms: C_13  and  C_14 
REMARK       I    between atoms: C_14  and  N_16 
REMARK    7  A    between atoms: N_16  and  N_17 
REMARK    8  A    between atoms: C_18  and  C_19 
REMARK    9  A    between atoms: C_23  and  O_24 
ROOT
ATOM      1  S   UNL d   1      24.818 -17.198  -0.482  0.00  0.00    -0.092 SA
ENDROOT
BRANCH   1   2
ATOM      2  C   UNL d   1      25.872 -15.853  -0.865  0.00  0.00     0.159 A 
ATOM      3  N   UNL d   1      25.472 -14.919  -1.711  0.00  0.00    -0.134 NA
ATOM      4  N   UNL d   1      26.414 -13.912  -1.904  0.00  0.00    -0.134 NA
ATOM      5  C   UNL d   1      27.491 -14.133  -1.192  0.00  0.00     0.159 A 
ATOM      6  S   UNL d   1      27.439 -15.579  -0.249  0.00  0.00    -0.033 SA
BRANCH   5   7
ATOM      7  S   UNL d   1      28.892 -13.122  -1.137  0.00  0.00    -0.097 SA
BRANCH   7   8
ATOM      8  C   UNL d   1      30.007 -13.737   0.171  0.00  0.00     0.120 C 
BRANCH   8   9
ATOM      9  C   UNL d   1      29.344 -13.736   1.554  0.00  0.00    -0.049 A 
ATOM     10  C   UNL d   1      30.076 -14.088   2.702  0.00  0.00     0.008 A 
ATOM     11  C   UNL d   1      29.478 -14.067   3.976  0.00  0.00     0.007 A 
ATOM     12  C   UNL d   1      28.138 -13.697   4.133  0.00  0.00    -0.062 A 
ATOM     13  C   UNL d   1      27.471 -13.641   5.473  0.00  0.00     0.048 C 
ATOM     14  C   UNL d   1      27.402 -13.357   3.003  0.00  0.00     0.007 A 
ATOM     15  C   UNL d   1      27.995 -13.380   1.745  0.00  0.00     0.008 A 
ENDBRANCH   8   9
ENDBRANCH   7   8
ENDBRANCH   5   7
ENDBRANCH   1   2
BRANCH   1  16
ATOM     16  C   UNL d   1      23.336 -17.121  -1.571  0.00  0.00     0.186 C 
BRANCH  16  17
ATOM     17  C   UNL d   1      22.229 -18.057  -1.020  0.00  0.00     0.247 C 
ATOM     18  O   UNL d   1      22.490 -19.016  -0.283  0.00  0.00    -0.271 OA
ATOM     19  N   UNL d   1      20.909 -17.760  -1.402  0.00  0.00    -0.247 N 
ATOM     20  H   UNL d   1      20.669 -16.980  -2.002  0.00  0.00     0.192 HD
BRANCH  19  21
ATOM     21  N   UNL d   1      19.905 -18.579  -0.919  0.00  0.00    -0.184 NA
ATOM     22  C   UNL d   1      19.988 -19.093   0.271  0.00  0.00     0.150 C 
BRANCH  22  23
ATOM     23  C   UNL d   1      18.911 -19.990   0.806  0.00  0.00    -0.014 A 
ATOM     24  C   UNL d   1      18.593 -21.197   0.165  0.00  0.00     0.013 A 
ATOM     25  C   UNL d   1      17.570 -22.019   0.671  0.00  0.00     0.004 A 
ATOM     26  C   UNL d   1      16.860 -21.645   1.815  0.00  0.00     0.036 A 
ATOM     27  C   UNL d   1      17.188 -20.450   2.450  0.00  0.00     0.066 A 
ATOM     28  C   UNL d   1      18.200 -19.627   1.955  0.00  0.00     0.049 A 
BRANCH  27  29
ATOM     29  O   UNL d   1      16.532 -20.038   3.574  0.00  0.00    -0.361 OA
ATOM     30  H   UNL d   1      15.641 -19.733   3.340  0.00  0.00     0.217 HD
ENDBRANCH  27  29
ENDBRANCH  22  23
ENDBRANCH  19  21
ENDBRANCH  16  17
ENDBRANCH   1  16
TORSDOF 9
ENDMDL
MODEL 2
REMARK VINA RESULT:   -20.852      3.222      4.895
REMARK INTER + INTRA:         -24.056
REMARK INTER:                 -23.537
REMARK INTRA:                  -0.519
REMARK CONF_INDEPENDENT:        2.685
REMARK UNBOUND:                -0.519
REMARK  9 active torsions:
REMARK  status: ('A' for Active; 'I' for Inactive)
REMARK    1  A    between atoms: C_5  and  C_6 
REMARK    2  A    between atoms: C_6  and  S_7 
REMARK    3  A    between atoms: S_7  and  C_8 
REMARK    4  A    between atoms: C_11  and  S_12 
REMARK    5  A    between atoms: S_12  and  C_13 
REMARK    6  A    between atoms: C_13  and  C_14 
REMARK       I    between atoms: C_14  and  N_16 
REMARK    7  A    between atoms: N_16  and  N_17 
REMARK    8  A    between atoms: C_18  and  C_19 
REMARK    9  A    between atoms: C_23  and  O_24 
ROOT
ATOM      1  S   UNL d   1      24.635 -16.851  -0.296  0.00  0.00    -0.092 SA
ENDROOT
BRANCH   1   2
ATOM      2  C   UNL d   1      25.969 -15.978  -1.021  0.00  0.00     0.159 A 
ATOM      3  N   UNL d   1      25.735 -15.060  -1.945  0.00  0.00    -0.134 NA
ATOM      4  N   UNL d   1      26.893 -14.447  -2.416  0.00  0.00    -0.134 NA
ATOM      5  C   UNL d   1      27.956 -14.933  -1.824  0.00  0.00     0.159 A 
ATOM      6  S   UNL d   1      27.626 -16.170  -0.667  0.00  0.00    -0.033 SA
BRANCH   5   7
ATOM      7  S   UNL d   1      29.587 -14.440  -2.113  0.00  0.00    -0.097 SA
BRANCH   7   8
ATOM      8  C   UNL d   1      30.669 -15.907  -2.013  0.00  0.00     0.120 C 
BRANCH   8   9
ATOM      9  C   UNL d   1      30.716 -16.690  -3.333  0.00  0.00    -0.049 A 
ATOM     10  C   UNL d   1      31.437 -17.893  -3.428  0.00  0.00     0.008 A 
ATOM     11  C   UNL d   1      31.466 -18.626  -4.629  0.00  0.00     0.007 A 
ATOM     12  C   UNL d   1      30.778 -18.174  -5.760  0.00  0.00    -0.062 A 
ATOM     13  C   UNL d   1      30.766 -18.936  -7.050  0.00  0.00     0.048 C 
ATOM     14  C   UNL d   1      30.071 -16.980  -5.681  0.00  0.00     0.007 A 
ATOM     15  C   UNL d   1      30.046 -16.256  -4.492  0.00  0.00     0.008 A 
ENDBRANCH   8   9
ENDBRANCH   7   8
ENDBRANCH   5   7
ENDBRANCH   1   2
BRANCH   1  16
ATOM     16  C   UNL d   1      23.320 -17.085  -1.562  0.00  0.00     0.186 C 
BRANCH  16  17
ATOM     17  C   UNL d   1      22.224 -18.037  -1.013  0.00  0.00     0.247 C 
ATOM     18  O   UNL d   1      22.499 -19.004  -0.293  0.00  0.00    -0.271 OA
ATOM     19  N   UNL d   1      20.899 -17.743  -1.378  0.00  0.00    -0.247 N 
ATOM     20  H   UNL d   1      20.647 -16.956  -1.963  0.00  0.00     0.192 HD
BRANCH  19  21
ATOM     21  N   UNL d   1      19.905 -18.575  -0.895  0.00  0.00    -0.184 NA
ATOM     22  C   UNL d   1      19.991 -19.083   0.297  0.00  0.00     0.150 C 
BRANCH  22  23
ATOM     23  C   UNL d   1      18.925 -19.994   0.831  0.00  0.00    -0.014 A 
ATOM     24  C   UNL d   1      18.664 -21.232   0.224  0.00  0.00     0.013 A 
ATOM     25  C   UNL d   1      17.651 -22.068   0.728  0.00  0.00     0.004 A 
ATOM     26  C   UNL d   1      16.895 -21.676   1.836  0.00  0.00     0.036 A 
ATOM     27  C   UNL d   1      17.166 -20.451   2.437  0.00  0.00     0.066 A 
ATOM     28  C   UNL d   1      18.168 -19.614   1.945  0.00  0.00     0.049 A 
BRANCH  27  29
ATOM     29  O   UNL d   1      16.463 -20.021   3.526  0.00  0.00    -0.361 OA
ATOM     30  H   UNL d   1      16.320 -19.063   3.466  0.00  0.00     0.217 HD
ENDBRANCH  27  29
ENDBRANCH  22  23
ENDBRANCH  19  21
ENDBRANCH  16  17
ENDBRANCH   1  16
TORSDOF 9
ENDMDL
MODEL 3
REMARK VINA RESULT:   -20.708      2.920      5.030
REMARK INTER + INTRA:         -23.778
REMARK INTER:                 -23.393
REMARK INTRA:                  -0.385
REMARK CONF_INDEPENDENT:        2.685
REMARK UNBOUND:                -0.385
REMARK  9 active torsions:
REMARK  status: ('A' for Active; 'I' for Inactive)
REMARK    1  A    between atoms: C_5  and  C_6 
REMARK    2  A    between atoms: C_6  and  S_7 
REMARK    3  A    between atoms: S_7  and  C_8 
REMARK    4  A    between atoms: C_11  and  S_12 
REMARK    5  A    between atoms: S_12  and  C_13 
REMARK    6  A    between atoms: C_13  and  C_14 
REMARK       I    between atoms: C_14  and  N_16 
REMARK    7  A    between atoms: N_16  and  N_17 
REMARK    8  A    between atoms: C_18  and  C_19 
REMARK    9  A    between atoms: C_23  and  O_24 
ROOT
ATOM      1  S   UNL d   1      24.899 -17.442  -0.522  0.00  0.00    -0.092 SA
ENDROOT
BRANCH   1   2
ATOM      2  C   UNL d   1      25.952 -16.065  -0.772  0.00  0.00     0.159 A 
ATOM      3  N   UNL d   1      26.352 -15.342   0.261  0.00  0.00    -0.134 NA
ATOM      4  N   UNL d   1      27.191 -14.291  -0.096  0.00  0.00    -0.134 NA
ATOM      5  C   UNL d   1      27.388 -14.265  -1.391  0.00  0.00     0.159 A 
ATOM      6  S   UNL d   1      26.562 -15.505  -2.263  0.00  0.00    -0.033 SA
BRANCH   5   7
ATOM      7  S   UNL d   1      28.371 -13.126  -2.242  0.00  0.00    -0.097 SA
BRANCH   7   8
ATOM      8  C   UNL d   1      27.844 -13.086  -3.989  0.00  0.00     0.120 C 
BRANCH   8   9
ATOM      9  C   UNL d   1      28.629 -14.076  -4.860  0.00  0.00    -0.049 A 
ATOM     10  C   UNL d   1      29.087 -13.703  -6.136  0.00  0.00     0.008 A 
ATOM     11  C   UNL d   1      29.825 -14.600  -6.930  0.00  0.00     0.007 A 
ATOM     12  C   UNL d   1      30.122 -15.887  -6.470  0.00  0.00    -0.062 A 
ATOM     13  C   UNL d   1      30.923 -16.864  -7.275  0.00  0.00     0.048 C 
ATOM     14  C   UNL d   1      29.664 -16.270  -5.214  0.00  0.00     0.007 A 
ATOM     15  C   UNL d   1      28.933 -15.382  -4.431  0.00  0.00     0.008 A 
ENDBRANCH   8   9
ENDBRANCH   7   8
ENDBRANCH   5   7
ENDBRANCH   1   2
BRANCH   1  16
ATOM     16  C   UNL d   1      23.378 -17.219  -1.533  0.00  0.00     0.186 C 
BRANCH  16  17
ATOM     17  C   UNL d   1      22.242 -18.118  -0.978  0.00  0.00     0.247 C 
ATOM     18  O   UNL d   1      22.470 -19.070  -0.223  0.00  0.00    -0.271 OA
ATOM     19  N   UNL d   1      20.934 -17.795  -1.381  0.00  0.00    -0.247 N 
ATOM     20  H   UNL d   1      20.720 -17.020  -1.996  0.00  0.00     0.192 HD
BRANCH  19  21
ATOM     21  N   UNL d   1      19.904 -18.581  -0.895  0.00  0.00    -0.184 NA
ATOM     22  C   UNL d   1      19.989 -19.126   0.280  0.00  0.00     0.150 C 
BRANCH  22  23
ATOM     23  C   UNL d   1      18.885 -19.988   0.817  0.00  0.00    -0.014 A 
ATOM     24  C   UNL d   1      18.511 -21.173   0.165  0.00  0.00     0.013 A 
ATOM     25  C   UNL d   1      17.463 -21.961   0.673  0.00  0.00     0.004 A 
ATOM     26  C   UNL d   1      16.783 -21.575   1.831  0.00  0.00     0.036 A 
ATOM     27  C   UNL d   1      17.165 -20.403   2.477  0.00  0.00     0.066 A 
ATOM     28  C   UNL d   1      18.203 -19.613   1.981  0.00  0.00     0.049 A 
BRANCH  27  29
ATOM     29  O   UNL d   1      16.540 -19.982   3.616  0.00  0.00    -0.361 OA
ATOM     30  H   UNL d   1      16.759 -19.051   3.784  0.00  0.00     0.217 HD
ENDBRANCH  27  29
ENDBRANCH  22  23
ENDBRANCH  19  21
ENDBRANCH  16  17
ENDBRANCH   1  16
TORSDOF 9
ENDMDL
