MODEL 1
REMARK VINA RESULT:    -6.827      0.000      0.000
REMARK INTER + INTRA:          -9.377
REMARK INTER:                  -8.021
REMARK INTRA:                  -1.356
REMARK CONF_INDEPENDENT:        1.193
REMARK UNBOUND:                -1.356
REMARK  4 active torsions:
REMARK  status: ('A' for Active; 'I' for Inactive)
REMARK    1  A    between atoms: C_2  and  C_4 
REMARK    2  A    between atoms: C_4  and  C_5 
REMARK       I    between atoms: C_5  and  N_7 
REMARK    3  A    between atoms: N_7  and  N_8 
REMARK       I    between atoms: N_8  and  C_9 
REMARK    4  A    between atoms: C_9  and  C_11 
ROOT
ATOM      1  C   UNL d   1      20.732 -18.957  -0.646  0.00  0.00     0.236 C 
ATOM      2  O   UNL d   1      20.285 -17.980  -1.252  0.00  0.00    -0.272 OA
ATOM      3  N   UNL d   1      22.040 -18.968  -0.204  0.00  0.00    -0.268 N 
ATOM      4  H   UNL d   1      22.505 -19.764   0.230  0.00  0.00     0.190 HD
ENDROOT
BRANCH   3   5
ATOM      5  N   UNL d   1      22.835 -17.816  -0.444  0.00  0.00    -0.267 N 
ATOM      6  C   UNL d   1      24.203 -17.887  -0.264  0.00  0.00     0.239 C 
ATOM      7  O   UNL d   1      24.748 -18.945   0.059  0.00  0.00    -0.271 OA
ATOM      8  H   UNL d   1      22.329 -16.976  -0.727  0.00  0.00     0.190 HD
BRANCH   6   9
ATOM      9  C   UNL d   1      24.988 -16.587  -0.518  0.00  0.00     0.071 C 
ATOM     10  C   UNL d   1      26.488 -16.769  -0.294  0.00  0.00     0.019 C 
ATOM     11  C   UNL d   1      24.764 -16.093  -1.954  0.00  0.00     0.019 C 
ENDBRANCH   6   9
ENDBRANCH   3   5
BRANCH   1  12
ATOM     12  C   UNL d   1      19.903 -20.210  -0.332  0.00  0.00     0.108 C 
BRANCH  12  13
ATOM     13  C   UNL d   1      19.042 -20.056   0.945  0.00  0.00    -0.014 C 
ATOM     14  C   UNL d   1      18.030 -21.200   1.098  0.00  0.00     0.010 C 
ATOM     15  C   UNL d   1      19.908 -20.012   2.208  0.00  0.00     0.010 C 
ENDBRANCH  12  13
ENDBRANCH   1  12
TORSDOF 4
ENDMDL
MODEL 2
REMARK VINA RESULT:    -6.763      0.967      6.280
REMARK INTER + INTRA:          -9.305
REMARK INTER:                  -7.956
REMARK INTRA:                  -1.349
REMARK CONF_INDEPENDENT:        1.193
REMARK UNBOUND:                -1.349
REMARK  4 active torsions:
REMARK  status: ('A' for Active; 'I' for Inactive)
REMARK    1  A    between atoms: C_2  and  C_4 
REMARK    2  A    between atoms: C_4  and  C_5 
REMARK       I    between atoms: C_5  and  N_7 
REMARK    3  A    between atoms: N_7  and  N_8 
REMARK       I    between atoms: N_8  and  C_9 
REMARK    4  A    between atoms: C_9  and  C_11 
ROOT
ATOM      1  C   UNL d   1      23.527 -18.272  -0.624  0.00  0.00     0.236 C 
ATOM      2  O   UNL d   1      23.980 -18.575   0.482  0.00  0.00    -0.272 OA
ATOM      3  N   UNL d   1      22.275 -18.706  -1.011  0.00  0.00    -0.268 N 
ATOM      4  H   UNL d   1      21.866 -18.567  -1.934  0.00  0.00     0.190 HD
ENDROOT
BRANCH   3   5
ATOM      5  N   UNL d   1      21.522 -19.479  -0.087  0.00  0.00    -0.267 N 
ATOM      6  C   UNL d   1      20.265 -19.925  -0.444  0.00  0.00     0.239 C 
ATOM      7  O   UNL d   1      19.804 -19.700  -1.566  0.00  0.00    -0.271 OA
ATOM      8  H   UNL d   1      21.964 -19.648   0.817  0.00  0.00     0.190 HD
BRANCH   6   9
ATOM      9  C   UNL d   1      19.505 -20.733   0.624  0.00  0.00     0.071 C 
ATOM     10  C   UNL d   1      19.573 -20.074   2.000  0.00  0.00     0.019 C 
ATOM     11  C   UNL d   1      18.030 -20.896   0.231  0.00  0.00     0.019 C 
ENDBRANCH   6   9
ENDBRANCH   3   5
BRANCH   1  12
ATOM     12  C   UNL d   1      24.287 -17.410  -1.643  0.00  0.00     0.108 C 
BRANCH  12  13
ATOM     13  C   UNL d   1      25.238 -16.388  -0.974  0.00  0.00    -0.014 C 
ATOM     14  C   UNL d   1      26.556 -17.034  -0.530  0.00  0.00     0.010 C 
ATOM     15  C   UNL d   1      25.568 -15.226  -1.916  0.00  0.00     0.010 C 
ENDBRANCH  12  13
ENDBRANCH   1  12
TORSDOF 4
ENDMDL
MODEL 3
REMARK VINA RESULT:    -6.063      0.831      6.199
REMARK INTER + INTRA:          -8.236
REMARK INTER:                  -7.256
REMARK INTRA:                  -0.980
REMARK CONF_INDEPENDENT:        1.193
REMARK UNBOUND:                -0.980
REMARK  4 active torsions:
REMARK  status: ('A' for Active; 'I' for Inactive)
REMARK    1  A    between atoms: C_2  and  C_4 
REMARK    2  A    between atoms: C_4  and  C_5 
REMARK       I    between atoms: C_5  and  N_7 
REMARK    3  A    between atoms: N_7  and  N_8 
REMARK       I    between atoms: N_8  and  C_9 
REMARK    4  A    between atoms: C_9  and  C_11 
ROOT
ATOM      1  C   UNL d   1      24.369 -17.896  -0.808  0.00  0.00     0.236 C 
ATOM      2  O   UNL d   1      24.932 -18.887  -0.337  0.00  0.00    -0.272 OA
ATOM      3  N   UNL d   1      22.995 -17.780  -0.754  0.00  0.00    -0.268 N 
ATOM      4  H   UNL d   1      22.452 -17.036  -1.190  0.00  0.00     0.190 HD
ENDROOT
BRANCH   3   5
ATOM      5  N   UNL d   1      22.262 -18.816  -0.118  0.00  0.00    -0.267 N 
ATOM      6  C   UNL d   1      20.901 -18.915  -0.334  0.00  0.00     0.239 C 
ATOM      7  O   UNL d   1      20.322 -18.146  -1.105  0.00  0.00    -0.271 OA
ATOM      8  H   UNL d   1      22.799 -19.433   0.493  0.00  0.00     0.190 HD
BRANCH   6   9
ATOM      9  C   UNL d   1      20.177 -20.049   0.415  0.00  0.00     0.071 C 
ATOM     10  C   UNL d   1      20.035 -19.754   1.906  0.00  0.00     0.019 C 
ATOM     11  C   UNL d   1      18.779 -20.280  -0.175  0.00  0.00     0.019 C 
ENDBRANCH   6   9
ENDBRANCH   3   5
BRANCH   1  12
ATOM     12  C   UNL d   1      25.119 -16.734  -1.474  0.00  0.00     0.108 C 
BRANCH  12  13
ATOM     13  C   UNL d   1      26.360 -16.279  -0.667  0.00  0.00    -0.014 C 
ATOM     14  C   UNL d   1      26.249 -14.814  -0.221  0.00  0.00     0.010 C 
ATOM     15  C   UNL d   1      26.570 -17.143   0.579  0.00  0.00     0.010 C 
ENDBRANCH  12  13
ENDBRANCH   1  12
TORSDOF 4
ENDMDL
MODEL 4
REMARK VINA RESULT:    -4.911      1.688      2.464
REMARK INTER + INTRA:          -7.361
REMARK INTER:                  -6.104
REMARK INTRA:                  -1.257
REMARK CONF_INDEPENDENT:        1.193
REMARK UNBOUND:                -1.257
REMARK  4 active torsions:
REMARK  status: ('A' for Active; 'I' for Inactive)
REMARK    1  A    between atoms: C_2  and  C_4 
REMARK    2  A    between atoms: C_4  and  C_5 
REMARK       I    between atoms: C_5  and  N_7 
REMARK    3  A    between atoms: N_7  and  N_8 
REMARK       I    between atoms: N_8  and  C_9 
REMARK    4  A    between atoms: C_9  and  C_11 
ROOT
ATOM      1  C   UNL d   1      22.346 -18.599  -0.595  0.00  0.00     0.236 C 
ATOM      2  O   UNL d   1      23.124 -19.443  -0.146  0.00  0.00    -0.272 OA
ATOM      3  N   UNL d   1      22.791 -17.328  -0.902  0.00  0.00    -0.268 N 
ATOM      4  H   UNL d   1      22.197 -16.555  -1.199  0.00  0.00     0.190 HD
ENDROOT
BRANCH   3   5
ATOM      5  N   UNL d   1      24.168 -17.040  -0.712  0.00  0.00    -0.267 N 
ATOM      6  C   UNL d   1      24.737 -15.976  -1.384  0.00  0.00     0.239 C 
ATOM      7  O   UNL d   1      24.058 -15.246  -2.110  0.00  0.00    -0.271 OA
ATOM      8  H   UNL d   1      24.673 -17.667  -0.085  0.00  0.00     0.190 HD
BRANCH   6   9
ATOM      9  C   UNL d   1      26.240 -15.748  -1.144  0.00  0.00     0.071 C 
ATOM     10  C   UNL d   1      26.499 -14.802   0.027  0.00  0.00     0.019 C 
ATOM     11  C   UNL d   1      26.951 -17.080  -0.863  0.00  0.00     0.019 C 
ENDBRANCH   6   9
ENDBRANCH   3   5
BRANCH   1  12
ATOM     12  C   UNL d   1      20.857 -18.871  -0.851  0.00  0.00     0.108 C 
BRANCH  12  13
ATOM     13  C   UNL d   1      20.244 -19.861   0.170  0.00  0.00    -0.014 C 
ATOM     14  C   UNL d   1      20.318 -19.325   1.606  0.00  0.00     0.010 C 
ATOM     15  C   UNL d   1      18.777 -20.165  -0.151  0.00  0.00     0.010 C 
ENDBRANCH  12  13
ENDBRANCH   1  12
TORSDOF 4
ENDMDL
MODEL 5
REMARK VINA RESULT:    -4.909      3.154      4.493
REMARK INTER + INTRA:          -7.476
REMARK INTER:                  -6.102
REMARK INTRA:                  -1.374
REMARK CONF_INDEPENDENT:        1.193
REMARK UNBOUND:                -1.374
REMARK  4 active torsions:
REMARK  status: ('A' for Active; 'I' for Inactive)
REMARK    1  A    between atoms: C_2  and  C_4 
REMARK    2  A    between atoms: C_4  and  C_5 
REMARK       I    between atoms: C_5  and  N_7 
REMARK    3  A    between atoms: N_7  and  N_8 
REMARK       I    between atoms: N_8  and  C_9 
REMARK    4  A    between atoms: C_9  and  C_11 
ROOT
ATOM      1  C   UNL d   1      23.998 -16.559  -0.845  0.00  0.00     0.236 C 
ATOM      2  O   UNL d   1      24.936 -16.936  -0.139  0.00  0.00    -0.272 OA
ATOM      3  N   UNL d   1      24.236 -15.865  -2.014  0.00  0.00    -0.268 N 
ATOM      4  H   UNL d   1      23.518 -15.452  -2.607  0.00  0.00     0.190 HD
ENDROOT
BRANCH   3   5
ATOM      5  N   UNL d   1      25.586 -15.629  -2.386  0.00  0.00    -0.267 N 
ATOM      6  C   UNL d   1      25.858 -14.974  -3.572  0.00  0.00     0.239 C 
ATOM      7  O   UNL d   1      24.946 -14.553  -4.289  0.00  0.00    -0.271 OA
ATOM      8  H   UNL d   1      26.295 -15.984  -1.744  0.00  0.00     0.190 HD
BRANCH   6   9
ATOM      9  C   UNL d   1      27.346 -14.782  -3.914  0.00  0.00     0.071 C 
ATOM     10  C   UNL d   1      28.225 -15.857  -3.279  0.00  0.00     0.019 C 
ATOM     11  C   UNL d   1      27.559 -14.811  -5.434  0.00  0.00     0.019 C 
ENDBRANCH   6   9
ENDBRANCH   3   5
BRANCH   1  12
ATOM     12  C   UNL d   1      22.524 -16.820  -0.504  0.00  0.00     0.108 C 
BRANCH  12  13
ATOM     13  C   UNL d   1      22.211 -18.323  -0.305  0.00  0.00    -0.014 C 
ATOM     14  C   UNL d   1      20.846 -18.709  -0.893  0.00  0.00     0.010 C 
ATOM     15  C   UNL d   1      23.278 -19.212  -0.953  0.00  0.00     0.010 C 
ENDBRANCH  12  13
ENDBRANCH   1  12
TORSDOF 4
ENDMDL
MODEL 6
REMARK VINA RESULT:    -4.874      3.332      5.126
REMARK INTER + INTRA:          -7.477
REMARK INTER:                  -6.067
REMARK INTRA:                  -1.410
REMARK CONF_INDEPENDENT:        1.193
REMARK UNBOUND:                -1.410
REMARK  4 active torsions:
REMARK  status: ('A' for Active; 'I' for Inactive)
REMARK    1  A    between atoms: C_2  and  C_4 
REMARK    2  A    between atoms: C_4  and  C_5 
REMARK       I    between atoms: C_5  and  N_7 
REMARK    3  A    between atoms: N_7  and  N_8 
REMARK       I    between atoms: N_8  and  C_9 
REMARK    4  A    between atoms: C_9  and  C_11 
ROOT
ATOM      1  C   UNL d   1      25.606 -17.416  -0.927  0.00  0.00     0.236 C 
ATOM      2  O   UNL d   1      26.782 -17.501  -0.568  0.00  0.00    -0.272 OA
ATOM      3  N   UNL d   1      25.252 -16.593  -1.977  0.00  0.00    -0.268 N 
ATOM      4  H   UNL d   1      24.298 -16.406  -2.280  0.00  0.00     0.190 HD
ENDROOT
BRANCH   3   5
ATOM      5  N   UNL d   1      26.285 -15.878  -2.641  0.00  0.00    -0.267 N 
ATOM      6  C   UNL d   1      25.957 -15.002  -3.657  0.00  0.00     0.239 C 
ATOM      7  O   UNL d   1      24.780 -14.797  -3.966  0.00  0.00    -0.271 OA
ATOM      8  H   UNL d   1      27.236 -16.075  -2.329  0.00  0.00     0.190 HD
BRANCH   6   9
ATOM      9  C   UNL d   1      27.136 -14.288  -4.343  0.00  0.00     0.071 C 
ATOM     10  C   UNL d   1      27.847 -15.190  -5.350  0.00  0.00     0.019 C 
ATOM     11  C   UNL d   1      26.655 -13.025  -5.070  0.00  0.00     0.019 C 
ENDBRANCH   6   9
ENDBRANCH   3   5
BRANCH   1  12
ATOM     12  C   UNL d   1      24.460 -18.194  -0.265  0.00  0.00     0.108 C 
BRANCH  12  13
ATOM     13  C   UNL d   1      23.087 -17.916  -0.922  0.00  0.00    -0.014 C 
ATOM     14  C   UNL d   1      22.044 -18.977  -0.547  0.00  0.00     0.010 C 
ATOM     15  C   UNL d   1      22.537 -16.543  -0.521  0.00  0.00     0.010 C 
ENDBRANCH  12  13
ENDBRANCH   1  12
TORSDOF 4
ENDMDL
MODEL 7
REMARK VINA RESULT:    -4.832     12.112     14.632
REMARK INTER + INTRA:          -7.429
REMARK INTER:                  -6.025
REMARK INTRA:                  -1.404
REMARK CONF_INDEPENDENT:        1.193
REMARK UNBOUND:                -1.404
REMARK  4 active torsions:
REMARK  status: ('A' for Active; 'I' for Inactive)
REMARK    1  A    between atoms: C_2  and  C_4 
REMARK    2  A    between atoms: C_4  and  C_5 
REMARK       I    between atoms: C_5  and  N_7 
REMARK    3  A    between atoms: N_7  and  N_8 
REMARK       I    between atoms: N_8  and  C_9 
REMARK    4  A    between atoms: C_9  and  C_11 
ROOT
ATOM      1  C   UNL d   1      34.775 -23.038   7.092  0.00  0.00     0.236 C 
ATOM      2  O   UNL d   1      35.558 -22.975   6.141  0.00  0.00    -0.272 OA
ATOM      3  N   UNL d   1      33.491 -22.545   6.974  0.00  0.00    -0.268 N 
ATOM      4  H   UNL d   1      32.814 -22.486   7.734  0.00  0.00     0.190 HD
ENDROOT
BRANCH   3   5
ATOM      5  N   UNL d   1      33.097 -21.998   5.724  0.00  0.00    -0.267 N 
ATOM      6  C   UNL d   1      31.882 -21.350   5.620  0.00  0.00     0.239 C 
ATOM      7  O   UNL d   1      31.155 -21.200   6.605  0.00  0.00    -0.271 OA
ATOM      8  H   UNL d   1      33.749 -22.137   4.951  0.00  0.00     0.190 HD
BRANCH   6   9
ATOM      9  C   UNL d   1      31.520 -20.810   4.225  0.00  0.00     0.071 C 
ATOM     10  C   UNL d   1      32.688 -20.915   3.246  0.00  0.00     0.019 C 
ATOM     11  C   UNL d   1      30.323 -21.575   3.643  0.00  0.00     0.019 C 
ENDBRANCH   6   9
ENDBRANCH   3   5
BRANCH   1  12
ATOM     12  C   UNL d   1      35.141 -23.650   8.451  0.00  0.00     0.108 C 
BRANCH  12  13
ATOM     13  C   UNL d   1      36.007 -22.707   9.321  0.00  0.00    -0.014 C 
ATOM     14  C   UNL d   1      35.491 -21.262   9.291  0.00  0.00     0.010 C 
ATOM     15  C   UNL d   1      36.050 -23.169  10.781  0.00  0.00     0.010 C 
ENDBRANCH  12  13
ENDBRANCH   1  12
TORSDOF 4
ENDMDL
MODEL 8
REMARK VINA RESULT:    -4.622      3.683      7.589
REMARK INTER + INTRA:          -7.240
REMARK INTER:                  -5.815
REMARK INTRA:                  -1.425
REMARK CONF_INDEPENDENT:        1.193
REMARK UNBOUND:                -1.425
REMARK  4 active torsions:
REMARK  status: ('A' for Active; 'I' for Inactive)
REMARK    1  A    between atoms: C_2  and  C_4 
REMARK    2  A    between atoms: C_4  and  C_5 
REMARK       I    between atoms: C_5  and  N_7 
REMARK    3  A    between atoms: N_7  and  N_8 
REMARK       I    between atoms: N_8  and  C_9 
REMARK    4  A    between atoms: C_9  and  C_11 
ROOT
ATOM      1  C   UNL d   1      25.554 -14.576  -3.788  0.00  0.00     0.236 C 
ATOM      2  O   UNL d   1      24.401 -14.186  -3.986  0.00  0.00    -0.272 OA
ATOM      3  N   UNL d   1      25.813 -15.534  -2.827  0.00  0.00    -0.268 N 
ATOM      4  H   UNL d   1      26.741 -15.848  -2.549  0.00  0.00     0.190 HD
ENDROOT
BRANCH   3   5
ATOM      5  N   UNL d   1      24.713 -16.070  -2.106  0.00  0.00    -0.267 N 
ATOM      6  C   UNL d   1      24.931 -17.082  -1.192  0.00  0.00     0.239 C 
ATOM      7  O   UNL d   1      26.069 -17.496  -0.961  0.00  0.00    -0.271 OA
ATOM      8  H   UNL d   1      23.799 -15.673  -2.326  0.00  0.00     0.190 HD
BRANCH   6   9
ATOM      9  C   UNL d   1      23.683 -17.625  -0.473  0.00  0.00     0.071 C 
ATOM     10  C   UNL d   1      22.516 -16.640  -0.523  0.00  0.00     0.019 C 
ATOM     11  C   UNL d   1      23.231 -18.951  -1.099  0.00  0.00     0.019 C 
ENDBRANCH   6   9
ENDBRANCH   3   5
BRANCH   1  12
ATOM     12  C   UNL d   1      26.770 -14.054  -4.565  0.00  0.00     0.108 C 
BRANCH  12  13
ATOM     13  C   UNL d   1      27.673 -15.191  -5.102  0.00  0.00    -0.014 C 
ATOM     14  C   UNL d   1      28.431 -14.774  -6.369  0.00  0.00     0.010 C 
ATOM     15  C   UNL d   1      28.700 -15.637  -4.056  0.00  0.00     0.010 C 
ENDBRANCH  12  13
ENDBRANCH   1  12
TORSDOF 4
ENDMDL
MODEL 9
REMARK VINA RESULT:    -4.533      3.475      5.242
REMARK INTER + INTRA:          -7.174
REMARK INTER:                  -5.726
REMARK INTRA:                  -1.447
REMARK CONF_INDEPENDENT:        1.193
REMARK UNBOUND:                -1.447
REMARK  4 active torsions:
REMARK  status: ('A' for Active; 'I' for Inactive)
REMARK    1  A    between atoms: C_2  and  C_4 
REMARK    2  A    between atoms: C_4  and  C_5 
REMARK       I    between atoms: C_5  and  N_7 
REMARK    3  A    between atoms: N_7  and  N_8 
REMARK       I    between atoms: N_8  and  C_9 
REMARK    4  A    between atoms: C_9  and  C_11 
ROOT
ATOM      1  C   UNL d   1      25.399 -16.571  -0.805  0.00  0.00     0.236 C 
ATOM      2  O   UNL d   1      26.043 -15.918   0.018  0.00  0.00    -0.272 OA
ATOM      3  N   UNL d   1      25.238 -16.107  -2.096  0.00  0.00    -0.268 N 
ATOM      4  H   UNL d   1      24.656 -16.545  -2.808  0.00  0.00     0.190 HD
ENDROOT
BRANCH   3   5
ATOM      5  N   UNL d   1      25.861 -14.879  -2.445  0.00  0.00    -0.267 N 
ATOM      6  C   UNL d   1      25.591 -14.308  -3.674  0.00  0.00     0.239 C 
ATOM      7  O   UNL d   1      24.785 -14.825  -4.452  0.00  0.00    -0.271 OA
ATOM      8  H   UNL d   1      26.502 -14.491  -1.753  0.00  0.00     0.190 HD
BRANCH   6   9
ATOM      9  C   UNL d   1      26.326 -12.992  -3.985  0.00  0.00     0.071 C 
ATOM     10  C   UNL d   1      26.527 -12.137  -2.736  0.00  0.00     0.019 C 
ATOM     11  C   UNL d   1      27.698 -13.275  -4.611  0.00  0.00     0.019 C 
ENDBRANCH   6   9
ENDBRANCH   3   5
BRANCH   1  12
ATOM     12  C   UNL d   1      24.738 -17.920  -0.486  0.00  0.00     0.108 C 
BRANCH  12  13
ATOM     13  C   UNL d   1      23.240 -17.961  -0.876  0.00  0.00    -0.014 C 
ATOM     14  C   UNL d   1      22.499 -19.115  -0.189  0.00  0.00     0.010 C 
ATOM     15  C   UNL d   1      22.528 -16.653  -0.515  0.00  0.00     0.010 C 
ENDBRANCH  12  13
ENDBRANCH   1  12
TORSDOF 4
ENDMDL
