MODEL 1
REMARK VINA RESULT:    -8.006      0.000      0.000
REMARK INTER + INTRA:         -11.517
REMARK INTER:                 -10.094
REMARK INTRA:                  -1.422
REMARK CONF_INDEPENDENT:        2.088
REMARK UNBOUND:                -1.422
REMARK  7 active torsions:
REMARK  status: ('A' for Active; 'I' for Inactive)
REMARK    1  A    between atoms: C_2  and  C_3 
REMARK       I    between atoms: C_2  and  N_18 
REMARK    2  A    between atoms: C_3  and  C_4 
REMARK    3  A    between atoms: C_4  and  N_5 
REMARK    4  A    between atoms: N_18  and  N_19 
REMARK    5  A    between atoms: C_20  and  C_21 
REMARK    6  A    between atoms: C_24  and  O_25 
REMARK    7  A    between atoms: C_27  and  O_28 
ROOT
ATOM      1  O   UNL d   1      30.102 -16.703  -0.760  0.00  0.00    -0.272 OA
ATOM      2  C   UNL d   1      28.885 -16.498  -0.700  0.00  0.00     0.239 C 
ATOM      3  N   UNL d   1      28.082 -17.283   0.103  0.00  0.00    -0.247 N 
ATOM      4  H   UNL d   1      28.545 -18.005   0.647  0.00  0.00     0.192 HD
ENDROOT
BRANCH   2   5
ATOM      5  C   UNL d   1      28.207 -15.391  -1.479  0.00  0.00     0.125 C 
BRANCH   5   6
ATOM      6  C   UNL d   1      27.457 -15.938  -2.692  0.00  0.00     0.139 C 
BRANCH   6   7
ATOM      7  N   UNL d   1      27.779 -15.210  -3.915  0.00  0.00    -0.345 N 
ATOM      8  C   UNL d   1      28.767 -15.569  -4.810  0.00  0.00     0.046 A 
ATOM      9  C   UNL d   1      29.669 -16.644  -4.802  0.00  0.00     0.030 A 
ATOM     10  C   UNL d   1      28.757 -14.621  -5.837  0.00  0.00     0.003 A 
ATOM     11  C   UNL d   1      30.574 -16.759  -5.859  0.00  0.00     0.002 A 
ATOM     12  C   UNL d   1      30.584 -15.829  -6.893  0.00  0.00     0.001 A 
ATOM     13  C   UNL d   1      29.685 -14.757  -6.893  0.00  0.00     0.014 A 
ATOM     14  C   UNL d   1      27.728 -13.671  -5.537  0.00  0.00     0.003 A 
ATOM     15  C   UNL d   1      27.249 -12.509  -6.181  0.00  0.00     0.014 A 
ATOM     16  C   UNL d   1      27.131 -14.065  -4.336  0.00  0.00     0.046 A 
ATOM     17  C   UNL d   1      26.200 -11.781  -5.609  0.00  0.00     0.001 A 
ATOM     18  C   UNL d   1      25.623 -12.194  -4.413  0.00  0.00     0.002 A 
ATOM     19  C   UNL d   1      26.076 -13.341  -3.758  0.00  0.00     0.030 A 
ENDBRANCH   6   7
ENDBRANCH   5   6
ENDBRANCH   2   5
BRANCH   3  20
ATOM     20  N   UNL d   1      26.728 -17.125   0.169  0.00  0.00    -0.184 NA
ATOM     21  C   UNL d   1      26.007 -17.948  -0.535  0.00  0.00     0.152 C 
BRANCH  21  22
ATOM     22  C   UNL d   1      24.525 -17.878  -0.483  0.00  0.00     0.016 A 
ATOM     23  C   UNL d   1      23.795 -19.031  -0.164  0.00  0.00     0.018 A 
ATOM     24  C   UNL d   1      22.405 -19.049  -0.316  0.00  0.00     0.037 A 
ATOM     25  C   UNL d   1      21.743 -17.886  -0.697  0.00  0.00     0.068 A 
ATOM     26  C   UNL d   1      22.445 -16.698  -0.891  0.00  0.00     0.074 A 
ATOM     27  C   UNL d   1      23.842 -16.706  -0.824  0.00  0.00     0.080 A 
BRANCH  25  28
ATOM     28  O   UNL d   1      20.394 -17.873  -0.903  0.00  0.00    -0.361 OA
ATOM     29  H   UNL d   1      20.190 -17.269  -1.638  0.00  0.00     0.217 HD
ENDBRANCH  25  28
BRANCH  27  30
ATOM     30  O   UNL d   1      24.547 -15.577  -1.139  0.00  0.00    -0.360 OA
ATOM     31  H   UNL d   1      25.419 -15.618  -0.705  0.00  0.00     0.217 HD
ENDBRANCH  27  30
ENDBRANCH  21  22
ENDBRANCH   3  20
TORSDOF 7
ENDMDL
MODEL 2
REMARK VINA RESULT:    -7.746      0.438      3.028
REMARK INTER + INTRA:         -11.234
REMARK INTER:                  -9.834
REMARK INTRA:                  -1.400
REMARK CONF_INDEPENDENT:        2.088
REMARK UNBOUND:                -1.400
REMARK  7 active torsions:
REMARK  status: ('A' for Active; 'I' for Inactive)
REMARK    1  A    between atoms: C_2  and  C_3 
REMARK       I    between atoms: C_2  and  N_18 
REMARK    2  A    between atoms: C_3  and  C_4 
REMARK    3  A    between atoms: C_4  and  N_5 
REMARK    4  A    between atoms: N_18  and  N_19 
REMARK    5  A    between atoms: C_20  and  C_21 
REMARK    6  A    between atoms: C_24  and  O_25 
REMARK    7  A    between atoms: C_27  and  O_28 
ROOT
ATOM      1  O   UNL d   1      30.254 -17.032  -0.407  0.00  0.00    -0.272 OA
ATOM      2  C   UNL d   1      29.058 -16.746  -0.532  0.00  0.00     0.239 C 
ATOM      3  N   UNL d   1      28.100 -17.405   0.212  0.00  0.00    -0.247 N 
ATOM      4  H   UNL d   1      28.431 -18.104   0.869  0.00  0.00     0.192 HD
ENDROOT
BRANCH   2   5
ATOM      5  C   UNL d   1      28.575 -15.671  -1.482  0.00  0.00     0.125 C 
BRANCH   5   6
ATOM      6  C   UNL d   1      27.860 -16.272  -2.691  0.00  0.00     0.139 C 
BRANCH   6   7
ATOM      7  N   UNL d   1      27.902 -15.390  -3.852  0.00  0.00    -0.345 N 
ATOM      8  C   UNL d   1      27.073 -14.303  -4.049  0.00  0.00     0.046 A 
ATOM      9  C   UNL d   1      26.039 -13.781  -3.257  0.00  0.00     0.030 A 
ATOM     10  C   UNL d   1      27.431 -13.729  -5.272  0.00  0.00     0.003 A 
ATOM     11  C   UNL d   1      25.359 -12.650  -3.715  0.00  0.00     0.002 A 
ATOM     12  C   UNL d   1      25.696 -12.060  -4.928  0.00  0.00     0.001 A 
ATOM     13  C   UNL d   1      26.725 -12.588  -5.716  0.00  0.00     0.014 A 
ATOM     14  C   UNL d   1      28.507 -14.503  -5.814  0.00  0.00     0.003 A 
ATOM     15  C   UNL d   1      29.272 -14.421  -6.998  0.00  0.00     0.014 A 
ATOM     16  C   UNL d   1      28.784 -15.528  -4.907  0.00  0.00     0.046 A 
ATOM     17  C   UNL d   1      30.280 -15.361  -7.239  0.00  0.00     0.001 A 
ATOM     18  C   UNL d   1      30.536 -16.373  -6.319  0.00  0.00     0.002 A 
ATOM     19  C   UNL d   1      29.796 -16.474  -5.140  0.00  0.00     0.030 A 
ENDBRANCH   6   7
ENDBRANCH   5   6
ENDBRANCH   2   5
BRANCH   3  20
ATOM     20  N   UNL d   1      26.765 -17.155   0.077  0.00  0.00    -0.184 NA
ATOM     21  C   UNL d   1      26.008 -18.167  -0.232  0.00  0.00     0.152 C 
BRANCH  21  22
ATOM     22  C   UNL d   1      24.538 -17.995  -0.350  0.00  0.00     0.016 A 
ATOM     23  C   UNL d   1      23.705 -19.115  -0.232  0.00  0.00     0.018 A 
ATOM     24  C   UNL d   1      22.346 -19.019  -0.549  0.00  0.00     0.037 A 
ATOM     25  C   UNL d   1      21.809 -17.782  -0.892  0.00  0.00     0.068 A 
ATOM     26  C   UNL d   1      22.602 -16.636  -0.886  0.00  0.00     0.074 A 
ATOM     27  C   UNL d   1      23.976 -16.750  -0.655  0.00  0.00     0.080 A 
BRANCH  25  28
ATOM     28  O   UNL d   1      20.500 -17.653  -1.255  0.00  0.00    -0.361 OA
ATOM     29  H   UNL d   1      20.282 -16.708  -1.334  0.00  0.00     0.217 HD
ENDBRANCH  25  28
BRANCH  27  30
ATOM     30  O   UNL d   1      24.783 -15.652  -0.773  0.00  0.00    -0.360 OA
ATOM     31  H   UNL d   1      25.679 -15.944  -1.021  0.00  0.00     0.217 HD
ENDBRANCH  27  30
ENDBRANCH  21  22
ENDBRANCH   3  20
TORSDOF 7
ENDMDL
MODEL 3
REMARK VINA RESULT:    -7.637      3.219      7.672
REMARK INTER + INTRA:         -11.126
REMARK INTER:                  -9.725
REMARK INTRA:                  -1.400
REMARK CONF_INDEPENDENT:        2.088
REMARK UNBOUND:                -1.400
REMARK  7 active torsions:
REMARK  status: ('A' for Active; 'I' for Inactive)
REMARK    1  A    between atoms: C_2  and  C_3 
REMARK       I    between atoms: C_2  and  N_18 
REMARK    2  A    between atoms: C_3  and  C_4 
REMARK    3  A    between atoms: C_4  and  N_5 
REMARK    4  A    between atoms: N_18  and  N_19 
REMARK    5  A    between atoms: C_20  and  C_21 
REMARK    6  A    between atoms: C_24  and  O_25 
REMARK    7  A    between atoms: C_27  and  O_28 
ROOT
ATOM      1  O   UNL d   1      26.903 -15.575  -5.383  0.00  0.00    -0.272 OA
ATOM      2  C   UNL d   1      26.395 -14.541  -4.938  0.00  0.00     0.239 C 
ATOM      3  N   UNL d   1      26.947 -13.309  -5.228  0.00  0.00    -0.247 N 
ATOM      4  H   UNL d   1      27.762 -13.305  -5.835  0.00  0.00     0.192 HD
ENDROOT
BRANCH   2   5
ATOM      5  C   UNL d   1      25.154 -14.552  -4.070  0.00  0.00     0.125 C 
BRANCH   5   6
ATOM      6  C   UNL d   1      25.485 -14.220  -2.616  0.00  0.00     0.139 C 
BRANCH   6   7
ATOM      7  N   UNL d   1      25.767 -15.415  -1.827  0.00  0.00    -0.345 N 
ATOM      8  C   UNL d   1      24.807 -16.228  -1.256  0.00  0.00     0.046 A 
ATOM      9  C   UNL d   1      23.407 -16.145  -1.267  0.00  0.00     0.030 A 
ATOM     10  C   UNL d   1      25.483 -17.255  -0.589  0.00  0.00     0.003 A 
ATOM     11  C   UNL d   1      22.679 -17.127  -0.591  0.00  0.00     0.002 A 
ATOM     12  C   UNL d   1      23.326 -18.158   0.080  0.00  0.00     0.001 A 
ATOM     13  C   UNL d   1      24.724 -18.233   0.091  0.00  0.00     0.014 A 
ATOM     14  C   UNL d   1      26.886 -17.039  -0.775  0.00  0.00     0.003 A 
ATOM     15  C   UNL d   1      28.047 -17.723  -0.348  0.00  0.00     0.014 A 
ATOM     16  C   UNL d   1      27.035 -15.890  -1.554  0.00  0.00     0.046 A 
ATOM     17  C   UNL d   1      29.309 -17.238  -0.708  0.00  0.00     0.001 A 
ATOM     18  C   UNL d   1      29.429 -16.090  -1.485  0.00  0.00     0.002 A 
ATOM     19  C   UNL d   1      28.298 -15.399  -1.922  0.00  0.00     0.030 A 
ENDBRANCH   6   7
ENDBRANCH   5   6
ENDBRANCH   2   5
BRANCH   3  20
ATOM     20  N   UNL d   1      26.449 -12.143  -4.724  0.00  0.00    -0.184 NA
ATOM     21  C   UNL d   1      27.238 -11.454  -3.953  0.00  0.00     0.152 C 
BRANCH  21  22
ATOM     22  C   UNL d   1      26.794 -10.148  -3.402  0.00  0.00     0.016 A 
ATOM     23  C   UNL d   1      27.324  -9.702  -2.184  0.00  0.00     0.018 A 
ATOM     24  C   UNL d   1      26.772  -8.591  -1.541  0.00  0.00     0.037 A 
ATOM     25  C   UNL d   1      25.754  -7.875  -2.164  0.00  0.00     0.068 A 
ATOM     26  C   UNL d   1      25.308  -8.231  -3.434  0.00  0.00     0.074 A 
ATOM     27  C   UNL d   1      25.800  -9.395  -4.035  0.00  0.00     0.080 A 
BRANCH  25  28
ATOM     28  O   UNL d   1      25.155  -6.813  -1.549  0.00  0.00    -0.361 OA
ATOM     29  H   UNL d   1      24.347  -6.577  -2.037  0.00  0.00     0.217 HD
ENDBRANCH  25  28
BRANCH  27  30
ATOM     30  O   UNL d   1      25.277  -9.824  -5.224  0.00  0.00    -0.360 OA
ATOM     31  H   UNL d   1      24.928 -10.726  -5.108  0.00  0.00     0.217 HD
ENDBRANCH  27  30
ENDBRANCH  21  22
ENDBRANCH   3  20
TORSDOF 7
ENDMDL
MODEL 4
REMARK VINA RESULT:    -7.573      3.236      7.262
REMARK INTER + INTRA:         -11.105
REMARK INTER:                  -9.661
REMARK INTRA:                  -1.444
REMARK CONF_INDEPENDENT:        2.088
REMARK UNBOUND:                -1.444
REMARK  7 active torsions:
REMARK  status: ('A' for Active; 'I' for Inactive)
REMARK    1  A    between atoms: C_2  and  C_3 
REMARK       I    between atoms: C_2  and  N_18 
REMARK    2  A    between atoms: C_3  and  C_4 
REMARK    3  A    between atoms: C_4  and  N_5 
REMARK    4  A    between atoms: N_18  and  N_19 
REMARK    5  A    between atoms: C_20  and  C_21 
REMARK    6  A    between atoms: C_24  and  O_25 
REMARK    7  A    between atoms: C_27  and  O_28 
ROOT
ATOM      1  O   UNL d   1      27.035 -15.575  -5.266  0.00  0.00    -0.272 OA
ATOM      2  C   UNL d   1      26.505 -14.527  -4.882  0.00  0.00     0.239 C 
ATOM      3  N   UNL d   1      27.136 -13.314  -5.072  0.00  0.00    -0.247 N 
ATOM      4  H   UNL d   1      28.029 -13.333  -5.556  0.00  0.00     0.192 HD
ENDROOT
BRANCH   2   5
ATOM      5  C   UNL d   1      25.154 -14.502  -4.200  0.00  0.00     0.125 C 
BRANCH   5   6
ATOM      6  C   UNL d   1      25.284 -14.177  -2.713  0.00  0.00     0.139 C 
BRANCH   6   7
ATOM      7  N   UNL d   1      25.679 -15.341  -1.926  0.00  0.00    -0.345 N 
ATOM      8  C   UNL d   1      26.984 -15.729  -1.692  0.00  0.00     0.046 A 
ATOM      9  C   UNL d   1      28.199 -15.165  -2.109  0.00  0.00     0.030 A 
ATOM     10  C   UNL d   1      26.934 -16.883  -0.904  0.00  0.00     0.003 A 
ATOM     11  C   UNL d   1      29.387 -15.784  -1.712  0.00  0.00     0.002 A 
ATOM     12  C   UNL d   1      29.366 -16.932  -0.928  0.00  0.00     0.001 A 
ATOM     13  C   UNL d   1      28.150 -17.492  -0.520  0.00  0.00     0.014 A 
ATOM     14  C   UNL d   1      25.555 -17.184  -0.665  0.00  0.00     0.003 A 
ATOM     15  C   UNL d   1      24.884 -18.205   0.043  0.00  0.00     0.014 A 
ATOM     16  C   UNL d   1      24.794 -16.205  -1.309  0.00  0.00     0.046 A 
ATOM     17  C   UNL d   1      23.485 -18.217   0.084  0.00  0.00     0.001 A 
ATOM     18  C   UNL d   1      22.751 -17.230  -0.567  0.00  0.00     0.002 A 
ATOM     19  C   UNL d   1      23.391 -16.208  -1.271  0.00  0.00     0.030 A 
ENDBRANCH   6   7
ENDBRANCH   5   6
ENDBRANCH   2   5
BRANCH   3  20
ATOM     20  N   UNL d   1      26.612 -12.135  -4.626  0.00  0.00    -0.184 NA
ATOM     21  C   UNL d   1      27.358 -11.426  -3.831  0.00  0.00     0.152 C 
BRANCH  21  22
ATOM     22  C   UNL d   1      26.887 -10.107  -3.339  0.00  0.00     0.016 A 
ATOM     23  C   UNL d   1      27.393  -9.603  -2.134  0.00  0.00     0.018 A 
ATOM     24  C   UNL d   1      26.815  -8.476  -1.543  0.00  0.00     0.037 A 
ATOM     25  C   UNL d   1      25.794  -7.803  -2.207  0.00  0.00     0.068 A 
ATOM     26  C   UNL d   1      25.369  -8.218  -3.467  0.00  0.00     0.074 A 
ATOM     27  C   UNL d   1      25.888  -9.396  -4.014  0.00  0.00     0.080 A 
BRANCH  25  28
ATOM     28  O   UNL d   1      25.170  -6.728  -1.643  0.00  0.00    -0.361 OA
ATOM     29  H   UNL d   1      24.292  -6.620  -2.049  0.00  0.00     0.217 HD
ENDBRANCH  25  28
BRANCH  27  30
ATOM     30  O   UNL d   1      25.387  -9.882  -5.191  0.00  0.00    -0.360 OA
ATOM     31  H   UNL d   1      25.001 -10.762  -5.030  0.00  0.00     0.217 HD
ENDBRANCH  27  30
ENDBRANCH  21  22
ENDBRANCH   3  20
TORSDOF 7
ENDMDL
MODEL 5
REMARK VINA RESULT:    -7.248      2.538      7.533
REMARK INTER + INTRA:         -11.083
REMARK INTER:                  -9.336
REMARK INTRA:                  -1.746
REMARK CONF_INDEPENDENT:        2.088
REMARK UNBOUND:                -1.746
REMARK  7 active torsions:
REMARK  status: ('A' for Active; 'I' for Inactive)
REMARK    1  A    between atoms: C_2  and  C_3 
REMARK       I    between atoms: C_2  and  N_18 
REMARK    2  A    between atoms: C_3  and  C_4 
REMARK    3  A    between atoms: C_4  and  N_5 
REMARK    4  A    between atoms: N_18  and  N_19 
REMARK    5  A    between atoms: C_20  and  C_21 
REMARK    6  A    between atoms: C_24  and  O_25 
REMARK    7  A    between atoms: C_27  and  O_28 
ROOT
ATOM      1  O   UNL d   1      26.376 -12.764  -5.152  0.00  0.00    -0.272 OA
ATOM      2  C   UNL d   1      26.759 -13.938  -5.115  0.00  0.00     0.239 C 
ATOM      3  N   UNL d   1      27.999 -14.286  -5.613  0.00  0.00    -0.247 N 
ATOM      4  H   UNL d   1      28.573 -13.532  -5.979  0.00  0.00     0.192 HD
ENDROOT
BRANCH   2   5
ATOM      5  C   UNL d   1      25.916 -15.050  -4.528  0.00  0.00     0.125 C 
BRANCH   5   6
ATOM      6  C   UNL d   1      25.411 -14.692  -3.131  0.00  0.00     0.139 C 
BRANCH   6   7
ATOM      7  N   UNL d   1      25.865 -15.641  -2.120  0.00  0.00    -0.345 N 
ATOM      8  C   UNL d   1      25.044 -16.504  -1.422  0.00  0.00     0.046 A 
ATOM      9  C   UNL d   1      23.655 -16.699  -1.478  0.00  0.00     0.030 A 
ATOM     10  C   UNL d   1      25.859 -17.237  -0.555  0.00  0.00     0.003 A 
ATOM     11  C   UNL d   1      23.086 -17.660  -0.640  0.00  0.00     0.002 A 
ATOM     12  C   UNL d   1      23.875 -18.403   0.232  0.00  0.00     0.001 A 
ATOM     13  C   UNL d   1      25.259 -18.201   0.286  0.00  0.00     0.014 A 
ATOM     14  C   UNL d   1      27.206 -16.791  -0.749  0.00  0.00     0.003 A 
ATOM     15  C   UNL d   1      28.447 -17.144  -0.174  0.00  0.00     0.014 A 
ATOM     16  C   UNL d   1      27.182 -15.800  -1.733  0.00  0.00     0.046 A 
ATOM     17  C   UNL d   1      29.615 -16.499  -0.595  0.00  0.00     0.001 A 
ATOM     18  C   UNL d   1      29.564 -15.515  -1.577  0.00  0.00     0.002 A 
ATOM     19  C   UNL d   1      28.351 -15.150  -2.163  0.00  0.00     0.030 A 
ENDBRANCH   6   7
ENDBRANCH   5   6
ENDBRANCH   2   5
BRANCH   3  20
ATOM     20  N   UNL d   1      28.447 -15.575  -5.635  0.00  0.00    -0.184 NA
ATOM     21  C   UNL d   1      29.653 -15.768  -6.084  0.00  0.00     0.152 C 
BRANCH  21  22
ATOM     22  C   UNL d   1      30.238 -17.133  -6.096  0.00  0.00     0.016 A 
ATOM     23  C   UNL d   1      30.781 -17.635  -7.286  0.00  0.00     0.018 A 
ATOM     24  C   UNL d   1      31.141 -18.982  -7.383  0.00  0.00     0.037 A 
ATOM     25  C   UNL d   1      31.043 -19.799  -6.260  0.00  0.00     0.068 A 
ATOM     26  C   UNL d   1      30.628 -19.279  -5.036  0.00  0.00     0.074 A 
ATOM     27  C   UNL d   1      30.185 -17.954  -4.965  0.00  0.00     0.080 A 
BRANCH  25  28
ATOM     28  O   UNL d   1      31.338 -21.129  -6.323  0.00  0.00    -0.361 OA
ATOM     29  H   UNL d   1      30.617 -21.594  -6.783  0.00  0.00     0.217 HD
ENDBRANCH  25  28
BRANCH  27  30
ATOM     30  O   UNL d   1      29.655 -17.472  -3.800  0.00  0.00    -0.360 OA
ATOM     31  H   UNL d   1      28.870 -16.933  -4.009  0.00  0.00     0.217 HD
ENDBRANCH  27  30
ENDBRANCH  21  22
ENDBRANCH   3  20
TORSDOF 7
ENDMDL
MODEL 6
REMARK VINA RESULT:    -7.243      2.541      7.233
REMARK INTER + INTRA:         -11.067
REMARK INTER:                  -9.331
REMARK INTRA:                  -1.736
REMARK CONF_INDEPENDENT:        2.088
REMARK UNBOUND:                -1.736
REMARK  7 active torsions:
REMARK  status: ('A' for Active; 'I' for Inactive)
REMARK    1  A    between atoms: C_2  and  C_3 
REMARK       I    between atoms: C_2  and  N_18 
REMARK    2  A    between atoms: C_3  and  C_4 
REMARK    3  A    between atoms: C_4  and  N_5 
REMARK    4  A    between atoms: N_18  and  N_19 
REMARK    5  A    between atoms: C_20  and  C_21 
REMARK    6  A    between atoms: C_24  and  O_25 
REMARK    7  A    between atoms: C_27  and  O_28 
ROOT
ATOM      1  O   UNL d   1      26.420 -12.750  -5.115  0.00  0.00    -0.272 OA
ATOM      2  C   UNL d   1      26.795 -13.927  -5.091  0.00  0.00     0.239 C 
ATOM      3  N   UNL d   1      28.028 -14.279  -5.602  0.00  0.00    -0.247 N 
ATOM      4  H   UNL d   1      28.603 -13.527  -5.967  0.00  0.00     0.192 HD
ENDROOT
BRANCH   2   5
ATOM      5  C   UNL d   1      25.949 -15.037  -4.504  0.00  0.00     0.125 C 
BRANCH   5   6
ATOM      6  C   UNL d   1      25.446 -14.680  -3.106  0.00  0.00     0.139 C 
BRANCH   6   7
ATOM      7  N   UNL d   1      25.889 -15.637  -2.098  0.00  0.00    -0.345 N 
ATOM      8  C   UNL d   1      27.201 -15.822  -1.708  0.00  0.00     0.046 A 
ATOM      9  C   UNL d   1      28.383 -15.198  -2.133  0.00  0.00     0.030 A 
ATOM     10  C   UNL d   1      27.202 -16.822  -0.731  0.00  0.00     0.003 A 
ATOM     11  C   UNL d   1      29.589 -15.595  -1.551  0.00  0.00     0.002 A 
ATOM     12  C   UNL d   1      29.618 -16.587  -0.577  0.00  0.00     0.001 A 
ATOM     13  C   UNL d   1      28.435 -17.209  -0.160  0.00  0.00     0.014 A 
ATOM     14  C   UNL d   1      25.846 -17.240  -0.539  0.00  0.00     0.003 A 
ATOM     15  C   UNL d   1      25.224 -18.197   0.292  0.00  0.00     0.014 A 
ATOM     16  C   UNL d   1      25.048 -16.482  -1.400  0.00  0.00     0.046 A 
ATOM     17  C   UNL d   1      23.837 -18.368   0.237  0.00  0.00     0.001 A 
ATOM     18  C   UNL d   1      23.065 -17.601  -0.630  0.00  0.00     0.002 A 
ATOM     19  C   UNL d   1      23.654 -16.645  -1.459  0.00  0.00     0.030 A 
ENDBRANCH   6   7
ENDBRANCH   5   6
ENDBRANCH   2   5
BRANCH   3  20
ATOM     20  N   UNL d   1      28.467 -15.571  -5.637  0.00  0.00    -0.184 NA
ATOM     21  C   UNL d   1      29.662 -15.770  -6.112  0.00  0.00     0.152 C 
BRANCH  21  22
ATOM     22  C   UNL d   1      30.238 -17.139  -6.141  0.00  0.00     0.016 A 
ATOM     23  C   UNL d   1      30.780 -17.629  -7.336  0.00  0.00     0.018 A 
ATOM     24  C   UNL d   1      31.131 -18.978  -7.449  0.00  0.00     0.037 A 
ATOM     25  C   UNL d   1      31.026 -19.808  -6.337  0.00  0.00     0.068 A 
ATOM     26  C   UNL d   1      30.611 -19.301  -5.108  0.00  0.00     0.074 A 
ATOM     27  C   UNL d   1      30.176 -17.974  -5.021  0.00  0.00     0.080 A 
BRANCH  25  28
ATOM     28  O   UNL d   1      31.312 -21.140  -6.418  0.00  0.00    -0.361 OA
ATOM     29  H   UNL d   1      30.584 -21.595  -6.875  0.00  0.00     0.217 HD
ENDBRANCH  25  28
BRANCH  27  30
ATOM     30  O   UNL d   1      29.647 -17.504  -3.851  0.00  0.00    -0.360 OA
ATOM     31  H   UNL d   1      28.852 -16.977  -4.053  0.00  0.00     0.217 HD
ENDBRANCH  27  30
ENDBRANCH  21  22
ENDBRANCH   3  20
TORSDOF 7
ENDMDL
MODEL 7
REMARK VINA RESULT:    -7.046      2.108      7.770
REMARK INTER + INTRA:         -11.000
REMARK INTER:                  -9.134
REMARK INTRA:                  -1.866
REMARK CONF_INDEPENDENT:        2.088
REMARK UNBOUND:                -1.866
REMARK  7 active torsions:
REMARK  status: ('A' for Active; 'I' for Inactive)
REMARK    1  A    between atoms: C_2  and  C_3 
REMARK       I    between atoms: C_2  and  N_18 
REMARK    2  A    between atoms: C_3  and  C_4 
REMARK    3  A    between atoms: C_4  and  N_5 
REMARK    4  A    between atoms: N_18  and  N_19 
REMARK    5  A    between atoms: C_20  and  C_21 
REMARK    6  A    between atoms: C_24  and  O_25 
REMARK    7  A    between atoms: C_27  and  O_28 
ROOT
ATOM      1  O   UNL d   1      24.141 -14.075  -4.268  0.00  0.00    -0.272 OA
ATOM      2  C   UNL d   1      25.345 -14.347  -4.307  0.00  0.00     0.239 C 
ATOM      3  N   UNL d   1      25.837 -15.210  -5.266  0.00  0.00    -0.247 N 
ATOM      4  H   UNL d   1      25.168 -15.578  -5.936  0.00  0.00     0.192 HD
ENDROOT
BRANCH   2   5
ATOM      5  C   UNL d   1      26.344 -13.759  -3.333  0.00  0.00     0.125 C 
BRANCH   5   6
ATOM      6  C   UNL d   1      25.905 -13.972  -1.885  0.00  0.00     0.139 C 
BRANCH   6   7
ATOM      7  N   UNL d   1      26.240 -15.305  -1.396  0.00  0.00    -0.345 N 
ATOM      8  C   UNL d   1      25.319 -16.260  -1.014  0.00  0.00     0.046 A 
ATOM      9  C   UNL d   1      23.917 -16.225  -0.985  0.00  0.00     0.030 A 
ATOM     10  C   UNL d   1      26.040 -17.388  -0.611  0.00  0.00     0.003 A 
ATOM     11  C   UNL d   1      23.234 -17.361  -0.543  0.00  0.00     0.002 A 
ATOM     12  C   UNL d   1      23.927 -18.496  -0.137  0.00  0.00     0.001 A 
ATOM     13  C   UNL d   1      25.326 -18.522  -0.163  0.00  0.00     0.014 A 
ATOM     14  C   UNL d   1      27.432 -17.088  -0.762  0.00  0.00     0.003 A 
ATOM     15  C   UNL d   1      28.621 -17.810  -0.520  0.00  0.00     0.014 A 
ATOM     16  C   UNL d   1      27.529 -15.785  -1.258  0.00  0.00     0.046 A 
ATOM     17  C   UNL d   1      29.860 -17.212  -0.777  0.00  0.00     0.001 A 
ATOM     18  C   UNL d   1      29.929 -15.913  -1.271  0.00  0.00     0.002 A 
ATOM     19  C   UNL d   1      28.768 -15.180  -1.521  0.00  0.00     0.030 A 
ENDBRANCH   6   7
ENDBRANCH   5   6
ENDBRANCH   2   5
BRANCH   3  20
ATOM     20  N   UNL d   1      27.151 -15.575  -5.323  0.00  0.00    -0.184 NA
ATOM     21  C   UNL d   1      27.944 -14.803  -6.006  0.00  0.00     0.152 C 
BRANCH  21  22
ATOM     22  C   UNL d   1      29.397 -15.099  -6.079  0.00  0.00     0.016 A 
ATOM     23  C   UNL d   1      30.181 -14.455  -7.045  0.00  0.00     0.018 A 
ATOM     24  C   UNL d   1      31.496 -14.869  -7.276  0.00  0.00     0.037 A 
ATOM     25  C   UNL d   1      32.052 -15.861  -6.474  0.00  0.00     0.068 A 
ATOM     26  C   UNL d   1      31.325 -16.418  -5.424  0.00  0.00     0.074 A 
ATOM     27  C   UNL d   1      29.982 -16.065  -5.253  0.00  0.00     0.080 A 
BRANCH  25  28
ATOM     28  O   UNL d   1      33.315 -16.328  -6.696  0.00  0.00    -0.361 OA
ATOM     29  H   UNL d   1      33.956 -15.630  -6.476  0.00  0.00     0.217 HD
ENDBRANCH  25  28
BRANCH  27  30
ATOM     30  O   UNL d   1      29.224 -16.699  -4.308  0.00  0.00    -0.360 OA
ATOM     31  H   UNL d   1      28.594 -16.060  -3.927  0.00  0.00     0.217 HD
ENDBRANCH  27  30
ENDBRANCH  21  22
ENDBRANCH   3  20
TORSDOF 7
ENDMDL
MODEL 8
REMARK VINA RESULT:    -6.359      2.980      6.577
REMARK INTER + INTRA:         -11.062
REMARK INTER:                  -8.447
REMARK INTRA:                  -2.615
REMARK CONF_INDEPENDENT:        2.088
REMARK UNBOUND:                -2.615
REMARK  7 active torsions:
REMARK  status: ('A' for Active; 'I' for Inactive)
REMARK    1  A    between atoms: C_2  and  C_3 
REMARK       I    between atoms: C_2  and  N_18 
REMARK    2  A    between atoms: C_3  and  C_4 
REMARK    3  A    between atoms: C_4  and  N_5 
REMARK    4  A    between atoms: N_18  and  N_19 
REMARK    5  A    between atoms: C_20  and  C_21 
REMARK    6  A    between atoms: C_24  and  O_25 
REMARK    7  A    between atoms: C_27  and  O_28 
ROOT
ATOM      1  O   UNL d   1      25.537 -12.000  -4.614  0.00  0.00    -0.272 OA
ATOM      2  C   UNL d   1      25.878 -12.637  -3.612  0.00  0.00     0.239 C 
ATOM      3  N   UNL d   1      26.981 -12.249  -2.878  0.00  0.00    -0.247 N 
ATOM      4  H   UNL d   1      27.468 -11.414  -3.191  0.00  0.00     0.192 HD
ENDROOT
BRANCH   2   5
ATOM      5  C   UNL d   1      25.122 -13.855  -3.126  0.00  0.00     0.125 C 
BRANCH   5   6
ATOM      6  C   UNL d   1      25.779 -15.150  -3.603  0.00  0.00     0.139 C 
BRANCH   6   7
ATOM      7  N   UNL d   1      26.236 -15.978  -2.492  0.00  0.00    -0.345 N 
ATOM      8  C   UNL d   1      25.407 -16.652  -1.616  0.00  0.00     0.046 A 
ATOM      9  C   UNL d   1      24.007 -16.725  -1.548  0.00  0.00     0.030 A 
ATOM     10  C   UNL d   1      26.229 -17.321  -0.705  0.00  0.00     0.003 A 
ATOM     11  C   UNL d   1      23.433 -17.498  -0.536  0.00  0.00     0.002 A 
ATOM     12  C   UNL d   1      24.228 -18.174   0.383  0.00  0.00     0.001 A 
ATOM     13  C   UNL d   1      25.623 -18.093   0.312  0.00  0.00     0.014 A 
ATOM     14  C   UNL d   1      27.587 -17.033  -1.056  0.00  0.00     0.003 A 
ATOM     15  C   UNL d   1      28.838 -17.410  -0.519  0.00  0.00     0.014 A 
ATOM     16  C   UNL d   1      27.563 -16.199  -2.176  0.00  0.00     0.046 A 
ATOM     17  C   UNL d   1      30.016 -16.942  -1.112  0.00  0.00     0.001 A 
ATOM     18  C   UNL d   1      29.965 -16.111  -2.226  0.00  0.00     0.002 A 
ATOM     19  C   UNL d   1      28.741 -15.727  -2.778  0.00  0.00     0.030 A 
ENDBRANCH   6   7
ENDBRANCH   5   6
ENDBRANCH   2   5
BRANCH   3  20
ATOM     20  N   UNL d   1      27.423 -12.946  -1.791  0.00  0.00    -0.184 NA
ATOM     21  C   UNL d   1      27.047 -12.510  -0.624  0.00  0.00     0.152 C 
BRANCH  21  22
ATOM     22  C   UNL d   1      27.441 -13.236   0.610  0.00  0.00     0.016 A 
ATOM     23  C   UNL d   1      26.591 -13.208   1.723  0.00  0.00     0.018 A 
ATOM     24  C   UNL d   1      27.030 -13.699   2.956  0.00  0.00     0.037 A 
ATOM     25  C   UNL d   1      28.282 -14.299   3.048  0.00  0.00     0.068 A 
ATOM     26  C   UNL d   1      29.084 -14.450   1.919  0.00  0.00     0.074 A 
ATOM     27  C   UNL d   1      28.680 -13.880   0.707  0.00  0.00     0.080 A 
BRANCH  25  28
ATOM     28  O   UNL d   1      28.767 -14.746   4.243  0.00  0.00    -0.361 OA
ATOM     29  H   UNL d   1      29.079 -15.662   4.137  0.00  0.00     0.217 HD
ENDBRANCH  25  28
BRANCH  27  30
ATOM     30  O   UNL d   1      29.516 -13.910  -0.375  0.00  0.00    -0.360 OA
ATOM     31  H   UNL d   1      29.024 -13.617  -1.163  0.00  0.00     0.217 HD
ENDBRANCH  27  30
ENDBRANCH  21  22
ENDBRANCH   3  20
TORSDOF 7
ENDMDL
MODEL 9
REMARK VINA RESULT:    -6.123      2.830      6.305
REMARK INTER + INTRA:         -11.098
REMARK INTER:                  -8.211
REMARK INTRA:                  -2.887
REMARK CONF_INDEPENDENT:        2.088
REMARK UNBOUND:                -2.887
REMARK  7 active torsions:
REMARK  status: ('A' for Active; 'I' for Inactive)
REMARK    1  A    between atoms: C_2  and  C_3 
REMARK       I    between atoms: C_2  and  N_18 
REMARK    2  A    between atoms: C_3  and  C_4 
REMARK    3  A    between atoms: C_4  and  N_5 
REMARK    4  A    between atoms: N_18  and  N_19 
REMARK    5  A    between atoms: C_20  and  C_21 
REMARK    6  A    between atoms: C_24  and  O_25 
REMARK    7  A    between atoms: C_27  and  O_28 
ROOT
ATOM      1  O   UNL d   1      25.557 -12.253  -4.887  0.00  0.00    -0.272 OA
ATOM      2  C   UNL d   1      25.772 -12.812  -3.806  0.00  0.00     0.239 C 
ATOM      3  N   UNL d   1      26.721 -12.312  -2.936  0.00  0.00    -0.247 N 
ATOM      4  H   UNL d   1      27.201 -11.464  -3.221  0.00  0.00     0.192 HD
ENDROOT
BRANCH   2   5
ATOM      5  C   UNL d   1      25.022 -14.052  -3.368  0.00  0.00     0.125 C 
BRANCH   5   6
ATOM      6  C   UNL d   1      25.812 -15.323  -3.674  0.00  0.00     0.139 C 
BRANCH   6   7
ATOM      7  N   UNL d   1      26.262 -15.999  -2.462  0.00  0.00    -0.345 N 
ATOM      8  C   UNL d   1      27.568 -16.028  -2.013  0.00  0.00     0.046 A 
ATOM      9  C   UNL d   1      28.737 -15.465  -2.548  0.00  0.00     0.030 A 
ATOM     10  C   UNL d   1      27.579 -16.773  -0.830  0.00  0.00     0.003 A 
ATOM     11  C   UNL d   1      29.939 -15.660  -1.864  0.00  0.00     0.002 A 
ATOM     12  C   UNL d   1      29.978 -16.397  -0.686  0.00  0.00     0.001 A 
ATOM     13  C   UNL d   1      28.809 -16.959  -0.160  0.00  0.00     0.014 A 
ATOM     14  C   UNL d   1      26.235 -17.196  -0.574  0.00  0.00     0.003 A 
ATOM     15  C   UNL d   1      25.627 -17.962   0.446  0.00  0.00     0.014 A 
ATOM     16  C   UNL d   1      25.434 -16.696  -1.603  0.00  0.00     0.046 A 
ATOM     17  C   UNL d   1      24.250 -18.205   0.403  0.00  0.00     0.001 A 
ATOM     18  C   UNL d   1      23.475 -17.695  -0.634  0.00  0.00     0.002 A 
ATOM     19  C   UNL d   1      24.051 -16.933  -1.651  0.00  0.00     0.030 A 
ENDBRANCH   6   7
ENDBRANCH   5   6
ENDBRANCH   2   5
BRANCH   3  20
ATOM     20  N   UNL d   1      27.025 -12.919  -1.752  0.00  0.00    -0.184 NA
ATOM     21  C   UNL d   1      27.601 -12.183  -0.848  0.00  0.00     0.152 C 
BRANCH  21  22
ATOM     22  C   UNL d   1      27.922 -12.749   0.487  0.00  0.00     0.016 A 
ATOM     23  C   UNL d   1      29.078 -12.322   1.153  0.00  0.00     0.018 A 
ATOM     24  C   UNL d   1      29.515 -12.988   2.302  0.00  0.00     0.037 A 
ATOM     25  C   UNL d   1      28.744 -14.018   2.831  0.00  0.00     0.068 A 
ATOM     26  C   UNL d   1      27.526 -14.366   2.251  0.00  0.00     0.074 A 
ATOM     27  C   UNL d   1      27.136 -13.758   1.054  0.00  0.00     0.080 A 
BRANCH  25  28
ATOM     28  O   UNL d   1      29.159 -14.725   3.922  0.00  0.00    -0.361 OA
ATOM     29  H   UNL d   1      29.536 -15.573   3.628  0.00  0.00     0.217 HD
ENDBRANCH  25  28
BRANCH  27  30
ATOM     30  O   UNL d   1      26.006 -14.182   0.409  0.00  0.00    -0.360 OA
ATOM     31  H   UNL d   1      26.227 -14.375  -0.521  0.00  0.00     0.217 HD
ENDBRANCH  27  30
ENDBRANCH  21  22
ENDBRANCH   3  20
TORSDOF 7
ENDMDL
