MODEL 1
REMARK VINA RESULT:    -8.419      0.000      0.000
REMARK INTER + INTRA:         -10.975
REMARK INTER:                  -9.911
REMARK INTRA:                  -1.064
REMARK CONF_INDEPENDENT:        1.492
REMARK UNBOUND:                -1.064
REMARK  5 active torsions:
REMARK  status: ('A' for Active; 'I' for Inactive)
REMARK       I    between atoms: C_2  and  N_4 
REMARK    1  A    between atoms: N_4  and  C_5 
REMARK    2  A    between atoms: C_7  and  C_8 
REMARK       I    between atoms: C_8  and  N_10 
REMARK    3  A    between atoms: C_11  and  N_10 
REMARK    4  A    between atoms: C_11  and  C_14 
REMARK    5  A    between atoms: C_11  and  C_12 
ROOT
ATOM      1  C   UNL d   1      24.405 -14.167  -3.520  0.00  0.00     0.253 C 
ATOM      2  O   UNL d   1      23.175 -14.075  -3.516  0.00  0.00    -0.268 OA
ATOM      3  N   UNL d   1      25.089 -13.322  -4.409  0.00  0.00    -0.336 N 
ATOM      4  H   UNL d   1      24.454 -12.747  -4.947  0.00  0.00     0.164 HD
ENDROOT
BRANCH   1   5
ATOM      5  C   UNL d   1      25.066 -15.140  -2.543  0.00  0.00     0.034 C 
ATOM      6  C   UNL d   1      24.266 -15.916  -1.717  0.00  0.00     0.047 C 
ATOM      7  C   UNL d   1      24.535 -17.050  -0.937  0.00  0.00     0.041 C 
ATOM      8  C   UNL d   1      25.888 -17.160  -0.677  0.00  0.00    -0.035 C 
ATOM      9  C   UNL d   1      26.818 -16.305  -1.378  0.00  0.00     0.010 C 
ATOM     10  C   UNL d   1      26.359 -18.184   0.303  0.00  0.00     0.050 C 
ATOM     11  C   UNL d   1      26.414 -15.336  -2.344  0.00  0.00     0.017 C 
BRANCH   7  12
ATOM     12  N   UNL d   1      23.466 -17.842  -0.279  0.00  0.00    -0.327 N 
ATOM     13  C   UNL d   1      22.509 -18.712  -0.889  0.00  0.00     0.218 C 
ATOM     14  C   UNL d   1      21.406 -19.286  -0.022  0.00  0.00     0.117 C 
ATOM     15  O   UNL d   1      22.503 -19.191  -2.020  0.00  0.00    -0.274 OA
ATOM     16  H   UNL d   1      23.616 -18.045   0.701  0.00  0.00     0.169 HD
ENDBRANCH   7  12
ENDBRANCH   1   5
BRANCH   3  17
ATOM     17  C   UNL d   1      26.513 -13.058  -4.749  0.00  0.00     0.226 C 
BRANCH  17  18
ATOM     18  C   UNL d   1      26.737 -11.704  -5.405  0.00  0.00    -0.016 A 
ATOM     19  C   UNL d   1      27.471 -11.799  -6.600  0.00  0.00     0.011 A 
ATOM     20  C   UNL d   1      27.771 -10.671  -7.350  0.00  0.00     0.001 A 
ATOM     21  C   UNL d   1      27.371  -9.416  -6.918  0.00  0.00     0.001 A 
ATOM     22  C   UNL d   1      26.653  -9.283  -5.746  0.00  0.00     0.007 A 
ATOM     23  C   UNL d   1      26.318 -10.406  -4.988  0.00  0.00    -0.053 A 
ATOM     24  C   UNL d   1      25.533 -10.045  -3.771  0.00  0.00     0.049 C 
ENDBRANCH  17  18
BRANCH  17  25
ATOM     25  C   UNL d   1      27.162 -14.233  -5.296  0.00  0.00     0.089 C 
ATOM     26  N   UNL d   1      27.331 -15.236  -5.764  0.00  0.00    -0.195 NA
ENDBRANCH  17  25
ENDBRANCH   3  17
TORSDOF 5
ENDMDL
MODEL 2
REMARK VINA RESULT:    -8.118      1.445      2.753
REMARK INTER + INTRA:         -10.759
REMARK INTER:                  -9.610
REMARK INTRA:                  -1.149
REMARK CONF_INDEPENDENT:        1.492
REMARK UNBOUND:                -1.149
REMARK  5 active torsions:
REMARK  status: ('A' for Active; 'I' for Inactive)
REMARK       I    between atoms: C_2  and  N_4 
REMARK    1  A    between atoms: N_4  and  C_5 
REMARK    2  A    between atoms: C_7  and  C_8 
REMARK       I    between atoms: C_8  and  N_10 
REMARK    3  A    between atoms: C_11  and  N_10 
REMARK    4  A    between atoms: C_11  and  C_14 
REMARK    5  A    between atoms: C_11  and  C_12 
ROOT
ATOM      1  C   UNL d   1      24.551 -14.075  -3.596  0.00  0.00     0.253 C 
ATOM      2  O   UNL d   1      23.353 -14.071  -3.890  0.00  0.00    -0.268 OA
ATOM      3  N   UNL d   1      25.344 -13.091  -4.208  0.00  0.00    -0.336 N 
ATOM      4  H   UNL d   1      24.805 -12.506  -4.833  0.00  0.00     0.164 HD
ENDROOT
BRANCH   1   5
ATOM      5  C   UNL d   1      25.048 -15.102  -2.577  0.00  0.00     0.034 C 
ATOM      6  C   UNL d   1      24.125 -15.771  -1.787  0.00  0.00     0.047 C 
ATOM      7  C   UNL d   1      24.225 -16.916  -0.984  0.00  0.00     0.041 C 
ATOM      8  C   UNL d   1      25.543 -17.173  -0.653  0.00  0.00    -0.035 C 
ATOM      9  C   UNL d   1      26.597 -16.437  -1.312  0.00  0.00     0.010 C 
ATOM     10  C   UNL d   1      25.845 -18.229   0.359  0.00  0.00     0.050 C 
ATOM     11  C   UNL d   1      26.354 -15.444  -2.307  0.00  0.00     0.017 C 
BRANCH   7  12
ATOM     12  N   UNL d   1      23.042 -17.575  -0.376  0.00  0.00    -0.327 N 
ATOM     13  C   UNL d   1      22.199 -18.579  -0.947  0.00  0.00     0.218 C 
ATOM     14  C   UNL d   1      20.947 -18.980  -0.190  0.00  0.00     0.117 C 
ATOM     15  O   UNL d   1      22.392 -19.291  -1.929  0.00  0.00    -0.274 OA
ATOM     16  H   UNL d   1      23.007 -17.557   0.635  0.00  0.00     0.169 HD
ENDBRANCH   7  12
ENDBRANCH   1   5
BRANCH   3  17
ATOM     17  C   UNL d   1      26.776 -12.691  -4.158  0.00  0.00     0.226 C 
BRANCH  17  18
ATOM     18  C   UNL d   1      27.654 -13.465  -5.128  0.00  0.00    -0.016 A 
ATOM     19  C   UNL d   1      28.090 -14.693  -4.599  0.00  0.00     0.011 A 
ATOM     20  C   UNL d   1      28.895 -15.549  -5.337  0.00  0.00     0.001 A 
ATOM     21  C   UNL d   1      29.309 -15.193  -6.612  0.00  0.00     0.001 A 
ATOM     22  C   UNL d   1      28.906 -13.994  -7.163  0.00  0.00     0.007 A 
ATOM     23  C   UNL d   1      28.075 -13.129  -6.449  0.00  0.00    -0.053 A 
ATOM     24  C   UNL d   1      27.749 -11.898  -7.227  0.00  0.00     0.049 C 
ENDBRANCH  17  18
BRANCH  17  25
ATOM     25  C   UNL d   1      27.228 -12.479  -2.797  0.00  0.00     0.089 C 
ATOM     26  N   UNL d   1      27.237 -12.354  -1.685  0.00  0.00    -0.195 NA
ENDBRANCH  17  25
ENDBRANCH   3  17
TORSDOF 5
ENDMDL
MODEL 3
REMARK VINA RESULT:    -7.984      2.705      7.969
REMARK INTER + INTRA:         -10.532
REMARK INTER:                  -9.476
REMARK INTRA:                  -1.056
REMARK CONF_INDEPENDENT:        1.492
REMARK UNBOUND:                -1.056
REMARK  5 active torsions:
REMARK  status: ('A' for Active; 'I' for Inactive)
REMARK       I    between atoms: C_2  and  N_4 
REMARK    1  A    between atoms: N_4  and  C_5 
REMARK    2  A    between atoms: C_7  and  C_8 
REMARK       I    between atoms: C_8  and  N_10 
REMARK    3  A    between atoms: C_11  and  N_10 
REMARK    4  A    between atoms: C_11  and  C_14 
REMARK    5  A    between atoms: C_11  and  C_12 
ROOT
ATOM      1  C   UNL d   1      25.566 -14.564  -3.902  0.00  0.00     0.253 C 
ATOM      2  O   UNL d   1      24.740 -14.029  -4.645  0.00  0.00    -0.268 OA
ATOM      3  N   UNL d   1      25.131 -14.862  -2.601  0.00  0.00    -0.336 N 
ATOM      4  H   UNL d   1      24.173 -14.575  -2.447  0.00  0.00     0.164 HD
ENDROOT
BRANCH   1   5
ATOM      5  C   UNL d   1      26.950 -14.892  -4.466  0.00  0.00     0.034 C 
ATOM      6  C   UNL d   1      27.258 -14.508  -5.763  0.00  0.00     0.047 C 
ATOM      7  C   UNL d   1      28.474 -14.419  -6.457  0.00  0.00     0.041 C 
ATOM      8  C   UNL d   1      29.445 -15.195  -5.852  0.00  0.00    -0.035 C 
ATOM      9  C   UNL d   1      29.187 -15.768  -4.551  0.00  0.00     0.010 C 
ATOM     10  C   UNL d   1      30.751 -15.396  -6.547  0.00  0.00     0.050 C 
ATOM     11  C   UNL d   1      27.967 -15.575  -3.839  0.00  0.00     0.017 C 
BRANCH   7  12
ATOM     12  N   UNL d   1      28.589 -13.788  -7.795  0.00  0.00    -0.327 N 
ATOM     13  C   UNL d   1      28.158 -12.485  -8.197  0.00  0.00     0.218 C 
ATOM     14  C   UNL d   1      28.236 -12.124  -9.668  0.00  0.00     0.117 C 
ATOM     15  O   UNL d   1      27.838 -11.523  -7.503  0.00  0.00    -0.274 OA
ATOM     16  H   UNL d   1      29.309 -14.168  -8.395  0.00  0.00     0.169 HD
ENDBRANCH   7  12
ENDBRANCH   1   5
BRANCH   3  17
ATOM     17  C   UNL d   1      25.726 -15.501  -1.396  0.00  0.00     0.226 C 
BRANCH  17  18
ATOM     18  C   UNL d   1      24.837 -16.567  -0.775  0.00  0.00    -0.016 A 
ATOM     19  C   UNL d   1      23.470 -16.328  -1.001  0.00  0.00     0.011 A 
ATOM     20  C   UNL d   1      22.500 -17.195  -0.520  0.00  0.00     0.001 A 
ATOM     21  C   UNL d   1      22.863 -18.310   0.220  0.00  0.00     0.001 A 
ATOM     22  C   UNL d   1      24.195 -18.575   0.466  0.00  0.00     0.007 A 
ATOM     23  C   UNL d   1      25.190 -17.730  -0.029  0.00  0.00    -0.053 A 
ATOM     24  C   UNL d   1      26.557 -18.202   0.338  0.00  0.00     0.049 C 
ENDBRANCH  17  18
BRANCH  17  25
ATOM     25  C   UNL d   1      26.383 -14.531  -0.542  0.00  0.00     0.089 C 
ATOM     26  N   UNL d   1      26.653 -13.573  -0.030  0.00  0.00    -0.195 NA
ENDBRANCH  17  25
ENDBRANCH   3  17
TORSDOF 5
ENDMDL
MODEL 4
REMARK VINA RESULT:    -7.726      3.629      5.375
REMARK INTER + INTRA:         -10.549
REMARK INTER:                  -9.218
REMARK INTRA:                  -1.331
REMARK CONF_INDEPENDENT:        1.492
REMARK UNBOUND:                -1.331
REMARK  5 active torsions:
REMARK  status: ('A' for Active; 'I' for Inactive)
REMARK       I    between atoms: C_2  and  N_4 
REMARK    1  A    between atoms: N_4  and  C_5 
REMARK    2  A    between atoms: C_7  and  C_8 
REMARK       I    between atoms: C_8  and  N_10 
REMARK    3  A    between atoms: C_11  and  N_10 
REMARK    4  A    between atoms: C_11  and  C_14 
REMARK    5  A    between atoms: C_11  and  C_12 
ROOT
ATOM      1  C   UNL d   1      27.258 -18.147   0.106  0.00  0.00     0.253 C 
ATOM      2  O   UNL d   1      27.283 -19.286   0.577  0.00  0.00    -0.268 OA
ATOM      3  N   UNL d   1      28.503 -17.528  -0.092  0.00  0.00    -0.336 N 
ATOM      4  H   UNL d   1      29.269 -18.120   0.200  0.00  0.00     0.164 HD
ENDROOT
BRANCH   1   5
ATOM      5  C   UNL d   1      25.902 -17.537  -0.255  0.00  0.00     0.034 C 
ATOM      6  C   UNL d   1      24.746 -18.254   0.017  0.00  0.00     0.047 C 
ATOM      7  C   UNL d   1      23.394 -17.882   0.057  0.00  0.00     0.041 C 
ATOM      8  C   UNL d   1      23.182 -16.716  -0.653  0.00  0.00    -0.035 C 
ATOM      9  C   UNL d   1      24.315 -15.948  -1.114  0.00  0.00     0.010 C 
ATOM     10  C   UNL d   1      21.781 -16.262  -0.901  0.00  0.00     0.050 C 
ATOM     11  C   UNL d   1      25.668 -16.329  -0.871  0.00  0.00     0.017 C 
BRANCH   7  12
ATOM     12  N   UNL d   1      22.331 -18.782   0.571  0.00  0.00    -0.327 N 
ATOM     13  C   UNL d   1      21.208 -19.317  -0.135  0.00  0.00     0.218 C 
ATOM     14  C   UNL d   1      20.164 -20.084   0.652  0.00  0.00     0.117 C 
ATOM     15  O   UNL d   1      21.002 -19.367  -1.345  0.00  0.00    -0.274 OA
ATOM     16  H   UNL d   1      22.579 -19.325   1.388  0.00  0.00     0.169 HD
ENDBRANCH   7  12
ENDBRANCH   1   5
BRANCH   3  17
ATOM     17  C   UNL d   1      28.973 -16.224  -0.631  0.00  0.00     0.226 C 
BRANCH  17  18
ATOM     18  C   UNL d   1      28.280 -15.024  -0.004  0.00  0.00    -0.016 A 
ATOM     19  C   UNL d   1      28.276 -15.078   1.401  0.00  0.00     0.011 A 
ATOM     20  C   UNL d   1      27.698 -14.069   2.157  0.00  0.00     0.001 A 
ATOM     21  C   UNL d   1      27.085 -12.991   1.535  0.00  0.00     0.001 A 
ATOM     22  C   UNL d   1      27.065 -12.907   0.158  0.00  0.00     0.007 A 
ATOM     23  C   UNL d   1      27.663 -13.898  -0.623  0.00  0.00    -0.053 A 
ATOM     24  C   UNL d   1      27.540 -13.609  -2.083  0.00  0.00     0.049 C 
ENDBRANCH  17  18
BRANCH  17  25
ATOM     25  C   UNL d   1      29.159 -16.271  -2.068  0.00  0.00     0.089 C 
ATOM     26  N   UNL d   1      29.541 -16.067  -3.100  0.00  0.00    -0.195 NA
ENDBRANCH  17  25
ENDBRANCH   3  17
TORSDOF 5
ENDMDL
MODEL 5
REMARK VINA RESULT:    -7.605      1.445      2.308
REMARK INTER + INTRA:         -10.125
REMARK INTER:                  -9.096
REMARK INTRA:                  -1.029
REMARK CONF_INDEPENDENT:        1.492
REMARK UNBOUND:                -1.029
REMARK  5 active torsions:
REMARK  status: ('A' for Active; 'I' for Inactive)
REMARK       I    between atoms: C_2  and  N_4 
REMARK    1  A    between atoms: N_4  and  C_5 
REMARK    2  A    between atoms: C_7  and  C_8 
REMARK       I    between atoms: C_8  and  N_10 
REMARK    3  A    between atoms: C_11  and  N_10 
REMARK    4  A    between atoms: C_11  and  C_14 
REMARK    5  A    between atoms: C_11  and  C_12 
ROOT
ATOM      1  C   UNL d   1      25.527 -14.668  -4.000  0.00  0.00     0.253 C 
ATOM      2  O   UNL d   1      25.156 -15.234  -5.030  0.00  0.00    -0.268 OA
ATOM      3  N   UNL d   1      25.546 -13.264  -4.034  0.00  0.00    -0.336 N 
ATOM      4  H   UNL d   1      25.253 -12.904  -4.934  0.00  0.00     0.164 HD
ENDROOT
BRANCH   1   5
ATOM      5  C   UNL d   1      25.885 -15.525  -2.785  0.00  0.00     0.034 C 
ATOM      6  C   UNL d   1      24.865 -16.061  -2.013  0.00  0.00     0.047 C 
ATOM      7  C   UNL d   1      24.851 -17.068  -1.037  0.00  0.00     0.041 C 
ATOM      8  C   UNL d   1      26.116 -17.274  -0.521  0.00  0.00    -0.035 C 
ATOM      9  C   UNL d   1      27.253 -16.652  -1.160  0.00  0.00     0.010 C 
ATOM     10  C   UNL d   1      26.280 -18.161   0.669  0.00  0.00     0.050 C 
ATOM     11  C   UNL d   1      27.144 -15.825  -2.316  0.00  0.00     0.017 C 
BRANCH   7  12
ATOM     12  N   UNL d   1      23.593 -17.622  -0.475  0.00  0.00    -0.327 N 
ATOM     13  C   UNL d   1      22.706 -18.575  -1.065  0.00  0.00     0.218 C 
ATOM     14  C   UNL d   1      21.392 -18.863  -0.364  0.00  0.00     0.117 C 
ATOM     15  O   UNL d   1      22.893 -19.325  -2.020  0.00  0.00    -0.274 OA
ATOM     16  H   UNL d   1      23.510 -17.575   0.532  0.00  0.00     0.169 HD
ENDBRANCH   7  12
ENDBRANCH   1   5
BRANCH   3  17
ATOM     17  C   UNL d   1      25.881 -12.177  -3.076  0.00  0.00     0.226 C 
BRANCH  17  18
ATOM     18  C   UNL d   1      25.906 -10.796  -3.712  0.00  0.00    -0.016 A 
ATOM     19  C   UNL d   1      25.737  -9.765  -2.771  0.00  0.00     0.011 A 
ATOM     20  C   UNL d   1      25.740  -8.433  -3.156  0.00  0.00     0.001 A 
ATOM     21  C   UNL d   1      25.887  -8.091  -4.492  0.00  0.00     0.001 A 
ATOM     22  C   UNL d   1      26.051  -9.075  -5.445  0.00  0.00     0.007 A 
ATOM     23  C   UNL d   1      26.077 -10.422  -5.078  0.00  0.00    -0.053 A 
ATOM     24  C   UNL d   1      26.276 -11.318  -6.254  0.00  0.00     0.049 C 
ENDBRANCH  17  18
BRANCH  17  25
ATOM     25  C   UNL d   1      26.943 -12.567  -2.170  0.00  0.00     0.089 C 
ATOM     26  N   UNL d   1      27.513 -12.803  -1.236  0.00  0.00    -0.195 NA
ENDBRANCH  17  25
ENDBRANCH   3  17
TORSDOF 5
ENDMDL
MODEL 6
REMARK VINA RESULT:    -7.601      1.478      2.422
REMARK INTER + INTRA:         -10.244
REMARK INTER:                  -9.092
REMARK INTRA:                  -1.152
REMARK CONF_INDEPENDENT:        1.492
REMARK UNBOUND:                -1.152
REMARK  5 active torsions:
REMARK  status: ('A' for Active; 'I' for Inactive)
REMARK       I    between atoms: C_2  and  N_4 
REMARK    1  A    between atoms: N_4  and  C_5 
REMARK    2  A    between atoms: C_7  and  C_8 
REMARK       I    between atoms: C_8  and  N_10 
REMARK    3  A    between atoms: C_11  and  N_10 
REMARK    4  A    between atoms: C_11  and  C_14 
REMARK    5  A    between atoms: C_11  and  C_12 
ROOT
ATOM      1  C   UNL d   1      24.749 -13.910  -3.790  0.00  0.00     0.253 C 
ATOM      2  O   UNL d   1      23.614 -14.075  -4.245  0.00  0.00    -0.268 OA
ATOM      3  N   UNL d   1      25.410 -12.735  -4.180  0.00  0.00    -0.336 N 
ATOM      4  H   UNL d   1      24.849 -12.176  -4.810  0.00  0.00     0.164 HD
ENDROOT
BRANCH   1   5
ATOM      5  C   UNL d   1      25.306 -14.958  -2.824  0.00  0.00     0.034 C 
ATOM      6  C   UNL d   1      24.432 -15.640  -1.992  0.00  0.00     0.047 C 
ATOM      7  C   UNL d   1      24.579 -16.801  -1.218  0.00  0.00     0.041 C 
ATOM      8  C   UNL d   1      25.913 -17.066  -0.975  0.00  0.00    -0.035 C 
ATOM      9  C   UNL d   1      26.926 -16.320  -1.684  0.00  0.00     0.010 C 
ATOM     10  C   UNL d   1      26.275 -18.142  -0.005  0.00  0.00     0.050 C 
ATOM     11  C   UNL d   1      26.624 -15.307  -2.642  0.00  0.00     0.017 C 
BRANCH   7  12
ATOM     12  N   UNL d   1      23.434 -17.470  -0.551  0.00  0.00    -0.327 N 
ATOM     13  C   UNL d   1      22.630 -18.546  -1.041  0.00  0.00     0.218 C 
ATOM     14  C   UNL d   1      21.407 -18.951  -0.242  0.00  0.00     0.117 C 
ATOM     15  O   UNL d   1      22.843 -19.312  -1.978  0.00  0.00    -0.274 OA
ATOM     16  H   UNL d   1      23.410 -17.387   0.458  0.00  0.00     0.169 HD
ENDBRANCH   7  12
ENDBRANCH   1   5
BRANCH   3  17
ATOM     17  C   UNL d   1      26.727 -12.105  -3.891  0.00  0.00     0.226 C 
BRANCH  17  18
ATOM     18  C   UNL d   1      26.620 -10.833  -3.064  0.00  0.00    -0.016 A 
ATOM     19  C   UNL d   1      27.310 -10.924  -1.842  0.00  0.00     0.011 A 
ATOM     20  C   UNL d   1      27.338  -9.861  -0.951  0.00  0.00     0.001 A 
ATOM     21  C   UNL d   1      26.658  -8.687  -1.241  0.00  0.00     0.001 A 
ATOM     22  C   UNL d   1      25.966  -8.562  -2.429  0.00  0.00     0.007 A 
ATOM     23  C   UNL d   1      25.946  -9.609  -3.352  0.00  0.00    -0.053 A 
ATOM     24  C   UNL d   1      25.154  -9.266  -4.569  0.00  0.00     0.049 C 
ENDBRANCH  17  18
BRANCH  17  25
ATOM     25  C   UNL d   1      27.603 -12.136  -5.045  0.00  0.00     0.089 C 
ATOM     26  N   UNL d   1      27.973 -12.178  -6.101  0.00  0.00    -0.195 NA
ENDBRANCH  17  25
ENDBRANCH   3  17
TORSDOF 5
ENDMDL
MODEL 7
REMARK VINA RESULT:    -7.512      4.361      7.271
REMARK INTER + INTRA:         -10.213
REMARK INTER:                  -9.003
REMARK INTRA:                  -1.209
REMARK CONF_INDEPENDENT:        1.492
REMARK UNBOUND:                -1.209
REMARK  5 active torsions:
REMARK  status: ('A' for Active; 'I' for Inactive)
REMARK       I    between atoms: C_2  and  N_4 
REMARK    1  A    between atoms: N_4  and  C_5 
REMARK    2  A    between atoms: C_7  and  C_8 
REMARK       I    between atoms: C_8  and  N_10 
REMARK    3  A    between atoms: C_11  and  N_10 
REMARK    4  A    between atoms: C_11  and  C_14 
REMARK    5  A    between atoms: C_11  and  C_12 
ROOT
ATOM      1  C   UNL d   1      28.252 -14.739  -1.397  0.00  0.00     0.253 C 
ATOM      2  O   UNL d   1      29.394 -15.063  -1.731  0.00  0.00    -0.268 OA
ATOM      3  N   UNL d   1      27.202 -15.316  -2.127  0.00  0.00    -0.336 N 
ATOM      4  H   UNL d   1      27.541 -15.928  -2.858  0.00  0.00     0.164 HD
ENDROOT
BRANCH   1   5
ATOM      5  C   UNL d   1      28.083 -13.789  -0.209  0.00  0.00     0.034 C 
ATOM      6  C   UNL d   1      28.206 -14.290   1.079  0.00  0.00     0.047 C 
ATOM      7  C   UNL d   1      28.370 -13.664   2.323  0.00  0.00     0.041 C 
ATOM      8  C   UNL d   1      27.965 -12.344   2.267  0.00  0.00    -0.035 C 
ATOM      9  C   UNL d   1      27.672 -11.744   0.986  0.00  0.00     0.010 C 
ATOM     10  C   UNL d   1      27.871 -11.559   3.535  0.00  0.00     0.050 C 
ATOM     11  C   UNL d   1      27.780 -12.447  -0.249  0.00  0.00     0.017 C 
BRANCH   7  12
ATOM     12  N   UNL d   1      28.682 -14.416   3.564  0.00  0.00    -0.327 N 
ATOM     13  C   UNL d   1      27.920 -14.483   4.772  0.00  0.00     0.218 C 
ATOM     14  C   UNL d   1      28.530 -15.190   5.967  0.00  0.00     0.117 C 
ATOM     15  O   UNL d   1      26.753 -14.159   4.974  0.00  0.00    -0.274 OA
ATOM     16  H   UNL d   1      29.312 -15.200   3.450  0.00  0.00     0.169 HD
ENDBRANCH   7  12
ENDBRANCH   1   5
BRANCH   3  17
ATOM     17  C   UNL d   1      25.716 -15.257  -2.089  0.00  0.00     0.226 C 
BRANCH  17  18
ATOM     18  C   UNL d   1      25.089 -16.344  -1.230  0.00  0.00    -0.016 A 
ATOM     19  C   UNL d   1      23.684 -16.334  -1.287  0.00  0.00     0.011 A 
ATOM     20  C   UNL d   1      22.929 -17.256  -0.577  0.00  0.00     0.001 A 
ATOM     21  C   UNL d   1      23.551 -18.197   0.230  0.00  0.00     0.001 A 
ATOM     22  C   UNL d   1      24.928 -18.234   0.316  0.00  0.00     0.007 A 
ATOM     23  C   UNL d   1      25.709 -17.333  -0.410  0.00  0.00    -0.053 A 
ATOM     24  C   UNL d   1      27.169 -17.551  -0.186  0.00  0.00     0.049 C 
ENDBRANCH  17  18
BRANCH  17  25
ATOM     25  C   UNL d   1      25.155 -14.966  -3.394  0.00  0.00     0.089 C 
ATOM     26  N   UNL d   1      24.909 -14.450  -4.357  0.00  0.00    -0.195 NA
ENDBRANCH  17  25
ENDBRANCH   3  17
TORSDOF 5
ENDMDL
MODEL 8
REMARK VINA RESULT:    -7.363      3.159      7.065
REMARK INTER + INTRA:         -10.268
REMARK INTER:                  -8.855
REMARK INTRA:                  -1.413
REMARK CONF_INDEPENDENT:        1.492
REMARK UNBOUND:                -1.413
REMARK  5 active torsions:
REMARK  status: ('A' for Active; 'I' for Inactive)
REMARK       I    between atoms: C_2  and  N_4 
REMARK    1  A    between atoms: N_4  and  C_5 
REMARK    2  A    between atoms: C_7  and  C_8 
REMARK       I    between atoms: C_8  and  N_10 
REMARK    3  A    between atoms: C_11  and  N_10 
REMARK    4  A    between atoms: C_11  and  C_14 
REMARK    5  A    between atoms: C_11  and  C_12 
ROOT
ATOM      1  C   UNL d   1      25.576 -14.647  -3.916  0.00  0.00     0.253 C 
ATOM      2  O   UNL d   1      24.762 -14.075  -4.645  0.00  0.00    -0.268 OA
ATOM      3  N   UNL d   1      25.133 -14.972  -2.624  0.00  0.00    -0.336 N 
ATOM      4  H   UNL d   1      24.181 -14.670  -2.464  0.00  0.00     0.164 HD
ENDROOT
BRANCH   1   5
ATOM      5  C   UNL d   1      26.954 -14.985  -4.488  0.00  0.00     0.034 C 
ATOM      6  C   UNL d   1      27.927 -15.500  -3.644  0.00  0.00     0.047 C 
ATOM      7  C   UNL d   1      29.150 -16.140  -3.894  0.00  0.00     0.041 C 
ATOM      8  C   UNL d   1      29.599 -15.862  -5.171  0.00  0.00    -0.035 C 
ATOM      9  C   UNL d   1      28.719 -15.200  -6.106  0.00  0.00     0.010 C 
ATOM     10  C   UNL d   1      30.978 -16.283  -5.563  0.00  0.00     0.050 C 
ATOM     11  C   UNL d   1      27.386 -14.810  -5.783  0.00  0.00     0.017 C 
BRANCH   7  12
ATOM     12  N   UNL d   1      29.947 -16.792  -2.825  0.00  0.00    -0.327 N 
ATOM     13  C   UNL d   1      29.557 -17.071  -1.478  0.00  0.00     0.218 C 
ATOM     14  C   UNL d   1      30.608 -17.599  -0.521  0.00  0.00     0.117 C 
ATOM     15  O   UNL d   1      28.435 -17.072  -0.977  0.00  0.00    -0.274 OA
ATOM     16  H   UNL d   1      30.707 -17.378  -3.146  0.00  0.00     0.169 HD
ENDBRANCH   7  12
ENDBRANCH   1   5
BRANCH   3  17
ATOM     17  C   UNL d   1      25.713 -15.656  -1.437  0.00  0.00     0.226 C 
BRANCH  17  18
ATOM     18  C   UNL d   1      24.775 -16.671  -0.805  0.00  0.00    -0.016 A 
ATOM     19  C   UNL d   1      23.431 -16.457  -1.159  0.00  0.00     0.011 A 
ATOM     20  C   UNL d   1      22.423 -17.286  -0.688  0.00  0.00     0.001 A 
ATOM     21  C   UNL d   1      22.722 -18.336   0.167  0.00  0.00     0.001 A 
ATOM     22  C   UNL d   1      24.029 -18.575   0.540  0.00  0.00     0.007 A 
ATOM     23  C   UNL d   1      25.063 -17.769   0.059  0.00  0.00    -0.053 A 
ATOM     24  C   UNL d   1      26.395 -18.204   0.572  0.00  0.00     0.049 C 
ENDBRANCH  17  18
BRANCH  17  25
ATOM     25  C   UNL d   1      26.445 -14.734  -0.590  0.00  0.00     0.089 C 
ATOM     26  N   UNL d   1      26.876 -14.230   0.312  0.00  0.00    -0.195 NA
ENDBRANCH  17  25
ENDBRANCH   3  17
TORSDOF 5
ENDMDL
MODEL 9
REMARK VINA RESULT:    -6.830      3.174      7.211
REMARK INTER + INTRA:         -10.193
REMARK INTER:                  -8.322
REMARK INTRA:                  -1.871
REMARK CONF_INDEPENDENT:        1.492
REMARK UNBOUND:                -1.871
REMARK  5 active torsions:
REMARK  status: ('A' for Active; 'I' for Inactive)
REMARK       I    between atoms: C_2  and  N_4 
REMARK    1  A    between atoms: N_4  and  C_5 
REMARK    2  A    between atoms: C_7  and  C_8 
REMARK       I    between atoms: C_8  and  N_10 
REMARK    3  A    between atoms: C_11  and  N_10 
REMARK    4  A    between atoms: C_11  and  C_14 
REMARK    5  A    between atoms: C_11  and  C_12 
ROOT
ATOM      1  C   UNL d   1      30.003 -17.447  -1.380  0.00  0.00     0.253 C 
ATOM      2  O   UNL d   1      30.890 -18.289  -1.220  0.00  0.00    -0.268 OA
ATOM      3  N   UNL d   1      29.329 -17.027  -0.223  0.00  0.00    -0.336 N 
ATOM      4  H   UNL d   1      29.669 -17.498   0.605  0.00  0.00     0.164 HD
ENDROOT
BRANCH   1   5
ATOM      5  C   UNL d   1      29.751 -16.914  -2.792  0.00  0.00     0.034 C 
ATOM      6  C   UNL d   1      28.727 -16.002  -2.996  0.00  0.00     0.047 C 
ATOM      7  C   UNL d   1      28.421 -15.151  -4.068  0.00  0.00     0.041 C 
ATOM      8  C   UNL d   1      29.031 -15.583  -5.230  0.00  0.00    -0.035 C 
ATOM      9  C   UNL d   1      30.023 -16.632  -5.164  0.00  0.00     0.010 C 
ATOM     10  C   UNL d   1      28.671 -14.932  -6.525  0.00  0.00     0.050 C 
ATOM     11  C   UNL d   1      30.419 -17.258  -3.945  0.00  0.00     0.017 C 
BRANCH   7  12
ATOM     12  N   UNL d   1      27.372 -14.103  -3.986  0.00  0.00    -0.327 N 
ATOM     13  C   UNL d   1      25.995 -14.200  -4.360  0.00  0.00     0.218 C 
ATOM     14  C   UNL d   1      25.155 -12.938  -4.337  0.00  0.00     0.117 C 
ATOM     15  O   UNL d   1      25.319 -15.200  -4.586  0.00  0.00    -0.274 OA
ATOM     16  H   UNL d   1      27.550 -13.362  -3.321  0.00  0.00     0.169 HD
ENDBRANCH   7  12
ENDBRANCH   1   5
BRANCH   3  17
ATOM     17  C   UNL d   1      28.245 -16.056   0.088  0.00  0.00     0.226 C 
BRANCH  17  18
ATOM     18  C   UNL d   1      26.855 -16.575  -0.243  0.00  0.00    -0.016 A 
ATOM     19  C   UNL d   1      26.100 -15.656  -0.993  0.00  0.00     0.011 A 
ATOM     20  C   UNL d   1      24.807 -15.950  -1.400  0.00  0.00     0.001 A 
ATOM     21  C   UNL d   1      24.221 -17.157  -1.050  0.00  0.00     0.001 A 
ATOM     22  C   UNL d   1      24.929 -18.082  -0.310  0.00  0.00     0.007 A 
ATOM     23  C   UNL d   1      26.240 -17.818   0.089  0.00  0.00    -0.053 A 
ATOM     24  C   UNL d   1      26.826 -18.950   0.866  0.00  0.00     0.049 C 
ENDBRANCH  17  18
BRANCH  17  25
ATOM     25  C   UNL d   1      28.611 -14.704  -0.285  0.00  0.00     0.089 C 
ATOM     26  N   UNL d   1      28.568 -13.664  -0.697  0.00  0.00    -0.195 NA
ENDBRANCH  17  25
ENDBRANCH   3  17
TORSDOF 5
ENDMDL
