MODEL 1
REMARK VINA RESULT:   -30.256      0.000      0.000
REMARK INTER + INTRA:         -32.499
REMARK INTER:                 -31.449
REMARK INTRA:                  -1.050
REMARK CONF_INDEPENDENT:        1.193
REMARK UNBOUND:                -1.050
REMARK  4 active torsions:
REMARK  status: ('A' for Active; 'I' for Inactive)
REMARK    1  A    between atoms: C_6  and  N_7 
REMARK       I    between atoms: N_7  and  C_8 
REMARK    2  A    between atoms: C_10  and  C_8 
REMARK    3  A    between atoms: C_10  and  N_12 
REMARK       I    between atoms: N_12  and  C_13 
REMARK    4  A    between atoms: C_13  and  C_15 
ROOT
ATOM      1  C   UNL d   1      23.980 -17.211  -1.339  0.00  0.00     0.173 C 
ATOM      2  C   UNL d   1      24.900 -17.514  -0.140  0.00  0.00     0.042 C 
ENDROOT
BRANCH   1   3
ATOM      3  N   UNL d   1      24.209 -15.855  -1.835  0.00  0.00    -0.344 N 
ATOM      4  C   UNL d   1      25.367 -15.531  -2.497  0.00  0.00     0.252 C 
ATOM      5  O   UNL d   1      26.255 -16.352  -2.738  0.00  0.00    -0.268 OA
ATOM      6  H   UNL d   1      23.502 -15.151  -1.670  0.00  0.00     0.163 HD
BRANCH   4   7
ATOM      7  C   UNL d   1      25.504 -14.170  -3.026  0.00  0.00     0.032 A 
ATOM      8  C   UNL d   1      25.297 -13.946  -4.394  0.00  0.00     0.017 A 
ATOM      9  C   UNL d   1      25.646 -12.716  -4.947  0.00  0.00     0.001 A 
ATOM     10  C   UNL d   1      26.131 -11.700  -4.121  0.00  0.00     0.000 A 
ATOM     11  C   UNL d   1      26.299 -11.921  -2.752  0.00  0.00     0.001 A 
ATOM     12  C   UNL d   1      25.990 -13.161  -2.199  0.00  0.00     0.017 A 
ENDBRANCH   4   7
ENDBRANCH   1   3
BRANCH   1  13
ATOM     13  C   UNL d   1      22.531 -17.490  -0.866  0.00  0.00     0.245 C 
ATOM     14  N   UNL d   1      22.145 -18.806  -0.694  0.00  0.00    -0.310 N 
ATOM     15  H   UNL d   1      22.834 -19.549  -0.761  0.00  0.00     0.170 HD
ATOM     16  O   UNL d   1      21.833 -16.517  -0.571  0.00  0.00    -0.271 OA
BRANCH  14  17
ATOM     17  C   UNL d   1      20.885 -19.255  -0.283  0.00  0.00     0.130 A 
ATOM     18  N   UNL d   1      19.905 -19.325  -1.212  0.00  0.00    -0.243 NA
ATOM     19  C   UNL d   1      18.689 -19.766  -0.789  0.00  0.00     0.119 A 
ATOM     20  C   UNL d   1      18.404 -20.157   0.514  0.00  0.00     0.026 A 
ATOM     21  C   UNL d   1      19.425 -20.087   1.445  0.00  0.00    -0.057 A 
ATOM     22  C   UNL d   1      19.303 -20.502   2.874  0.00  0.00     0.048 C 
ATOM     23  C   UNL d   1      20.660 -19.613   1.032  0.00  0.00     0.057 A 
ENDBRANCH  14  17
ENDBRANCH   1  13
TORSDOF 4
ENDMDL
MODEL 2
REMARK VINA RESULT:   -29.321      2.569      3.327
REMARK INTER + INTRA:         -31.526
REMARK INTER:                 -30.514
REMARK INTRA:                  -1.012
REMARK CONF_INDEPENDENT:        1.193
REMARK UNBOUND:                -1.012
REMARK  4 active torsions:
REMARK  status: ('A' for Active; 'I' for Inactive)
REMARK    1  A    between atoms: C_6  and  N_7 
REMARK       I    between atoms: N_7  and  C_8 
REMARK    2  A    between atoms: C_10  and  C_8 
REMARK    3  A    between atoms: C_10  and  N_12 
REMARK       I    between atoms: N_12  and  C_13 
REMARK    4  A    between atoms: C_13  and  C_15 
ROOT
ATOM      1  C   UNL d   1      24.051 -16.995  -1.007  0.00  0.00     0.173 C 
ATOM      2  C   UNL d   1      24.402 -17.742  -2.308  0.00  0.00     0.042 C 
ENDROOT
BRANCH   1   3
ATOM      3  N   UNL d   1      25.262 -16.669  -0.257  0.00  0.00    -0.344 N 
ATOM      4  C   UNL d   1      26.271 -15.933  -0.827  0.00  0.00     0.252 C 
ATOM      5  O   UNL d   1      26.208 -15.485  -1.974  0.00  0.00    -0.268 OA
ATOM      6  H   UNL d   1      25.352 -17.007   0.693  0.00  0.00     0.163 HD
BRANCH   4   7
ATOM      7  C   UNL d   1      27.428 -15.586   0.003  0.00  0.00     0.032 A 
ATOM      8  C   UNL d   1      27.252 -14.726   1.095  0.00  0.00     0.017 A 
ATOM      9  C   UNL d   1      28.368 -14.208   1.747  0.00  0.00     0.001 A 
ATOM     10  C   UNL d   1      29.646 -14.605   1.350  0.00  0.00     0.000 A 
ATOM     11  C   UNL d   1      29.812 -15.491   0.283  0.00  0.00     0.001 A 
ATOM     12  C   UNL d   1      28.702 -15.982  -0.399  0.00  0.00     0.017 A 
ENDBRANCH   4   7
ENDBRANCH   1   3
BRANCH   1  13
ATOM     13  C   UNL d   1      23.038 -17.886  -0.245  0.00  0.00     0.245 C 
ATOM     14  N   UNL d   1      21.827 -18.162  -0.852  0.00  0.00    -0.310 N 
ATOM     15  H   UNL d   1      21.670 -17.884  -1.816  0.00  0.00     0.170 HD
ATOM     16  O   UNL d   1      23.410 -18.385   0.821  0.00  0.00    -0.271 OA
BRANCH  14  17
ATOM     17  C   UNL d   1      20.790 -18.936  -0.322  0.00  0.00     0.130 A 
ATOM     18  N   UNL d   1      19.800 -19.325  -1.158  0.00  0.00    -0.243 NA
ATOM     19  C   UNL d   1      18.803 -20.079  -0.620  0.00  0.00     0.119 A 
ATOM     20  C   UNL d   1      18.750 -20.479   0.709  0.00  0.00     0.026 A 
ATOM     21  C   UNL d   1      19.778 -20.078   1.544  0.00  0.00    -0.057 A 
ATOM     22  C   UNL d   1      19.898 -20.450   2.985  0.00  0.00     0.048 C 
ATOM     23  C   UNL d   1      20.785 -19.287   1.014  0.00  0.00     0.057 A 
ENDBRANCH  14  17
ENDBRANCH   1  13
TORSDOF 4
ENDMDL
