MODEL 1
REMARK VINA RESULT:   -26.102      0.000      0.000
REMARK INTER + INTRA:         -29.296
REMARK INTER:                 -28.190
REMARK INTRA:                  -1.107
REMARK CONF_INDEPENDENT:        2.088
REMARK UNBOUND:                -1.107
REMARK  7 active torsions:
REMARK  status: ('A' for Active; 'I' for Inactive)
REMARK       I    between atoms: C_2  and  N_4 
REMARK    1  A    between atoms: N_4  and  C_5 
REMARK    2  A    between atoms: C_10  and  N_11 
REMARK       I    between atoms: N_11  and  C_12 
REMARK    3  A    between atoms: C_12  and  C_14 
REMARK    4  A    between atoms: C_17  and  C_18 
REMARK    5  A    between atoms: C_18  and  N_19 
REMARK       I    between atoms: N_19  and  C_20 
REMARK    6  A    between atoms: C_20  and  O_22 
REMARK    7  A    between atoms: O_22  and  C_23 
ROOT
ATOM      1  N   UNL d   1      25.240 -16.696  -0.560  0.00  0.00    -0.323 N 
ATOM      2  C   UNL d   1      26.247 -17.343   0.162  0.00  0.00     0.256 C 
ATOM      3  O   UNL d   1      26.139 -18.368   0.830  0.00  0.00    -0.267 OA
ATOM      4  H   UNL d   1      25.486 -15.874  -1.098  0.00  0.00     0.169 HD
ENDROOT
BRANCH   2   5
ATOM      5  C   UNL d   1      27.602 -16.753   0.179  0.00  0.00     0.032 A 
ATOM      6  C   UNL d   1      27.850 -15.647   1.010  0.00  0.00     0.017 A 
ATOM      7  C   UNL d   1      29.035 -14.913   0.882  0.00  0.00     0.010 A 
ATOM      8  C   UNL d   1      30.027 -15.320  -0.030  0.00  0.00    -0.040 A 
ATOM      9  C   UNL d   1      29.738 -16.407  -0.871  0.00  0.00     0.010 A 
ATOM     10  C   UNL d   1      28.543 -17.121  -0.772  0.00  0.00     0.017 A 
BRANCH   8  11
ATOM     11  C   UNL d   1      31.369 -14.616  -0.039  0.00  0.00     0.163 C 
BRANCH  11  12
ATOM     12  N   UNL d   1      32.511 -15.443   0.313  0.00  0.00    -0.333 N 
ATOM     13  C   UNL d   1      32.703 -15.871   1.589  0.00  0.00     0.361 C 
ATOM     14  O   UNL d   1      31.929 -15.586   2.500  0.00  0.00    -0.238 OA
ATOM     15  H   UNL d   1      33.185 -15.760  -0.362  0.00  0.00     0.165 HD
BRANCH  13  16
ATOM     16  O   UNL d   1      33.833 -16.632   1.707  0.00  0.00    -0.294 OA
BRANCH  16  17
ATOM     17  C   UNL d   1      33.730 -18.064   1.434  0.00  0.00     0.061 C 
ATOM     18  C   UNL d   1      32.923 -18.768   2.533  0.00  0.00     0.046 C 
ATOM     19  C   UNL d   1      33.124 -18.308   0.046  0.00  0.00     0.046 C 
ATOM     20  C   UNL d   1      35.142 -18.696   1.432  0.00  0.00     0.046 C 
ENDBRANCH  16  17
ENDBRANCH  13  16
ENDBRANCH  11  12
ENDBRANCH   8  11
ENDBRANCH   2   5
BRANCH   1  21
ATOM     21  C   UNL d   1      23.886 -17.153  -0.645  0.00  0.00     0.036 A 
ATOM     22  C   UNL d   1      22.881 -16.343  -1.171  0.00  0.00     0.032 A 
ATOM     23  C   UNL d   1      21.548 -16.754  -1.269  0.00  0.00     0.035 A 
ATOM     24  C   UNL d   1      21.174 -18.030  -0.828  0.00  0.00     0.077 A 
ATOM     25  N   UNL d   1      19.896 -18.576  -0.900  0.00  0.00    -0.223 NA
ATOM     26  C   UNL d   1      22.166 -18.846  -0.276  0.00  0.00     0.039 A 
ATOM     27  C   UNL d   1      19.881 -19.730  -0.282  0.00  0.00     0.174 C 
ATOM     28  S   UNL d   1      21.408 -20.316   0.231  0.00  0.00    -0.050 SA
ATOM     29  C   UNL d   1      23.530 -18.438  -0.190  0.00  0.00     0.051 A 
BRANCH  27  30
ATOM     30  N   UNL d   1      18.752 -20.524  -0.165  0.00  0.00    -0.306 N 
ATOM     31  C   UNL d   1      18.402 -21.075   1.056  0.00  0.00     0.219 C 
ATOM     32  C   UNL d   1      17.074 -21.801   1.076  0.00  0.00     0.117 C 
ATOM     33  O   UNL d   1      19.057 -20.987   2.092  0.00  0.00    -0.274 OA
ATOM     34  H   UNL d   1      18.018 -20.314  -0.830  0.00  0.00     0.171 HD
ENDBRANCH  27  30
ENDBRANCH   1  21
TORSDOF 7
ENDMDL
MODEL 2
REMARK VINA RESULT:   -26.052      1.872      2.984
REMARK INTER + INTRA:         -29.176
REMARK INTER:                 -28.140
REMARK INTRA:                  -1.036
REMARK CONF_INDEPENDENT:        2.088
REMARK UNBOUND:                -1.036
REMARK  7 active torsions:
REMARK  status: ('A' for Active; 'I' for Inactive)
REMARK       I    between atoms: C_2  and  N_4 
REMARK    1  A    between atoms: N_4  and  C_5 
REMARK    2  A    between atoms: C_10  and  N_11 
REMARK       I    between atoms: N_11  and  C_12 
REMARK    3  A    between atoms: C_12  and  C_14 
REMARK    4  A    between atoms: C_17  and  C_18 
REMARK    5  A    between atoms: C_18  and  N_19 
REMARK       I    between atoms: N_19  and  C_20 
REMARK    6  A    between atoms: C_20  and  O_22 
REMARK    7  A    between atoms: O_22  and  C_23 
ROOT
ATOM      1  N   UNL d   1      25.266 -16.745  -0.572  0.00  0.00    -0.323 N 
ATOM      2  C   UNL d   1      26.261 -17.381   0.176  0.00  0.00     0.256 C 
ATOM      3  O   UNL d   1      26.137 -18.384   0.873  0.00  0.00    -0.267 OA
ATOM      4  H   UNL d   1      25.525 -15.942  -1.133  0.00  0.00     0.169 HD
ENDROOT
BRANCH   2   5
ATOM      5  C   UNL d   1      27.623 -16.806   0.184  0.00  0.00     0.032 A 
ATOM      6  C   UNL d   1      27.829 -15.560   0.801  0.00  0.00     0.017 A 
ATOM      7  C   UNL d   1      29.035 -14.871   0.626  0.00  0.00     0.010 A 
ATOM      8  C   UNL d   1      30.085 -15.454  -0.108  0.00  0.00    -0.040 A 
ATOM      9  C   UNL d   1      29.839 -16.683  -0.741  0.00  0.00     0.010 A 
ATOM     10  C   UNL d   1      28.626 -17.358  -0.600  0.00  0.00     0.017 A 
BRANCH   8  11
ATOM     11  C   UNL d   1      31.438 -14.772  -0.148  0.00  0.00     0.163 C 
BRANCH  11  12
ATOM     12  N   UNL d   1      31.620 -13.685   0.799  0.00  0.00    -0.333 N 
ATOM     13  C   UNL d   1      31.586 -13.907   2.140  0.00  0.00     0.361 C 
ATOM     14  O   UNL d   1      31.405 -15.026   2.615  0.00  0.00    -0.238 OA
ATOM     15  H   UNL d   1      31.807 -12.739   0.515  0.00  0.00     0.165 HD
BRANCH  13  16
ATOM     16  O   UNL d   1      31.777 -12.755   2.852  0.00  0.00    -0.294 OA
BRANCH  16  17
ATOM     17  C   UNL d   1      30.650 -12.226   3.619  0.00  0.00     0.061 C 
ATOM     18  C   UNL d   1      30.240 -10.844   3.094  0.00  0.00     0.046 C 
ATOM     19  C   UNL d   1      29.473 -13.210   3.598  0.00  0.00     0.046 C 
ATOM     20  C   UNL d   1      31.067 -12.046   5.097  0.00  0.00     0.046 C 
ENDBRANCH  16  17
ENDBRANCH  13  16
ENDBRANCH  11  12
ENDBRANCH   8  11
ENDBRANCH   2   5
BRANCH   1  21
ATOM     21  C   UNL d   1      23.908 -17.190  -0.653  0.00  0.00     0.036 A 
ATOM     22  C   UNL d   1      22.909 -16.370  -1.175  0.00  0.00     0.032 A 
ATOM     23  C   UNL d   1      21.571 -16.769  -1.269  0.00  0.00     0.035 A 
ATOM     24  C   UNL d   1      21.188 -18.041  -0.827  0.00  0.00     0.077 A 
ATOM     25  N   UNL d   1      19.904 -18.575  -0.895  0.00  0.00    -0.223 NA
ATOM     26  C   UNL d   1      22.174 -18.866  -0.278  0.00  0.00     0.039 A 
ATOM     27  C   UNL d   1      19.880 -19.729  -0.277  0.00  0.00     0.174 C 
ATOM     28  S   UNL d   1      21.404 -20.330   0.231  0.00  0.00    -0.050 SA
ATOM     29  C   UNL d   1      23.541 -18.471  -0.196  0.00  0.00     0.051 A 
BRANCH  27  30
ATOM     30  N   UNL d   1      18.744 -20.512  -0.156  0.00  0.00    -0.306 N 
ATOM     31  C   UNL d   1      18.382 -21.042   1.070  0.00  0.00     0.219 C 
ATOM     32  C   UNL d   1      17.048 -21.757   1.092  0.00  0.00     0.117 C 
ATOM     33  O   UNL d   1      19.030 -20.944   2.109  0.00  0.00    -0.274 OA
ATOM     34  H   UNL d   1      18.017 -20.307  -0.829  0.00  0.00     0.171 HD
ENDBRANCH  27  30
ENDBRANCH   1  21
TORSDOF 7
ENDMDL
MODEL 3
REMARK VINA RESULT:   -26.045      2.010      3.225
REMARK INTER + INTRA:         -29.169
REMARK INTER:                 -28.133
REMARK INTRA:                  -1.036
REMARK CONF_INDEPENDENT:        2.088
REMARK UNBOUND:                -1.036
REMARK  7 active torsions:
REMARK  status: ('A' for Active; 'I' for Inactive)
REMARK       I    between atoms: C_2  and  N_4 
REMARK    1  A    between atoms: N_4  and  C_5 
REMARK    2  A    between atoms: C_10  and  N_11 
REMARK       I    between atoms: N_11  and  C_12 
REMARK    3  A    between atoms: C_12  and  C_14 
REMARK    4  A    between atoms: C_17  and  C_18 
REMARK    5  A    between atoms: C_18  and  N_19 
REMARK       I    between atoms: N_19  and  C_20 
REMARK    6  A    between atoms: C_20  and  O_22 
REMARK    7  A    between atoms: O_22  and  C_23 
ROOT
ATOM      1  N   UNL d   1      25.038 -16.202  -0.517  0.00  0.00    -0.323 N 
ATOM      2  C   UNL d   1      26.232 -16.928  -0.557  0.00  0.00     0.256 C 
ATOM      3  O   UNL d   1      26.356 -18.144  -0.670  0.00  0.00    -0.267 OA
ATOM      4  H   UNL d   1      25.091 -15.192  -0.458  0.00  0.00     0.169 HD
ENDROOT
BRANCH   2   5
ATOM      5  C   UNL d   1      27.513 -16.201  -0.426  0.00  0.00     0.032 A 
ATOM      6  C   UNL d   1      28.695 -16.830  -0.851  0.00  0.00     0.017 A 
ATOM      7  C   UNL d   1      29.945 -16.286  -0.530  0.00  0.00     0.010 A 
ATOM      8  C   UNL d   1      30.030 -15.062   0.158  0.00  0.00    -0.040 A 
ATOM      9  C   UNL d   1      28.833 -14.473   0.600  0.00  0.00     0.010 A 
ATOM     10  C   UNL d   1      27.586 -15.030   0.314  0.00  0.00     0.017 A 
BRANCH   8  11
ATOM     11  C   UNL d   1      31.381 -14.404   0.352  0.00  0.00     0.163 C 
BRANCH  11  12
ATOM     12  N   UNL d   1      31.483 -13.506   1.491  0.00  0.00    -0.333 N 
ATOM     13  C   UNL d   1      31.227 -13.939   2.754  0.00  0.00     0.361 C 
ATOM     14  O   UNL d   1      30.903 -15.099   2.997  0.00  0.00    -0.238 OA
ATOM     15  H   UNL d   1      31.772 -12.547   1.405  0.00  0.00     0.165 HD
BRANCH  13  16
ATOM     16  O   UNL d   1      31.378 -12.939   3.675  0.00  0.00    -0.294 OA
BRANCH  16  17
ATOM     17  C   UNL d   1      30.319 -12.750   4.664  0.00  0.00     0.061 C 
ATOM     18  C   UNL d   1      30.051 -14.054   5.427  0.00  0.00     0.046 C 
ATOM     19  C   UNL d   1      30.669 -11.601   5.618  0.00  0.00     0.046 C 
ATOM     20  C   UNL d   1      29.003 -12.364   3.949  0.00  0.00     0.046 C 
ENDBRANCH  16  17
ENDBRANCH  13  16
ENDBRANCH  11  12
ENDBRANCH   8  11
ENDBRANCH   2   5
BRANCH   1  21
ATOM     21  C   UNL d   1      23.735 -16.784  -0.618  0.00  0.00     0.036 A 
ATOM     22  C   UNL d   1      22.664 -16.071  -1.156  0.00  0.00     0.032 A 
ATOM     23  C   UNL d   1      21.377 -16.606  -1.270  0.00  0.00     0.035 A 
ATOM     24  C   UNL d   1      21.120 -17.911  -0.833  0.00  0.00     0.077 A 
ATOM     25  N   UNL d   1      19.899 -18.575  -0.920  0.00  0.00    -0.223 NA
ATOM     26  C   UNL d   1      22.177 -18.631  -0.269  0.00  0.00     0.039 A 
ATOM     27  C   UNL d   1      19.985 -19.725  -0.302  0.00  0.00     0.174 C 
ATOM     28  S   UNL d   1      21.555 -20.166   0.230  0.00  0.00    -0.050 SA
ATOM     29  C   UNL d   1      23.496 -18.097  -0.166  0.00  0.00     0.051 A 
BRANCH  27  30
ATOM     30  N   UNL d   1      18.934 -20.622  -0.198  0.00  0.00    -0.306 N 
ATOM     31  C   UNL d   1      18.527 -21.088   1.041  0.00  0.00     0.219 C 
ATOM     32  C   UNL d   1      17.281 -21.948   1.025  0.00  0.00     0.117 C 
ATOM     33  O   UNL d   1      19.068 -20.831   2.113  0.00  0.00    -0.274 OA
ATOM     34  H   UNL d   1      18.250 -20.557  -0.940  0.00  0.00     0.171 HD
ENDBRANCH  27  30
ENDBRANCH   1  21
TORSDOF 7
ENDMDL
MODEL 4
REMARK VINA RESULT:   -25.678      2.345      2.981
REMARK INTER + INTRA:         -28.895
REMARK INTER:                 -27.766
REMARK INTRA:                  -1.129
REMARK CONF_INDEPENDENT:        2.088
REMARK UNBOUND:                -1.129
REMARK  7 active torsions:
REMARK  status: ('A' for Active; 'I' for Inactive)
REMARK       I    between atoms: C_2  and  N_4 
REMARK    1  A    between atoms: N_4  and  C_5 
REMARK    2  A    between atoms: C_10  and  N_11 
REMARK       I    between atoms: N_11  and  C_12 
REMARK    3  A    between atoms: C_12  and  C_14 
REMARK    4  A    between atoms: C_17  and  C_18 
REMARK    5  A    between atoms: C_18  and  N_19 
REMARK       I    between atoms: N_19  and  C_20 
REMARK    6  A    between atoms: C_20  and  O_22 
REMARK    7  A    between atoms: O_22  and  C_23 
ROOT
ATOM      1  N   UNL d   1      25.212 -16.659  -0.574  0.00  0.00    -0.323 N 
ATOM      2  C   UNL d   1      26.193 -17.220   0.248  0.00  0.00     0.256 C 
ATOM      3  O   UNL d   1      26.060 -18.165   1.020  0.00  0.00    -0.267 OA
ATOM      4  H   UNL d   1      25.477 -15.900  -1.191  0.00  0.00     0.169 HD
ENDROOT
BRANCH   2   5
ATOM      5  C   UNL d   1      27.548 -16.629   0.245  0.00  0.00     0.032 A 
ATOM      6  C   UNL d   1      27.709 -15.303   0.682  0.00  0.00     0.017 A 
ATOM      7  C   UNL d   1      28.919 -14.629   0.474  0.00  0.00     0.010 A 
ATOM      8  C   UNL d   1      30.012 -15.297  -0.108  0.00  0.00    -0.040 A 
ATOM      9  C   UNL d   1      29.811 -16.609  -0.565  0.00  0.00     0.010 A 
ATOM     10  C   UNL d   1      28.597 -17.274  -0.393  0.00  0.00     0.017 A 
BRANCH   8  11
ATOM     11  C   UNL d   1      31.360 -14.608  -0.174  0.00  0.00     0.163 C 
BRANCH  11  12
ATOM     12  N   UNL d   1      32.079 -14.759  -1.429  0.00  0.00    -0.333 N 
ATOM     13  C   UNL d   1      31.569 -14.280  -2.594  0.00  0.00     0.361 C 
ATOM     14  O   UNL d   1      30.488 -13.699  -2.647  0.00  0.00    -0.238 OA
ATOM     15  H   UNL d   1      32.986 -15.189  -1.490  0.00  0.00     0.165 HD
BRANCH  13  16
ATOM     16  O   UNL d   1      32.399 -14.526  -3.653  0.00  0.00    -0.294 OA
BRANCH  16  17
ATOM     17  C   UNL d   1      32.208 -15.766  -4.403  0.00  0.00     0.061 C 
ATOM     18  C   UNL d   1      30.775 -15.855  -4.947  0.00  0.00     0.046 C 
ATOM     19  C   UNL d   1      33.245 -15.883  -5.528  0.00  0.00     0.046 C 
ATOM     20  C   UNL d   1      32.414 -16.978  -3.465  0.00  0.00     0.046 C 
ENDBRANCH  16  17
ENDBRANCH  13  16
ENDBRANCH  11  12
ENDBRANCH   8  11
ENDBRANCH   2   5
BRANCH   1  21
ATOM     21  C   UNL d   1      23.861 -17.125  -0.655  0.00  0.00     0.036 A 
ATOM     22  C   UNL d   1      22.848 -16.321  -1.177  0.00  0.00     0.032 A 
ATOM     23  C   UNL d   1      21.518 -16.742  -1.270  0.00  0.00     0.035 A 
ATOM     24  C   UNL d   1      21.155 -18.020  -0.828  0.00  0.00     0.077 A 
ATOM     25  N   UNL d   1      19.879 -18.575  -0.896  0.00  0.00    -0.223 NA
ATOM     26  C   UNL d   1      22.154 -18.829  -0.280  0.00  0.00     0.039 A 
ATOM     27  C   UNL d   1      19.875 -19.729  -0.278  0.00  0.00     0.174 C 
ATOM     28  S   UNL d   1      21.408 -20.305   0.230  0.00  0.00    -0.050 SA
ATOM     29  C   UNL d   1      23.515 -18.412  -0.198  0.00  0.00     0.051 A 
BRANCH  27  30
ATOM     30  N   UNL d   1      18.752 -20.530  -0.157  0.00  0.00    -0.306 N 
ATOM     31  C   UNL d   1      18.450 -21.142   1.048  0.00  0.00     0.219 C 
ATOM     32  C   UNL d   1      17.124 -21.871   1.084  0.00  0.00     0.117 C 
ATOM     33  O   UNL d   1      19.144 -21.104   2.061  0.00  0.00    -0.274 OA
ATOM     34  H   UNL d   1      17.993 -20.290  -0.781  0.00  0.00     0.171 HD
ENDBRANCH  27  30
ENDBRANCH   1  21
TORSDOF 7
ENDMDL
MODEL 5
REMARK VINA RESULT:   -25.673      1.360      1.657
REMARK INTER + INTRA:         -28.763
REMARK INTER:                 -27.761
REMARK INTRA:                  -1.002
REMARK CONF_INDEPENDENT:        2.088
REMARK UNBOUND:                -1.002
REMARK  7 active torsions:
REMARK  status: ('A' for Active; 'I' for Inactive)
REMARK       I    between atoms: C_2  and  N_4 
REMARK    1  A    between atoms: N_4  and  C_5 
REMARK    2  A    between atoms: C_10  and  N_11 
REMARK       I    between atoms: N_11  and  C_12 
REMARK    3  A    between atoms: C_12  and  C_14 
REMARK    4  A    between atoms: C_17  and  C_18 
REMARK    5  A    between atoms: C_18  and  N_19 
REMARK       I    between atoms: N_19  and  C_20 
REMARK    6  A    between atoms: C_20  and  O_22 
REMARK    7  A    between atoms: O_22  and  C_23 
ROOT
ATOM      1  N   UNL d   1      25.084 -16.276  -0.590  0.00  0.00    -0.323 N 
ATOM      2  C   UNL d   1      26.201 -16.944  -0.080  0.00  0.00     0.256 C 
ATOM      3  O   UNL d   1      26.237 -18.080   0.383  0.00  0.00    -0.267 OA
ATOM      4  H   UNL d   1      25.213 -15.347  -0.976  0.00  0.00     0.169 HD
ENDROOT
BRANCH   2   5
ATOM      5  C   UNL d   1      27.499 -16.237  -0.046  0.00  0.00     0.032 A 
ATOM      6  C   UNL d   1      27.505 -14.837   0.077  0.00  0.00     0.017 A 
ATOM      7  C   UNL d   1      28.685 -14.111  -0.127  0.00  0.00     0.010 A 
ATOM      8  C   UNL d   1      29.896 -14.782  -0.382  0.00  0.00    -0.040 A 
ATOM      9  C   UNL d   1      29.853 -16.177  -0.532  0.00  0.00     0.010 A 
ATOM     10  C   UNL d   1      28.673 -16.903  -0.367  0.00  0.00     0.017 A 
BRANCH   8  11
ATOM     11  C   UNL d   1      31.190 -13.996  -0.434  0.00  0.00     0.163 C 
BRANCH  11  12
ATOM     12  N   UNL d   1      32.370 -14.700   0.040  0.00  0.00    -0.333 N 
ATOM     13  C   UNL d   1      32.449 -15.161   1.316  0.00  0.00     0.361 C 
ATOM     14  O   UNL d   1      31.538 -15.009   2.127  0.00  0.00    -0.238 OA
ATOM     15  H   UNL d   1      33.157 -14.906  -0.551  0.00  0.00     0.165 HD
BRANCH  13  16
ATOM     16  O   UNL d   1      33.639 -15.792   1.558  0.00  0.00    -0.294 OA
BRANCH  16  17
ATOM     17  C   UNL d   1      34.781 -14.975   1.961  0.00  0.00     0.061 C 
ATOM     18  C   UNL d   1      35.653 -15.726   2.976  0.00  0.00     0.046 C 
ATOM     19  C   UNL d   1      35.594 -14.538   0.735  0.00  0.00     0.046 C 
ATOM     20  C   UNL d   1      34.280 -13.688   2.657  0.00  0.00     0.046 C 
ENDBRANCH  16  17
ENDBRANCH  13  16
ENDBRANCH  11  12
ENDBRANCH   8  11
ENDBRANCH   2   5
BRANCH   1  21
ATOM     21  C   UNL d   1      23.770 -16.840  -0.666  0.00  0.00     0.036 A 
ATOM     22  C   UNL d   1      22.699 -16.110  -1.181  0.00  0.00     0.032 A 
ATOM     23  C   UNL d   1      21.402 -16.627  -1.270  0.00  0.00     0.035 A 
ATOM     24  C   UNL d   1      21.136 -17.929  -0.831  0.00  0.00     0.077 A 
ATOM     25  N   UNL d   1      19.905 -18.576  -0.895  0.00  0.00    -0.223 NA
ATOM     26  C   UNL d   1      22.195 -18.665  -0.290  0.00  0.00     0.039 A 
ATOM     27  C   UNL d   1      19.987 -19.729  -0.281  0.00  0.00     0.174 C 
ATOM     28  S   UNL d   1      21.561 -20.193   0.218  0.00  0.00    -0.050 SA
ATOM     29  C   UNL d   1      23.522 -18.150  -0.213  0.00  0.00     0.051 A 
BRANCH  27  30
ATOM     30  N   UNL d   1      18.926 -20.611  -0.157  0.00  0.00    -0.306 N 
ATOM     31  C   UNL d   1      18.538 -21.076   1.088  0.00  0.00     0.219 C 
ATOM     32  C   UNL d   1      17.281 -21.918   1.095  0.00  0.00     0.117 C 
ATOM     33  O   UNL d   1      19.106 -20.830   2.149  0.00  0.00    -0.274 OA
ATOM     34  H   UNL d   1      18.227 -20.534  -0.885  0.00  0.00     0.171 HD
ENDBRANCH  27  30
ENDBRANCH   1  21
TORSDOF 7
ENDMDL
MODEL 6
REMARK VINA RESULT:   -24.956      2.895      4.209
REMARK INTER + INTRA:         -28.224
REMARK INTER:                 -27.044
REMARK INTRA:                  -1.180
REMARK CONF_INDEPENDENT:        2.088
REMARK UNBOUND:                -1.180
REMARK  7 active torsions:
REMARK  status: ('A' for Active; 'I' for Inactive)
REMARK       I    between atoms: C_2  and  N_4 
REMARK    1  A    between atoms: N_4  and  C_5 
REMARK    2  A    between atoms: C_10  and  N_11 
REMARK       I    between atoms: N_11  and  C_12 
REMARK    3  A    between atoms: C_12  and  C_14 
REMARK    4  A    between atoms: C_17  and  C_18 
REMARK    5  A    between atoms: C_18  and  N_19 
REMARK       I    between atoms: N_19  and  C_20 
REMARK    6  A    between atoms: C_20  and  O_22 
REMARK    7  A    between atoms: O_22  and  C_23 
ROOT
ATOM      1  N   UNL d   1      25.027 -16.203  -0.566  0.00  0.00    -0.323 N 
ATOM      2  C   UNL d   1      25.861 -15.973  -1.665  0.00  0.00     0.256 C 
ATOM      3  O   UNL d   1      25.625 -16.235  -2.841  0.00  0.00    -0.267 OA
ATOM      4  H   UNL d   1      25.341 -15.899   0.348  0.00  0.00     0.169 HD
ENDROOT
BRANCH   2   5
ATOM      5  C   UNL d   1      27.194 -15.378  -1.435  0.00  0.00     0.032 A 
ATOM      6  C   UNL d   1      28.068 -15.231  -2.526  0.00  0.00     0.017 A 
ATOM      7  C   UNL d   1      29.412 -14.900  -2.320  0.00  0.00     0.010 A 
ATOM      8  C   UNL d   1      29.887 -14.635  -1.022  0.00  0.00    -0.040 A 
ATOM      9  C   UNL d   1      29.001 -14.823   0.051  0.00  0.00     0.010 A 
ATOM     10  C   UNL d   1      27.669 -15.188  -0.145  0.00  0.00     0.017 A 
BRANCH   8  11
ATOM     11  C   UNL d   1      31.299 -14.118  -0.833  0.00  0.00     0.163 C 
BRANCH  11  12
ATOM     12  N   UNL d   1      31.411 -12.847  -0.135  0.00  0.00    -0.333 N 
ATOM     13  C   UNL d   1      31.312 -11.667  -0.802  0.00  0.00     0.361 C 
ATOM     14  O   UNL d   1      31.123 -11.613  -2.015  0.00  0.00    -0.238 OA
ATOM     15  H   UNL d   1      31.533 -12.780   0.861  0.00  0.00     0.165 HD
BRANCH  13  16
ATOM     16  O   UNL d   1      31.447 -10.595   0.037  0.00  0.00    -0.294 OA
BRANCH  16  17
ATOM     17  C   UNL d   1      30.235 -10.013   0.609  0.00  0.00     0.061 C 
ATOM     18  C   UNL d   1      29.618 -10.959   1.648  0.00  0.00     0.046 C 
ATOM     19  C   UNL d   1      30.530  -8.632   1.210  0.00  0.00     0.046 C 
ATOM     20  C   UNL d   1      29.180  -9.809  -0.503  0.00  0.00     0.046 C 
ENDBRANCH  16  17
ENDBRANCH  13  16
ENDBRANCH  11  12
ENDBRANCH   8  11
ENDBRANCH   2   5
BRANCH   1  21
ATOM     21  C   UNL d   1      23.722 -16.785  -0.650  0.00  0.00     0.036 A 
ATOM     22  C   UNL d   1      22.645 -16.072  -1.175  0.00  0.00     0.032 A 
ATOM     23  C   UNL d   1      21.356 -16.607  -1.271  0.00  0.00     0.035 A 
ATOM     24  C   UNL d   1      21.104 -17.912  -0.830  0.00  0.00     0.077 A 
ATOM     25  N   UNL d   1      19.882 -18.575  -0.900  0.00  0.00    -0.223 NA
ATOM     26  C   UNL d   1      22.169 -18.631  -0.278  0.00  0.00     0.039 A 
ATOM     27  C   UNL d   1      19.976 -19.725  -0.282  0.00  0.00     0.174 C 
ATOM     28  S   UNL d   1      21.552 -20.165   0.230  0.00  0.00    -0.050 SA
ATOM     29  C   UNL d   1      23.489 -18.097  -0.193  0.00  0.00     0.051 A 
BRANCH  27  30
ATOM     30  N   UNL d   1      18.926 -20.621  -0.163  0.00  0.00    -0.306 N 
ATOM     31  C   UNL d   1      18.525 -21.074   1.082  0.00  0.00     0.219 C 
ATOM     32  C   UNL d   1      17.280 -21.935   1.081  0.00  0.00     0.117 C 
ATOM     33  O   UNL d   1      19.072 -20.806   2.149  0.00  0.00    -0.274 OA
ATOM     34  H   UNL d   1      18.238 -20.564  -0.903  0.00  0.00     0.171 HD
ENDBRANCH  27  30
ENDBRANCH   1  21
TORSDOF 7
ENDMDL
MODEL 7
REMARK VINA RESULT:   -24.501      3.918      5.309
REMARK INTER + INTRA:         -27.758
REMARK INTER:                 -26.589
REMARK INTRA:                  -1.169
REMARK CONF_INDEPENDENT:        2.088
REMARK UNBOUND:                -1.169
REMARK  7 active torsions:
REMARK  status: ('A' for Active; 'I' for Inactive)
REMARK       I    between atoms: C_2  and  N_4 
REMARK    1  A    between atoms: N_4  and  C_5 
REMARK    2  A    between atoms: C_10  and  N_11 
REMARK       I    between atoms: N_11  and  C_12 
REMARK    3  A    between atoms: C_12  and  C_14 
REMARK    4  A    between atoms: C_17  and  C_18 
REMARK    5  A    between atoms: C_18  and  N_19 
REMARK       I    between atoms: N_19  and  C_20 
REMARK    6  A    between atoms: C_20  and  O_22 
REMARK    7  A    between atoms: O_22  and  C_23 
ROOT
ATOM      1  N   UNL d   1      24.873 -15.833  -0.795  0.00  0.00    -0.323 N 
ATOM      2  C   UNL d   1      25.580 -15.442  -1.935  0.00  0.00     0.256 C 
ATOM      3  O   UNL d   1      25.254 -15.618  -3.106  0.00  0.00    -0.267 OA
ATOM      4  H   UNL d   1      25.249 -15.585   0.113  0.00  0.00     0.169 HD
ENDROOT
BRANCH   2   5
ATOM      5  C   UNL d   1      26.882 -14.762  -1.768  0.00  0.00     0.032 A 
ATOM      6  C   UNL d   1      27.500 -14.785  -0.505  0.00  0.00     0.017 A 
ATOM      7  C   UNL d   1      28.602 -13.962  -0.239  0.00  0.00     0.010 A 
ATOM      8  C   UNL d   1      29.150 -13.159  -1.256  0.00  0.00    -0.040 A 
ATOM      9  C   UNL d   1      28.492 -13.132  -2.497  0.00  0.00     0.010 A 
ATOM     10  C   UNL d   1      27.371 -13.922  -2.757  0.00  0.00     0.017 A 
BRANCH   8  11
ATOM     11  C   UNL d   1      30.439 -12.404  -1.001  0.00  0.00     0.163 C 
BRANCH  11  12
ATOM     12  N   UNL d   1      30.661 -11.242  -1.845  0.00  0.00    -0.333 N 
ATOM     13  C   UNL d   1      30.211 -10.012  -1.481  0.00  0.00     0.361 C 
ATOM     14  O   UNL d   1      29.602  -9.820  -0.432  0.00  0.00    -0.238 OA
ATOM     15  H   UNL d   1      31.176 -11.284  -2.707  0.00  0.00     0.165 HD
BRANCH  13  16
ATOM     16  O   UNL d   1      30.522  -9.059  -2.413  0.00  0.00    -0.294 OA
BRANCH  16  17
ATOM     17  C   UNL d   1      29.537  -8.765  -3.451  0.00  0.00     0.061 C 
ATOM     18  C   UNL d   1      28.194  -8.364  -2.827  0.00  0.00     0.046 C 
ATOM     19  C   UNL d   1      30.062  -7.682  -4.403  0.00  0.00     0.046 C 
ATOM     20  C   UNL d   1      29.283 -10.033  -4.300  0.00  0.00     0.046 C 
ENDBRANCH  16  17
ENDBRANCH  13  16
ENDBRANCH  11  12
ENDBRANCH   8  11
ENDBRANCH   2   5
BRANCH   1  21
ATOM     21  C   UNL d   1      23.611 -16.509  -0.818  0.00  0.00     0.036 A 
ATOM     22  C   UNL d   1      22.450 -15.859  -1.235  0.00  0.00     0.032 A 
ATOM     23  C   UNL d   1      21.201 -16.486  -1.271  0.00  0.00     0.035 A 
ATOM     24  C   UNL d   1      21.077 -17.824  -0.876  0.00  0.00     0.077 A 
ATOM     25  N   UNL d   1      19.905 -18.575  -0.896  0.00  0.00    -0.223 NA
ATOM     26  C   UNL d   1      22.228 -18.482  -0.432  0.00  0.00     0.039 A 
ATOM     27  C   UNL d   1      20.126 -19.740  -0.341  0.00  0.00     0.174 C 
ATOM     28  S   UNL d   1      21.763 -20.080   0.043  0.00  0.00    -0.050 SA
ATOM     29  C   UNL d   1      23.507 -17.853  -0.410  0.00  0.00     0.051 A 
BRANCH  27  30
ATOM     30  N   UNL d   1      19.156 -20.717  -0.195  0.00  0.00    -0.306 N 
ATOM     31  C   UNL d   1      18.550 -20.931   1.032  0.00  0.00     0.219 C 
ATOM     32  C   UNL d   1      17.411 -21.927   1.021  0.00  0.00     0.117 C 
ATOM     33  O   UNL d   1      18.843 -20.361   2.080  0.00  0.00    -0.274 OA
ATOM     34  H   UNL d   1      18.631 -20.919  -1.036  0.00  0.00     0.171 HD
ENDBRANCH  27  30
ENDBRANCH   1  21
TORSDOF 7
ENDMDL
MODEL 8
REMARK VINA RESULT:   -24.430      2.916      3.348
REMARK INTER + INTRA:         -27.663
REMARK INTER:                 -26.518
REMARK INTRA:                  -1.145
REMARK CONF_INDEPENDENT:        2.088
REMARK UNBOUND:                -1.145
REMARK  7 active torsions:
REMARK  status: ('A' for Active; 'I' for Inactive)
REMARK       I    between atoms: C_2  and  N_4 
REMARK    1  A    between atoms: N_4  and  C_5 
REMARK    2  A    between atoms: C_10  and  N_11 
REMARK       I    between atoms: N_11  and  C_12 
REMARK    3  A    between atoms: C_12  and  C_14 
REMARK    4  A    between atoms: C_17  and  C_18 
REMARK    5  A    between atoms: C_18  and  N_19 
REMARK       I    between atoms: N_19  and  C_20 
REMARK    6  A    between atoms: C_20  and  O_22 
REMARK    7  A    between atoms: O_22  and  C_23 
ROOT
ATOM      1  N   UNL d   1      24.863 -15.843  -0.797  0.00  0.00    -0.323 N 
ATOM      2  C   UNL d   1      25.572 -15.456  -1.938  0.00  0.00     0.256 C 
ATOM      3  O   UNL d   1      25.246 -15.633  -3.108  0.00  0.00    -0.267 OA
ATOM      4  H   UNL d   1      25.239 -15.594   0.111  0.00  0.00     0.169 HD
ENDROOT
BRANCH   2   5
ATOM      5  C   UNL d   1      26.875 -14.779  -1.771  0.00  0.00     0.032 A 
ATOM      6  C   UNL d   1      26.983 -13.421  -2.117  0.00  0.00     0.017 A 
ATOM      7  C   UNL d   1      28.238 -12.807  -2.204  0.00  0.00     0.010 A 
ATOM      8  C   UNL d   1      29.403 -13.523  -1.871  0.00  0.00    -0.040 A 
ATOM      9  C   UNL d   1      29.269 -14.887  -1.562  0.00  0.00     0.010 A 
ATOM     10  C   UNL d   1      28.023 -15.513  -1.509  0.00  0.00     0.017 A 
BRANCH   8  11
ATOM     11  C   UNL d   1      30.734 -12.801  -1.809  0.00  0.00     0.163 C 
BRANCH  11  12
ATOM     12  N   UNL d   1      31.909 -13.639  -1.976  0.00  0.00    -0.333 N 
ATOM     13  C   UNL d   1      32.432 -13.881  -3.207  0.00  0.00     0.361 C 
ATOM     14  O   UNL d   1      31.946 -13.408  -4.231  0.00  0.00    -0.238 OA
ATOM     15  H   UNL d   1      32.403 -14.047  -1.201  0.00  0.00     0.165 HD
BRANCH  13  16
ATOM     16  O   UNL d   1      33.532 -14.692  -3.143  0.00  0.00    -0.294 OA
BRANCH  16  17
ATOM     17  C   UNL d   1      33.397 -16.072  -3.604  0.00  0.00     0.061 C 
ATOM     18  C   UNL d   1      32.888 -16.113  -5.051  0.00  0.00     0.046 C 
ATOM     19  C   UNL d   1      34.724 -16.826  -3.452  0.00  0.00     0.046 C 
ATOM     20  C   UNL d   1      32.352 -16.810  -2.735  0.00  0.00     0.046 C 
ENDBRANCH  16  17
ENDBRANCH  13  16
ENDBRANCH  11  12
ENDBRANCH   8  11
ENDBRANCH   2   5
BRANCH   1  21
ATOM     21  C   UNL d   1      23.601 -16.517  -0.820  0.00  0.00     0.036 A 
ATOM     22  C   UNL d   1      22.441 -15.864  -1.236  0.00  0.00     0.032 A 
ATOM     23  C   UNL d   1      21.190 -16.489  -1.270  0.00  0.00     0.035 A 
ATOM     24  C   UNL d   1      21.064 -17.826  -0.876  0.00  0.00     0.077 A 
ATOM     25  N   UNL d   1      19.890 -18.575  -0.895  0.00  0.00    -0.223 NA
ATOM     26  C   UNL d   1      22.213 -18.487  -0.433  0.00  0.00     0.039 A 
ATOM     27  C   UNL d   1      20.110 -19.740  -0.340  0.00  0.00     0.174 C 
ATOM     28  S   UNL d   1      21.745 -20.084   0.042  0.00  0.00    -0.050 SA
ATOM     29  C   UNL d   1      23.494 -17.861  -0.412  0.00  0.00     0.051 A 
BRANCH  27  30
ATOM     30  N   UNL d   1      19.138 -20.716  -0.194  0.00  0.00    -0.306 N 
ATOM     31  C   UNL d   1      18.528 -20.925   1.032  0.00  0.00     0.219 C 
ATOM     32  C   UNL d   1      17.387 -21.919   1.021  0.00  0.00     0.117 C 
ATOM     33  O   UNL d   1      18.818 -20.352   2.079  0.00  0.00    -0.274 OA
ATOM     34  H   UNL d   1      18.614 -20.920  -1.036  0.00  0.00     0.171 HD
ENDBRANCH  27  30
ENDBRANCH   1  21
TORSDOF 7
ENDMDL
