MODEL 1
REMARK VINA RESULT:    -8.056      0.000      0.000
REMARK INTER + INTRA:          -9.557
REMARK INTER:                  -9.249
REMARK INTRA:                  -0.307
REMARK CONF_INDEPENDENT:        1.193
REMARK UNBOUND:                -0.307
REMARK  4 active torsions:
REMARK  status: ('A' for Active; 'I' for Inactive)
REMARK    1  A    between atoms: C_2  and  C_3 
REMARK       I    between atoms: C_2  and  N_13 
REMARK    2  A    between atoms: C_3  and  C_4 
REMARK    3  A    between atoms: N_13  and  N_14 
REMARK    4  A    between atoms: N_14  and  C_15 
ROOT
ATOM      1  O   UNL d   1      25.172 -18.595   0.340  0.00  0.00    -0.272 OA
ATOM      2  C   UNL d   1      24.091 -18.118  -0.021  0.00  0.00     0.240 C 
ATOM      3  N   UNL d   1      22.965 -18.906   0.115  0.00  0.00    -0.269 N 
ATOM      4  H   UNL d   1      23.157 -19.876   0.354  0.00  0.00     0.190 HD
ENDROOT
BRANCH   2   5
ATOM      5  C   UNL d   1      23.932 -16.701  -0.566  0.00  0.00     0.143 C 
BRANCH   5   6
ATOM      6  C   UNL d   1      25.062 -16.211  -1.464  0.00  0.00    -0.049 A 
ATOM      7  C   UNL d   1      26.412 -16.482  -1.144  0.00  0.00     0.008 A 
ATOM      8  C   UNL d   1      27.463 -16.030  -1.951  0.00  0.00     0.008 A 
ATOM      9  C   UNL d   1      27.158 -15.298  -3.082  0.00  0.00    -0.052 A 
ATOM     10  C   UNL d   1      25.831 -14.999  -3.403  0.00  0.00    -0.051 A 
ATOM     11  C   UNL d   1      28.100 -14.702  -4.084  0.00  0.00     0.039 C 
ATOM     12  C   UNL d   1      24.780 -15.435  -2.604  0.00  0.00     0.015 A 
ATOM     13  C   UNL d   1      25.770 -14.159  -4.645  0.00  0.00     0.039 C 
ATOM     14  C   UNL d   1      27.150 -14.437  -5.261  0.00  0.00     0.009 C 
ENDBRANCH   5   6
ENDBRANCH   2   5
BRANCH   3  15
ATOM     15  N   UNL d   1      21.743 -18.645  -0.488  0.00  0.00    -0.298 N 
ATOM     16  H   UNL d   1      21.615 -17.869  -1.132  0.00  0.00     0.187 HD
BRANCH  15  17
ATOM     17  C   UNL d   1      20.608 -19.304   0.015  0.00  0.00     0.048 A 
ATOM     18  C   UNL d   1      20.477 -19.680   1.361  0.00  0.00     0.034 A 
ATOM     19  C   UNL d   1      19.377 -20.428   1.800  0.00  0.00     0.044 A 
ATOM     20  C   UNL d   1      18.405 -20.817   0.889  0.00  0.00     0.116 A 
ATOM     21  F   UNL d   1      17.367 -21.556   1.301  0.00  0.00    -0.206 F 
ATOM     22  C   UNL d   1      18.500 -20.450  -0.446  0.00  0.00     0.044 A 
ATOM     23  C   UNL d   1      19.594 -19.690  -0.878  0.00  0.00     0.034 A 
ENDBRANCH  15  17
ENDBRANCH   3  15
TORSDOF 4
ENDMDL
MODEL 2
REMARK VINA RESULT:    -7.526      3.359      8.774
REMARK INTER + INTRA:          -9.101
REMARK INTER:                  -8.719
REMARK INTRA:                  -0.381
REMARK CONF_INDEPENDENT:        1.193
REMARK UNBOUND:                -0.381
REMARK  4 active torsions:
REMARK  status: ('A' for Active; 'I' for Inactive)
REMARK    1  A    between atoms: C_2  and  C_3 
REMARK       I    between atoms: C_2  and  N_13 
REMARK    2  A    between atoms: C_3  and  C_4 
REMARK    3  A    between atoms: N_13  and  N_14 
REMARK    4  A    between atoms: N_14  and  C_15 
ROOT
ATOM      1  O   UNL d   1      24.036 -19.675  -0.535  0.00  0.00    -0.272 OA
ATOM      2  C   UNL d   1      23.744 -18.475  -0.515  0.00  0.00     0.240 C 
ATOM      3  N   UNL d   1      24.560 -17.604  -1.210  0.00  0.00    -0.269 N 
ATOM      4  H   UNL d   1      25.427 -18.018  -1.545  0.00  0.00     0.190 HD
ENDROOT
BRANCH   2   5
ATOM      5  C   UNL d   1      22.515 -17.916   0.198  0.00  0.00     0.143 C 
BRANCH   5   6
ATOM      6  C   UNL d   1      21.250 -18.759   0.088  0.00  0.00    -0.049 A 
ATOM      7  C   UNL d   1      20.605 -18.938  -1.156  0.00  0.00     0.008 A 
ATOM      8  C   UNL d   1      19.436 -19.700  -1.274  0.00  0.00     0.008 A 
ATOM      9  C   UNL d   1      18.909 -20.281  -0.137  0.00  0.00    -0.052 A 
ATOM     10  C   UNL d   1      19.520 -20.096   1.108  0.00  0.00    -0.051 A 
ATOM     11  C   UNL d   1      17.675 -21.120  -0.009  0.00  0.00     0.039 C 
ATOM     12  C   UNL d   1      20.676 -19.334   1.237  0.00  0.00     0.015 A 
ATOM     13  C   UNL d   1      18.734 -20.786   2.183  0.00  0.00     0.039 C 
ATOM     14  C   UNL d   1      17.909 -21.784   1.356  0.00  0.00     0.009 C 
ENDBRANCH   5   6
ENDBRANCH   2   5
BRANCH   3  15
ATOM     15  N   UNL d   1      24.546 -16.224  -1.063  0.00  0.00    -0.298 N 
ATOM     16  H   UNL d   1      23.952 -15.761  -0.381  0.00  0.00     0.187 HD
BRANCH  15  17
ATOM     17  C   UNL d   1      25.162 -15.452  -2.063  0.00  0.00     0.048 A 
ATOM     18  C   UNL d   1      24.474 -14.488  -2.817  0.00  0.00     0.034 A 
ATOM     19  C   UNL d   1      25.100 -13.814  -3.874  0.00  0.00     0.044 A 
ATOM     20  C   UNL d   1      26.417 -14.112  -4.193  0.00  0.00     0.116 A 
ATOM     21  F   UNL d   1      27.009 -13.489  -5.220  0.00  0.00    -0.206 F 
ATOM     22  C   UNL d   1      27.128 -15.051  -3.458  0.00  0.00     0.044 A 
ATOM     23  C   UNL d   1      26.503 -15.711  -2.392  0.00  0.00     0.034 A 
ENDBRANCH  15  17
ENDBRANCH   3  15
TORSDOF 4
ENDMDL
MODEL 3
REMARK VINA RESULT:    -7.283      6.180      8.698
REMARK INTER + INTRA:          -8.913
REMARK INTER:                  -8.476
REMARK INTRA:                  -0.437
REMARK CONF_INDEPENDENT:        1.193
REMARK UNBOUND:                -0.437
REMARK  4 active torsions:
REMARK  status: ('A' for Active; 'I' for Inactive)
REMARK    1  A    between atoms: C_2  and  C_3 
REMARK       I    between atoms: C_2  and  N_13 
REMARK    2  A    between atoms: C_3  and  C_4 
REMARK    3  A    between atoms: N_13  and  N_14 
REMARK    4  A    between atoms: N_14  and  C_15 
ROOT
ATOM      1  O   UNL d   1      27.214 -12.990   0.021  0.00  0.00    -0.272 OA
ATOM      2  C   UNL d   1      27.612 -13.903   0.751  0.00  0.00     0.240 C 
ATOM      3  N   UNL d   1      27.683 -13.656   2.107  0.00  0.00    -0.269 N 
ATOM      4  H   UNL d   1      27.551 -12.680   2.364  0.00  0.00     0.190 HD
ENDROOT
BRANCH   2   5
ATOM      5  C   UNL d   1      27.987 -15.292   0.239  0.00  0.00     0.143 C 
BRANCH   5   6
ATOM      6  C   UNL d   1      26.832 -16.277   0.101  0.00  0.00    -0.049 A 
ATOM      7  C   UNL d   1      27.021 -17.654   0.355  0.00  0.00     0.008 A 
ATOM      8  C   UNL d   1      25.975 -18.576   0.223  0.00  0.00     0.008 A 
ATOM      9  C   UNL d   1      24.734 -18.112  -0.169  0.00  0.00    -0.052 A 
ATOM     10  C   UNL d   1      24.532 -16.757  -0.448  0.00  0.00    -0.051 A 
ATOM     11  C   UNL d   1      23.477 -18.898  -0.389  0.00  0.00     0.039 C 
ATOM     12  C   UNL d   1      25.567 -15.835  -0.329  0.00  0.00     0.015 A 
ATOM     13  C   UNL d   1      23.121 -16.519  -0.896  0.00  0.00     0.039 C 
ATOM     14  C   UNL d   1      22.423 -17.781  -0.364  0.00  0.00     0.009 C 
ENDBRANCH   5   6
ENDBRANCH   2   5
BRANCH   3  15
ATOM     15  N   UNL d   1      28.361 -14.453   3.020  0.00  0.00    -0.298 N 
ATOM     16  H   UNL d   1      28.690 -15.384   2.781  0.00  0.00     0.187 HD
BRANCH  15  17
ATOM     17  C   UNL d   1      28.348 -14.062   4.369  0.00  0.00     0.048 A 
ATOM     18  C   UNL d   1      27.768 -12.862   4.812  0.00  0.00     0.034 A 
ATOM     19  C   UNL d   1      27.869 -12.460   6.150  0.00  0.00     0.044 A 
ATOM     20  C   UNL d   1      28.564 -13.252   7.054  0.00  0.00     0.116 A 
ATOM     21  F   UNL d   1      28.685 -12.856   8.327  0.00  0.00    -0.206 F 
ATOM     22  C   UNL d   1      29.137 -14.450   6.649  0.00  0.00     0.044 A 
ATOM     23  C   UNL d   1      29.022 -14.855   5.314  0.00  0.00     0.034 A 
ENDBRANCH  15  17
ENDBRANCH   3  15
TORSDOF 4
ENDMDL
MODEL 4
REMARK VINA RESULT:    -7.178      3.739      8.629
REMARK INTER + INTRA:          -8.830
REMARK INTER:                  -8.371
REMARK INTRA:                  -0.459
REMARK CONF_INDEPENDENT:        1.193
REMARK UNBOUND:                -0.459
REMARK  4 active torsions:
REMARK  status: ('A' for Active; 'I' for Inactive)
REMARK    1  A    between atoms: C_2  and  C_3 
REMARK       I    between atoms: C_2  and  N_13 
REMARK    2  A    between atoms: C_3  and  C_4 
REMARK    3  A    between atoms: N_13  and  N_14 
REMARK    4  A    between atoms: N_14  and  C_15 
ROOT
ATOM      1  O   UNL d   1      22.115 -15.712  -0.870  0.00  0.00    -0.272 OA
ATOM      2  C   UNL d   1      23.084 -16.476  -0.918  0.00  0.00     0.240 C 
ATOM      3  N   UNL d   1      24.171 -16.088  -1.676  0.00  0.00    -0.269 N 
ATOM      4  H   UNL d   1      24.005 -15.271  -2.260  0.00  0.00     0.190 HD
ENDROOT
BRANCH   2   5
ATOM      5  C   UNL d   1      23.158 -17.798  -0.156  0.00  0.00     0.143 C 
BRANCH   5   6
ATOM      6  C   UNL d   1      21.863 -18.600  -0.103  0.00  0.00    -0.049 A 
ATOM      7  C   UNL d   1      21.186 -18.964  -1.288  0.00  0.00     0.008 A 
ATOM      8  C   UNL d   1      19.990 -19.691  -1.258  0.00  0.00     0.008 A 
ATOM      9  C   UNL d   1      19.468 -20.050  -0.030  0.00  0.00    -0.052 A 
ATOM     10  C   UNL d   1      20.110 -19.679   1.156  0.00  0.00    -0.051 A 
ATOM     11  C   UNL d   1      18.209 -20.810   0.257  0.00  0.00     0.039 C 
ATOM     12  C   UNL d   1      21.293 -18.950   1.136  0.00  0.00     0.015 A 
ATOM     13  C   UNL d   1      19.323 -20.146   2.344  0.00  0.00     0.039 C 
ATOM     14  C   UNL d   1      18.448 -21.240   1.711  0.00  0.00     0.009 C 
ENDBRANCH   5   6
ENDBRANCH   2   5
BRANCH   3  15
ATOM     15  N   UNL d   1      25.203 -16.930  -2.064  0.00  0.00    -0.298 N 
ATOM     16  H   UNL d   1      25.030 -17.809  -2.542  0.00  0.00     0.187 HD
BRANCH  15  17
ATOM     17  C   UNL d   1      26.484 -16.681  -1.542  0.00  0.00     0.048 A 
ATOM     18  C   UNL d   1      26.880 -17.093  -0.260  0.00  0.00     0.034 A 
ATOM     19  C   UNL d   1      28.130 -16.734   0.262  0.00  0.00     0.044 A 
ATOM     20  C   UNL d   1      28.988 -15.947  -0.493  0.00  0.00     0.116 A 
ATOM     21  F   UNL d   1      30.171 -15.579   0.015  0.00  0.00    -0.206 F 
ATOM     22  C   UNL d   1      28.630 -15.535  -1.770  0.00  0.00     0.044 A 
ATOM     23  C   UNL d   1      27.386 -15.908  -2.293  0.00  0.00     0.034 A 
ENDBRANCH  15  17
ENDBRANCH   3  15
TORSDOF 4
ENDMDL
MODEL 5
REMARK VINA RESULT:    -6.970      5.721      9.373
REMARK INTER + INTRA:          -8.527
REMARK INTER:                  -8.163
REMARK INTRA:                  -0.364
REMARK CONF_INDEPENDENT:        1.193
REMARK UNBOUND:                -0.364
REMARK  4 active torsions:
REMARK  status: ('A' for Active; 'I' for Inactive)
REMARK    1  A    between atoms: C_2  and  C_3 
REMARK       I    between atoms: C_2  and  N_13 
REMARK    2  A    between atoms: C_3  and  C_4 
REMARK    3  A    between atoms: N_13  and  N_14 
REMARK    4  A    between atoms: N_14  and  C_15 
ROOT
ATOM      1  O   UNL d   1      25.150 -14.812  -5.005  0.00  0.00    -0.272 OA
ATOM      2  C   UNL d   1      25.684 -14.009  -4.232  0.00  0.00     0.240 C 
ATOM      3  N   UNL d   1      25.288 -12.688  -4.305  0.00  0.00    -0.269 N 
ATOM      4  H   UNL d   1      24.703 -12.469  -5.108  0.00  0.00     0.190 HD
ENDROOT
BRANCH   2   5
ATOM      5  C   UNL d   1      26.719 -14.407  -3.182  0.00  0.00     0.143 C 
BRANCH   5   6
ATOM      6  C   UNL d   1      26.254 -15.431  -2.154  0.00  0.00    -0.049 A 
ATOM      7  C   UNL d   1      27.093 -15.818  -1.085  0.00  0.00     0.008 A 
ATOM      8  C   UNL d   1      26.687 -16.765  -0.138  0.00  0.00     0.008 A 
ATOM      9  C   UNL d   1      25.433 -17.330  -0.266  0.00  0.00    -0.052 A 
ATOM     10  C   UNL d   1      24.596 -16.979  -1.330  0.00  0.00    -0.051 A 
ATOM     11  C   UNL d   1      24.787 -18.363   0.606  0.00  0.00     0.039 C 
ATOM     12  C   UNL d   1      24.994 -16.045  -2.281  0.00  0.00     0.015 A 
ATOM     13  C   UNL d   1      23.319 -17.761  -1.270  0.00  0.00     0.039 C 
ATOM     14  C   UNL d   1      23.314 -18.214   0.199  0.00  0.00     0.009 C 
ENDBRANCH   5   6
ENDBRANCH   2   5
BRANCH   3  15
ATOM     15  N   UNL d   1      25.970 -11.628  -3.725  0.00  0.00    -0.298 N 
ATOM     16  H   UNL d   1      26.485 -11.730  -2.855  0.00  0.00     0.187 HD
BRANCH  15  17
ATOM     17  C   UNL d   1      25.712 -10.335  -4.213  0.00  0.00     0.048 A 
ATOM     18  C   UNL d   1      25.532  -9.223  -3.375  0.00  0.00     0.034 A 
ATOM     19  C   UNL d   1      25.172  -7.974  -3.897  0.00  0.00     0.044 A 
ATOM     20  C   UNL d   1      24.977  -7.833  -5.264  0.00  0.00     0.116 A 
ATOM     21  F   UNL d   1      24.607  -6.646  -5.763  0.00  0.00    -0.206 F 
ATOM     22  C   UNL d   1      25.160  -8.910  -6.120  0.00  0.00     0.044 A 
ATOM     23  C   UNL d   1      25.533 -10.154  -5.595  0.00  0.00     0.034 A 
ENDBRANCH  15  17
ENDBRANCH   3  15
TORSDOF 4
ENDMDL
MODEL 6
REMARK VINA RESULT:    -6.790      5.776      9.659
REMARK INTER + INTRA:          -8.469
REMARK INTER:                  -7.983
REMARK INTRA:                  -0.486
REMARK CONF_INDEPENDENT:        1.193
REMARK UNBOUND:                -0.486
REMARK  4 active torsions:
REMARK  status: ('A' for Active; 'I' for Inactive)
REMARK    1  A    between atoms: C_2  and  C_3 
REMARK       I    between atoms: C_2  and  N_13 
REMARK    2  A    between atoms: C_3  and  C_4 
REMARK    3  A    between atoms: N_13  and  N_14 
REMARK    4  A    between atoms: N_14  and  C_15 
ROOT
ATOM      1  O   UNL d   1      24.149 -14.075  -4.264  0.00  0.00    -0.272 OA
ATOM      2  C   UNL d   1      25.329 -13.710  -4.267  0.00  0.00     0.240 C 
ATOM      3  N   UNL d   1      25.587 -12.372  -4.488  0.00  0.00    -0.269 N 
ATOM      4  H   UNL d   1      24.779 -11.833  -4.792  0.00  0.00     0.190 HD
ENDROOT
BRANCH   2   5
ATOM      5  C   UNL d   1      26.504 -14.648  -4.000  0.00  0.00     0.143 C 
BRANCH   5   6
ATOM      6  C   UNL d   1      26.357 -15.560  -2.787  0.00  0.00    -0.049 A 
ATOM      7  C   UNL d   1      27.435 -15.759  -1.895  0.00  0.00     0.008 A 
ATOM      8  C   UNL d   1      27.321 -16.601  -0.782  0.00  0.00     0.008 A 
ATOM      9  C   UNL d   1      26.121 -17.250  -0.566  0.00  0.00    -0.052 A 
ATOM     10  C   UNL d   1      25.050 -17.084  -1.450  0.00  0.00    -0.051 A 
ATOM     11  C   UNL d   1      25.765 -18.200   0.536  0.00  0.00     0.039 C 
ATOM     12  C   UNL d   1      25.155 -16.258  -2.563  0.00  0.00     0.015 A 
ATOM     13  C   UNL d   1      23.885 -17.926  -1.022  0.00  0.00     0.039 C 
ATOM     14  C   UNL d   1      24.232 -18.189   0.451  0.00  0.00     0.009 C 
ENDBRANCH   5   6
ENDBRANCH   2   5
BRANCH   3  15
ATOM     15  N   UNL d   1      26.835 -11.851  -4.802  0.00  0.00    -0.298 N 
ATOM     16  H   UNL d   1      27.310 -11.190  -4.194  0.00  0.00     0.187 HD
BRANCH  15  17
ATOM     17  C   UNL d   1      27.315 -12.038  -6.109  0.00  0.00     0.048 A 
ATOM     18  C   UNL d   1      28.312 -12.972  -6.431  0.00  0.00     0.034 A 
ATOM     19  C   UNL d   1      28.837 -13.053  -7.727  0.00  0.00     0.044 A 
ATOM     20  C   UNL d   1      28.374 -12.189  -8.710  0.00  0.00     0.116 A 
ATOM     21  F   UNL d   1      28.893 -12.247  -9.943  0.00  0.00    -0.206 F 
ATOM     22  C   UNL d   1      27.379 -11.264  -8.426  0.00  0.00     0.044 A 
ATOM     23  C   UNL d   1      26.847 -11.196  -7.132  0.00  0.00     0.034 A 
ENDBRANCH  15  17
ENDBRANCH   3  15
TORSDOF 4
ENDMDL
MODEL 7
REMARK VINA RESULT:    -6.461      4.860      7.930
REMARK INTER + INTRA:          -8.532
REMARK INTER:                  -7.654
REMARK INTRA:                  -0.878
REMARK CONF_INDEPENDENT:        1.193
REMARK UNBOUND:                -0.878
REMARK  4 active torsions:
REMARK  status: ('A' for Active; 'I' for Inactive)
REMARK    1  A    between atoms: C_2  and  C_3 
REMARK       I    between atoms: C_2  and  N_13 
REMARK    2  A    between atoms: C_3  and  C_4 
REMARK    3  A    between atoms: N_13  and  N_14 
REMARK    4  A    between atoms: N_14  and  C_15 
ROOT
ATOM      1  O   UNL d   1      29.571 -16.968  -2.113  0.00  0.00    -0.272 OA
ATOM      2  C   UNL d   1      29.164 -16.715  -0.974  0.00  0.00     0.240 C 
ATOM      3  N   UNL d   1      29.577 -15.534  -0.391  0.00  0.00    -0.269 N 
ATOM      4  H   UNL d   1      30.316 -15.051  -0.898  0.00  0.00     0.190 HD
ENDROOT
BRANCH   2   5
ATOM      5  C   UNL d   1      28.203 -17.616  -0.201  0.00  0.00     0.143 C 
BRANCH   5   6
ATOM      6  C   UNL d   1      26.721 -17.330  -0.410  0.00  0.00    -0.049 A 
ATOM      7  C   UNL d   1      26.283 -16.062  -0.854  0.00  0.00     0.008 A 
ATOM      8  C   UNL d   1      24.924 -15.778  -1.040  0.00  0.00     0.008 A 
ATOM      9  C   UNL d   1      24.001 -16.771  -0.775  0.00  0.00    -0.052 A 
ATOM     10  C   UNL d   1      24.412 -18.024  -0.312  0.00  0.00    -0.051 A 
ATOM     11  C   UNL d   1      22.508 -16.703  -0.886  0.00  0.00     0.039 C 
ATOM     12  C   UNL d   1      25.758 -18.314  -0.115  0.00  0.00     0.015 A 
ATOM     13  C   UNL d   1      23.224 -18.903  -0.057  0.00  0.00     0.039 C 
ATOM     14  C   UNL d   1      22.145 -18.195  -0.891  0.00  0.00     0.009 C 
ENDBRANCH   5   6
ENDBRANCH   2   5
BRANCH   3  15
ATOM     15  N   UNL d   1      29.451 -15.233   0.958  0.00  0.00    -0.298 N 
ATOM     16  H   UNL d   1      29.777 -15.866   1.683  0.00  0.00     0.187 HD
BRANCH  15  17
ATOM     17  C   UNL d   1      28.615 -14.162   1.316  0.00  0.00     0.048 A 
ATOM     18  C   UNL d   1      27.935 -14.100   2.542  0.00  0.00     0.034 A 
ATOM     19  C   UNL d   1      27.030 -13.067   2.817  0.00  0.00     0.044 A 
ATOM     20  C   UNL d   1      26.789 -12.093   1.858  0.00  0.00     0.116 A 
ATOM     21  F   UNL d   1      25.904 -11.119   2.107  0.00  0.00    -0.206 F 
ATOM     22  C   UNL d   1      27.455 -12.120   0.640  0.00  0.00     0.044 A 
ATOM     23  C   UNL d   1      28.370 -13.146   0.376  0.00  0.00     0.034 A 
ENDBRANCH  15  17
ENDBRANCH   3  15
TORSDOF 4
ENDMDL
MODEL 8
REMARK VINA RESULT:    -6.102      4.496      7.472
REMARK INTER + INTRA:          -8.489
REMARK INTER:                  -7.295
REMARK INTRA:                  -1.193
REMARK CONF_INDEPENDENT:        1.193
REMARK UNBOUND:                -1.193
REMARK  4 active torsions:
REMARK  status: ('A' for Active; 'I' for Inactive)
REMARK    1  A    between atoms: C_2  and  C_3 
REMARK       I    between atoms: C_2  and  N_13 
REMARK    2  A    between atoms: C_3  and  C_4 
REMARK    3  A    between atoms: N_13  and  N_14 
REMARK    4  A    between atoms: N_14  and  C_15 
ROOT
ATOM      1  O   UNL d   1      26.852 -13.378   1.493  0.00  0.00    -0.272 OA
ATOM      2  C   UNL d   1      27.523 -13.748   0.524  0.00  0.00     0.240 C 
ATOM      3  N   UNL d   1      27.899 -12.793  -0.399  0.00  0.00    -0.269 N 
ATOM      4  H   UNL d   1      27.446 -11.890  -0.277  0.00  0.00     0.190 HD
ENDROOT
BRANCH   2   5
ATOM      5  C   UNL d   1      27.989 -15.188   0.320  0.00  0.00     0.143 C 
BRANCH   5   6
ATOM      6  C   UNL d   1      26.882 -16.217   0.129  0.00  0.00    -0.049 A 
ATOM      7  C   UNL d   1      27.119 -17.590   0.368  0.00  0.00     0.008 A 
ATOM      8  C   UNL d   1      26.117 -18.551   0.187  0.00  0.00     0.008 A 
ATOM      9  C   UNL d   1      24.872 -18.133  -0.240  0.00  0.00    -0.052 A 
ATOM     10  C   UNL d   1      24.623 -16.782  -0.504  0.00  0.00    -0.051 A 
ATOM     11  C   UNL d   1      23.657 -18.966  -0.513  0.00  0.00     0.039 C 
ATOM     12  C   UNL d   1      25.614 -15.821  -0.336  0.00  0.00     0.015 A 
ATOM     13  C   UNL d   1      23.219 -16.596  -0.996  0.00  0.00     0.039 C 
ATOM     14  C   UNL d   1      22.557 -17.894  -0.507  0.00  0.00     0.009 C 
ENDBRANCH   5   6
ENDBRANCH   2   5
BRANCH   3  15
ATOM     15  N   UNL d   1      28.399 -13.072  -1.663  0.00  0.00    -0.298 N 
ATOM     16  H   UNL d   1      29.228 -12.611  -2.028  0.00  0.00     0.187 HD
BRANCH  15  17
ATOM     17  C   UNL d   1      27.584 -13.802  -2.545  0.00  0.00     0.048 A 
ATOM     18  C   UNL d   1      28.068 -14.853  -3.340  0.00  0.00     0.034 A 
ATOM     19  C   UNL d   1      27.247 -15.486  -4.282  0.00  0.00     0.044 A 
ATOM     20  C   UNL d   1      25.935 -15.061  -4.443  0.00  0.00     0.116 A 
ATOM     21  F   UNL d   1      25.156 -15.646  -5.362  0.00  0.00    -0.206 F 
ATOM     22  C   UNL d   1      25.424 -14.033  -3.663  0.00  0.00     0.044 A 
ATOM     23  C   UNL d   1      26.244 -13.413  -2.713  0.00  0.00     0.034 A 
ENDBRANCH  15  17
ENDBRANCH   3  15
TORSDOF 4
ENDMDL
MODEL 9
REMARK VINA RESULT:    -5.983      4.573      7.378
REMARK INTER + INTRA:          -8.391
REMARK INTER:                  -7.176
REMARK INTRA:                  -1.215
REMARK CONF_INDEPENDENT:        1.193
REMARK UNBOUND:                -1.215
REMARK  4 active torsions:
REMARK  status: ('A' for Active; 'I' for Inactive)
REMARK    1  A    between atoms: C_2  and  C_3 
REMARK       I    between atoms: C_2  and  N_13 
REMARK    2  A    between atoms: C_3  and  C_4 
REMARK    3  A    between atoms: N_13  and  N_14 
REMARK    4  A    between atoms: N_14  and  C_15 
ROOT
ATOM      1  O   UNL d   1      30.223 -17.822  -2.189  0.00  0.00    -0.272 OA
ATOM      2  C   UNL d   1      29.606 -16.753  -2.126  0.00  0.00     0.240 C 
ATOM      3  N   UNL d   1      29.521 -15.992  -3.275  0.00  0.00    -0.269 N 
ATOM      4  H   UNL d   1      30.119 -16.310  -4.035  0.00  0.00     0.190 HD
ENDROOT
BRANCH   2   5
ATOM      5  C   UNL d   1      28.904 -16.256  -0.865  0.00  0.00     0.143 C 
BRANCH   5   6
ATOM      6  C   UNL d   1      27.519 -16.838  -0.609  0.00  0.00    -0.049 A 
ATOM      7  C   UNL d   1      27.358 -18.018   0.151  0.00  0.00     0.008 A 
ATOM      8  C   UNL d   1      26.095 -18.574   0.387  0.00  0.00     0.008 A 
ATOM      9  C   UNL d   1      24.987 -17.942  -0.146  0.00  0.00    -0.052 A 
ATOM     10  C   UNL d   1      25.127 -16.786  -0.920  0.00  0.00    -0.051 A 
ATOM     11  C   UNL d   1      23.549 -18.348  -0.042  0.00  0.00     0.039 C 
ATOM     12  C   UNL d   1      26.378 -16.232  -1.168  0.00  0.00     0.015 A 
ATOM     13  C   UNL d   1      23.789 -16.325  -1.417  0.00  0.00     0.039 C 
ATOM     14  C   UNL d   1      22.845 -17.042  -0.439  0.00  0.00     0.009 C 
ENDBRANCH   5   6
ENDBRANCH   2   5
BRANCH   3  15
ATOM     15  N   UNL d   1      29.122 -14.663  -3.313  0.00  0.00    -0.298 N 
ATOM     16  H   UNL d   1      29.726 -13.911  -2.994  0.00  0.00     0.187 HD
BRANCH  15  17
ATOM     17  C   UNL d   1      27.763 -14.392  -3.544  0.00  0.00     0.048 A 
ATOM     18  C   UNL d   1      27.045 -13.419  -2.832  0.00  0.00     0.034 A 
ATOM     19  C   UNL d   1      25.667 -13.253  -3.020  0.00  0.00     0.044 A 
ATOM     20  C   UNL d   1      24.994 -14.072  -3.916  0.00  0.00     0.116 A 
ATOM     21  F   UNL d   1      23.672 -13.933  -4.077  0.00  0.00    -0.206 F 
ATOM     22  C   UNL d   1      25.678 -15.035  -4.645  0.00  0.00     0.044 A 
ATOM     23  C   UNL d   1      27.058 -15.187  -4.464  0.00  0.00     0.034 A 
ENDBRANCH  15  17
ENDBRANCH   3  15
TORSDOF 4
ENDMDL
