MODEL 1
REMARK VINA RESULT:    -7.598      0.000      0.000
REMARK INTER + INTRA:         -10.213
REMARK INTER:                  -9.387
REMARK INTRA:                  -0.825
REMARK CONF_INDEPENDENT:        1.790
REMARK UNBOUND:                -0.825
REMARK  6 active torsions:
REMARK  status: ('A' for Active; 'I' for Inactive)
REMARK    1  A    between atoms: S_2  and  C_3 
REMARK    2  A    between atoms: C_7  and  N_8 
REMARK       I    between atoms: N_8  and  C_9 
REMARK    3  A    between atoms: C_9  and  C_11 
REMARK    4  A    between atoms: C_11  and  N_13 
REMARK    5  A    between atoms: N_13  and  C_14 
REMARK    6  A    between atoms: C_19  and  C_20 
REMARK       I    between atoms: C_20  and  N_21 
ROOT
ATOM      1  C   UNL d   1      29.074 -14.442   2.698  0.00  0.00     0.170 C 
ATOM      2  C   UNL d   1      29.480 -12.982   2.679  0.00  0.00     0.042 C 
ENDROOT
BRANCH   1   3
ATOM      3  C   UNL d   1      27.884 -14.636   1.727  0.00  0.00     0.244 C 
ATOM      4  N   UNL d   1      27.917 -15.761   0.897  0.00  0.00    -0.325 N 
ATOM      5  H   UNL d   1      28.683 -16.418   0.991  0.00  0.00     0.169 HD
ATOM      6  O   UNL d   1      26.977 -13.800   1.763  0.00  0.00    -0.271 OA
BRANCH   4   7
ATOM      7  C   UNL d   1      26.911 -16.088  -0.055  0.00  0.00     0.036 A 
ATOM      8  C   UNL d   1      26.917 -15.507  -1.329  0.00  0.00     0.029 A 
ATOM      9  C   UNL d   1      25.943 -15.881  -2.272  0.00  0.00     0.004 A 
ATOM     10  C   UNL d   1      24.956 -16.818  -1.948  0.00  0.00     0.018 A 
ATOM     11  C   UNL d   1      24.985 -17.446  -0.711  0.00  0.00     0.002 A 
ATOM     12  C   UNL d   1      25.919 -17.030   0.231  0.00  0.00     0.048 A 
BRANCH  11  13
ATOM     13  S   UNL d   1      23.902 -18.806  -0.312  0.00  0.00    -0.134 SA
ATOM     14  C   UNL d   1      22.284 -17.994  -0.566  0.00  0.00     0.095 C 
ENDBRANCH  11  13
ENDBRANCH   4   7
ENDBRANCH   1   3
BRANCH   1  15
ATOM     15  N   UNL d   1      28.616 -14.872   4.039  0.00  0.00    -0.377 N 
ATOM     16  H   UNL d   1      28.438 -15.879   4.105  0.00  0.00     0.160 HD
BRANCH  15  17
ATOM     17  C   UNL d   1      28.648 -14.149   5.207  0.00  0.00     0.029 A 
ATOM     18  C   UNL d   1      27.717 -13.140   5.435  0.00  0.00     0.029 A 
ATOM     19  C   UNL d   1      27.770 -12.375   6.603  0.00  0.00     0.010 A 
ATOM     20  C   UNL d   1      28.688 -12.665   7.629  0.00  0.00    -0.046 A 
ATOM     21  C   UNL d   1      28.561 -11.895   8.901  0.00  0.00     0.049 C 
ATOM     22  C   UNL d   1      29.646 -13.667   7.423  0.00  0.00     0.039 A 
ATOM     23  C   UNL d   1      29.602 -14.369   6.205  0.00  0.00     0.046 A 
BRANCH  22  24
ATOM     24  C   UNL d   1      30.764 -14.065   8.352  0.00  0.00     0.249 C 
ATOM     25  N   UNL d   1      32.053 -13.700   8.105  0.00  0.00    -0.366 N 
ATOM     26  H   UNL d   1      32.381 -13.126   7.351  0.00  0.00     0.159 HD
ATOM     27  H   UNL d   1      32.764 -14.021   8.748  0.00  0.00     0.159 HD
ATOM     28  O   UNL d   1      30.545 -14.742   9.363  0.00  0.00    -0.268 OA
ENDBRANCH  22  24
ENDBRANCH  15  17
ENDBRANCH   1  15
TORSDOF 6
ENDMDL
MODEL 2
REMARK VINA RESULT:    -7.464      6.928      9.114
REMARK INTER + INTRA:         -10.569
REMARK INTER:                  -9.254
REMARK INTRA:                  -1.315
REMARK CONF_INDEPENDENT:        1.790
REMARK UNBOUND:                -1.315
REMARK  6 active torsions:
REMARK  status: ('A' for Active; 'I' for Inactive)
REMARK    1  A    between atoms: S_2  and  C_3 
REMARK    2  A    between atoms: C_7  and  N_8 
REMARK       I    between atoms: N_8  and  C_9 
REMARK    3  A    between atoms: C_9  and  C_11 
REMARK    4  A    between atoms: C_11  and  N_13 
REMARK    5  A    between atoms: N_13  and  C_14 
REMARK    6  A    between atoms: C_19  and  C_20 
REMARK       I    between atoms: C_20  and  N_21 
ROOT
ATOM      1  C   UNL d   1      26.488 -14.018  -4.418  0.00  0.00     0.170 C 
ATOM      2  C   UNL d   1      27.058 -14.951  -5.467  0.00  0.00     0.042 C 
ENDROOT
BRANCH   1   3
ATOM      3  C   UNL d   1      25.621 -14.847  -3.439  0.00  0.00     0.244 C 
ATOM      4  N   UNL d   1      26.285 -15.767  -2.623  0.00  0.00    -0.325 N 
ATOM      5  H   UNL d   1      27.295 -15.826  -2.672  0.00  0.00     0.169 HD
ATOM      6  O   UNL d   1      24.406 -14.626  -3.427  0.00  0.00    -0.271 OA
BRANCH   4   7
ATOM      7  C   UNL d   1      25.643 -16.611  -1.674  0.00  0.00     0.036 A 
ATOM      8  C   UNL d   1      26.370 -17.195  -0.630  0.00  0.00     0.029 A 
ATOM      9  C   UNL d   1      25.708 -17.985   0.327  0.00  0.00     0.004 A 
ATOM     10  C   UNL d   1      24.329 -18.209   0.239  0.00  0.00     0.018 A 
ATOM     11  C   UNL d   1      23.593 -17.579  -0.753  0.00  0.00     0.002 A 
ATOM     12  C   UNL d   1      24.266 -16.844  -1.724  0.00  0.00     0.048 A 
BRANCH  11  13
ATOM     13  S   UNL d   1      21.811 -17.634  -0.793  0.00  0.00    -0.134 SA
ATOM     14  C   UNL d   1      21.542 -19.324  -0.150  0.00  0.00     0.095 C 
ENDBRANCH  11  13
ENDBRANCH   4   7
ENDBRANCH   1   3
BRANCH   1  15
ATOM     15  N   UNL d   1      25.609 -12.987  -5.014  0.00  0.00    -0.377 N 
ATOM     16  H   UNL d   1      24.682 -13.340  -5.270  0.00  0.00     0.160 HD
BRANCH  15  17
ATOM     17  C   UNL d   1      25.801 -11.626  -5.025  0.00  0.00     0.029 A 
ATOM     18  C   UNL d   1      25.900 -10.940  -6.231  0.00  0.00     0.029 A 
ATOM     19  C   UNL d   1      26.137  -9.563  -6.248  0.00  0.00     0.010 A 
ATOM     20  C   UNL d   1      26.175  -8.810  -5.060  0.00  0.00    -0.046 A 
ATOM     21  C   UNL d   1      26.274  -7.327  -5.190  0.00  0.00     0.049 C 
ATOM     22  C   UNL d   1      26.091  -9.475  -3.829  0.00  0.00     0.039 A 
ATOM     23  C   UNL d   1      25.921 -10.871  -3.854  0.00  0.00     0.046 A 
BRANCH  22  24
ATOM     24  C   UNL d   1      26.201  -8.867  -2.454  0.00  0.00     0.249 C 
ATOM     25  N   UNL d   1      25.253  -8.012  -1.980  0.00  0.00    -0.366 N 
ATOM     26  H   UNL d   1      24.405  -7.741  -2.440  0.00  0.00     0.159 HD
ATOM     27  H   UNL d   1      25.396  -7.615  -1.062  0.00  0.00     0.159 HD
ATOM     28  O   UNL d   1      27.162  -9.121  -1.719  0.00  0.00    -0.268 OA
ENDBRANCH  22  24
ENDBRANCH  15  17
ENDBRANCH   1  15
TORSDOF 6
ENDMDL
MODEL 3
REMARK VINA RESULT:    -7.452      6.561      9.745
REMARK INTER + INTRA:         -10.179
REMARK INTER:                  -9.242
REMARK INTRA:                  -0.937
REMARK CONF_INDEPENDENT:        1.790
REMARK UNBOUND:                -0.937
REMARK  6 active torsions:
REMARK  status: ('A' for Active; 'I' for Inactive)
REMARK    1  A    between atoms: S_2  and  C_3 
REMARK    2  A    between atoms: C_7  and  N_8 
REMARK       I    between atoms: N_8  and  C_9 
REMARK    3  A    between atoms: C_9  and  C_11 
REMARK    4  A    between atoms: C_11  and  N_13 
REMARK    5  A    between atoms: N_13  and  C_14 
REMARK    6  A    between atoms: C_19  and  C_20 
REMARK       I    between atoms: C_20  and  N_21 
ROOT
ATOM      1  C   UNL d   1      25.535 -12.366  -3.255  0.00  0.00     0.170 C 
ATOM      2  C   UNL d   1      26.803 -11.842  -2.613  0.00  0.00     0.042 C 
ENDROOT
BRANCH   1   3
ATOM      3  C   UNL d   1      25.389 -13.868  -2.907  0.00  0.00     0.244 C 
ATOM      4  N   UNL d   1      25.828 -14.274  -1.643  0.00  0.00    -0.325 N 
ATOM      5  H   UNL d   1      26.179 -13.576  -0.998  0.00  0.00     0.169 HD
ATOM      6  O   UNL d   1      24.877 -14.602  -3.757  0.00  0.00    -0.271 OA
BRANCH   4   7
ATOM      7  C   UNL d   1      25.774 -15.613  -1.165  0.00  0.00     0.036 A 
ATOM      8  C   UNL d   1      26.758 -16.103  -0.299  0.00  0.00     0.029 A 
ATOM      9  C   UNL d   1      26.658 -17.413   0.203  0.00  0.00     0.004 A 
ATOM     10  C   UNL d   1      25.593 -18.242  -0.167  0.00  0.00     0.018 A 
ATOM     11  C   UNL d   1      24.581 -17.740  -0.971  0.00  0.00     0.002 A 
ATOM     12  C   UNL d   1      24.717 -16.463  -1.503  0.00  0.00     0.048 A 
BRANCH  11  13
ATOM     13  S   UNL d   1      23.087 -18.657  -1.299  0.00  0.00    -0.134 SA
ATOM     14  C   UNL d   1      22.157 -18.287   0.230  0.00  0.00     0.095 C 
ENDBRANCH  11  13
ENDBRANCH   4   7
ENDBRANCH   1   3
BRANCH   1  15
ATOM     15  N   UNL d   1      25.577 -12.263  -4.731  0.00  0.00    -0.377 N 
ATOM     16  H   UNL d   1      24.737 -11.835  -5.133  0.00  0.00     0.160 HD
BRANCH  15  17
ATOM     17  C   UNL d   1      26.665 -12.435  -5.553  0.00  0.00     0.029 A 
ATOM     18  C   UNL d   1      27.085 -11.405  -6.388  0.00  0.00     0.029 A 
ATOM     19  C   UNL d   1      28.166 -11.589  -7.254  0.00  0.00     0.010 A 
ATOM     20  C   UNL d   1      28.928 -12.771  -7.236  0.00  0.00    -0.046 A 
ATOM     21  C   UNL d   1      30.155 -12.809  -8.084  0.00  0.00     0.049 C 
ATOM     22  C   UNL d   1      28.521 -13.831  -6.415  0.00  0.00     0.039 A 
ATOM     23  C   UNL d   1      27.387 -13.630  -5.607  0.00  0.00     0.046 A 
BRANCH  22  24
ATOM     24  C   UNL d   1      29.142 -15.201  -6.319  0.00  0.00     0.249 C 
ATOM     25  N   UNL d   1      30.033 -15.641  -7.251  0.00  0.00    -0.366 N 
ATOM     26  H   UNL d   1      30.390 -15.124  -8.031  0.00  0.00     0.159 HD
ATOM     27  H   UNL d   1      30.394 -16.579  -7.149  0.00  0.00     0.159 HD
ATOM     28  O   UNL d   1      28.854 -15.971  -5.395  0.00  0.00    -0.268 OA
ENDBRANCH  22  24
ENDBRANCH  15  17
ENDBRANCH   1  15
TORSDOF 6
ENDMDL
MODEL 4
REMARK VINA RESULT:    -7.413      7.208      9.024
REMARK INTER + INTRA:         -10.253
REMARK INTER:                  -9.203
REMARK INTRA:                  -1.050
REMARK CONF_INDEPENDENT:        1.790
REMARK UNBOUND:                -1.050
REMARK  6 active torsions:
REMARK  status: ('A' for Active; 'I' for Inactive)
REMARK    1  A    between atoms: S_2  and  C_3 
REMARK    2  A    between atoms: C_7  and  N_8 
REMARK       I    between atoms: N_8  and  C_9 
REMARK    3  A    between atoms: C_9  and  C_11 
REMARK    4  A    between atoms: C_11  and  N_13 
REMARK    5  A    between atoms: N_13  and  C_14 
REMARK    6  A    between atoms: C_19  and  C_20 
REMARK       I    between atoms: C_20  and  N_21 
ROOT
ATOM      1  C   UNL d   1      26.284 -13.796  -4.060  0.00  0.00     0.170 C 
ATOM      2  C   UNL d   1      25.637 -12.752  -4.947  0.00  0.00     0.042 C 
ENDROOT
BRANCH   1   3
ATOM      3  C   UNL d   1      27.143 -14.732  -4.945  0.00  0.00     0.244 C 
ATOM      4  N   UNL d   1      28.531 -14.592  -4.860  0.00  0.00    -0.325 N 
ATOM      5  H   UNL d   1      28.918 -13.925  -4.203  0.00  0.00     0.169 HD
ATOM      6  O   UNL d   1      26.548 -15.554  -5.649  0.00  0.00    -0.271 OA
BRANCH   4   7
ATOM      7  C   UNL d   1      29.465 -15.366  -5.605  0.00  0.00     0.036 A 
ATOM      8  C   UNL d   1      30.257 -14.772  -6.594  0.00  0.00     0.029 A 
ATOM      9  C   UNL d   1      31.210 -15.543  -7.284  0.00  0.00     0.004 A 
ATOM     10  C   UNL d   1      31.364 -16.906  -7.005  0.00  0.00     0.018 A 
ATOM     11  C   UNL d   1      30.629 -17.485  -5.981  0.00  0.00     0.002 A 
ATOM     12  C   UNL d   1      29.655 -16.725  -5.342  0.00  0.00     0.048 A 
BRANCH  11  13
ATOM     13  S   UNL d   1      30.931 -19.150  -5.420  0.00  0.00    -0.134 SA
ATOM     14  C   UNL d   1      30.409 -20.075  -6.908  0.00  0.00     0.095 C 
ENDBRANCH  11  13
ENDBRANCH   4   7
ENDBRANCH   1   3
BRANCH   1  15
ATOM     15  N   UNL d   1      25.280 -14.642  -3.376  0.00  0.00    -0.377 N 
ATOM     16  H   UNL d   1      24.360 -14.625  -3.826  0.00  0.00     0.160 HD
BRANCH  15  17
ATOM     17  C   UNL d   1      25.503 -15.590  -2.407  0.00  0.00     0.029 A 
ATOM     18  C   UNL d   1      26.739 -15.672  -1.774  0.00  0.00     0.029 A 
ATOM     19  C   UNL d   1      26.984 -16.661  -0.818  0.00  0.00     0.010 A 
ATOM     20  C   UNL d   1      25.967 -17.532  -0.386  0.00  0.00    -0.046 A 
ATOM     21  C   UNL d   1      26.283 -18.446   0.751  0.00  0.00     0.049 C 
ATOM     22  C   UNL d   1      24.715 -17.482  -1.013  0.00  0.00     0.039 A 
ATOM     23  C   UNL d   1      24.530 -16.516  -2.020  0.00  0.00     0.046 A 
BRANCH  22  24
ATOM     24  C   UNL d   1      23.532 -18.381  -0.763  0.00  0.00     0.249 C 
ATOM     25  N   UNL d   1      23.068 -18.605   0.499  0.00  0.00    -0.366 N 
ATOM     26  H   UNL d   1      23.408 -18.192   1.346  0.00  0.00     0.159 HD
ATOM     27  H   UNL d   1      22.289 -19.240   0.606  0.00  0.00     0.159 HD
ATOM     28  O   UNL d   1      22.951 -18.949  -1.695  0.00  0.00    -0.268 OA
ENDBRANCH  22  24
ENDBRANCH  15  17
ENDBRANCH   1  15
TORSDOF 6
ENDMDL
MODEL 5
REMARK VINA RESULT:    -7.169      7.074      9.828
REMARK INTER + INTRA:         -10.266
REMARK INTER:                  -8.958
REMARK INTRA:                  -1.308
REMARK CONF_INDEPENDENT:        1.790
REMARK UNBOUND:                -1.308
REMARK  6 active torsions:
REMARK  status: ('A' for Active; 'I' for Inactive)
REMARK    1  A    between atoms: S_2  and  C_3 
REMARK    2  A    between atoms: C_7  and  N_8 
REMARK       I    between atoms: N_8  and  C_9 
REMARK    3  A    between atoms: C_9  and  C_11 
REMARK    4  A    between atoms: C_11  and  N_13 
REMARK    5  A    between atoms: N_13  and  C_14 
REMARK    6  A    between atoms: C_19  and  C_20 
REMARK       I    between atoms: C_20  and  N_21 
ROOT
ATOM      1  C   UNL d   1      26.590 -13.128  -4.176  0.00  0.00     0.170 C 
ATOM      2  C   UNL d   1      27.299 -13.720  -5.377  0.00  0.00     0.042 C 
ENDROOT
BRANCH   1   3
ATOM      3  C   UNL d   1      25.808 -14.256  -3.459  0.00  0.00     0.244 C 
ATOM      4  N   UNL d   1      26.480 -14.954  -2.451  0.00  0.00    -0.325 N 
ATOM      5  H   UNL d   1      27.421 -14.673  -2.203  0.00  0.00     0.169 HD
ATOM      6  O   UNL d   1      24.640 -14.450  -3.808  0.00  0.00    -0.271 OA
BRANCH   4   7
ATOM      7  C   UNL d   1      25.914 -16.020  -1.696  0.00  0.00     0.036 A 
ATOM      8  C   UNL d   1      26.730 -16.882  -0.954  0.00  0.00     0.029 A 
ATOM      9  C   UNL d   1      26.147 -17.897  -0.175  0.00  0.00     0.004 A 
ATOM     10  C   UNL d   1      24.759 -18.069  -0.146  0.00  0.00     0.018 A 
ATOM     11  C   UNL d   1      23.942 -17.178  -0.826  0.00  0.00     0.002 A 
ATOM     12  C   UNL d   1      24.531 -16.211  -1.634  0.00  0.00     0.048 A 
BRANCH  11  13
ATOM     13  S   UNL d   1      22.167 -17.196  -0.655  0.00  0.00    -0.134 SA
ATOM     14  C   UNL d   1      21.897 -18.992  -0.448  0.00  0.00     0.095 C 
ENDBRANCH  11  13
ENDBRANCH   4   7
ENDBRANCH   1   3
BRANCH   1  15
ATOM     15  N   UNL d   1      25.604 -12.096  -4.568  0.00  0.00    -0.377 N 
ATOM     16  H   UNL d   1      24.712 -12.485  -4.890  0.00  0.00     0.160 HD
BRANCH  15  17
ATOM     17  C   UNL d   1      25.661 -10.745  -4.322  0.00  0.00     0.029 A 
ATOM     18  C   UNL d   1      26.228 -10.268  -3.144  0.00  0.00     0.029 A 
ATOM     19  C   UNL d   1      26.252  -8.898  -2.871  0.00  0.00     0.010 A 
ATOM     20  C   UNL d   1      25.808  -7.954  -3.815  0.00  0.00    -0.046 A 
ATOM     21  C   UNL d   1      26.021  -6.512  -3.495  0.00  0.00     0.049 C 
ATOM     22  C   UNL d   1      25.222  -8.404  -5.005  0.00  0.00     0.039 A 
ATOM     23  C   UNL d   1      25.154  -9.794  -5.212  0.00  0.00     0.046 A 
BRANCH  22  24
ATOM     24  C   UNL d   1      24.606  -7.563  -6.094  0.00  0.00     0.249 C 
ATOM     25  N   UNL d   1      23.270  -7.611  -6.356  0.00  0.00    -0.366 N 
ATOM     26  H   UNL d   1      22.580  -8.141  -5.859  0.00  0.00     0.159 HD
ATOM     27  H   UNL d   1      22.920  -7.045  -7.116  0.00  0.00     0.159 HD
ATOM     28  O   UNL d   1      25.299  -6.810  -6.788  0.00  0.00    -0.268 OA
ENDBRANCH  22  24
ENDBRANCH  15  17
ENDBRANCH   1  15
TORSDOF 6
ENDMDL
MODEL 6
REMARK VINA RESULT:    -7.087      7.001     10.541
REMARK INTER + INTRA:         -10.250
REMARK INTER:                  -8.877
REMARK INTRA:                  -1.372
REMARK CONF_INDEPENDENT:        1.790
REMARK UNBOUND:                -1.372
REMARK  6 active torsions:
REMARK  status: ('A' for Active; 'I' for Inactive)
REMARK    1  A    between atoms: S_2  and  C_3 
REMARK    2  A    between atoms: C_7  and  N_8 
REMARK       I    between atoms: N_8  and  C_9 
REMARK    3  A    between atoms: C_9  and  C_11 
REMARK    4  A    between atoms: C_11  and  N_13 
REMARK    5  A    between atoms: N_13  and  C_14 
REMARK    6  A    between atoms: C_19  and  C_20 
REMARK       I    between atoms: C_20  and  N_21 
ROOT
ATOM      1  C   UNL d   1      26.008 -12.538  -3.607  0.00  0.00     0.170 C 
ATOM      2  C   UNL d   1      27.512 -12.623  -3.445  0.00  0.00     0.042 C 
ENDROOT
BRANCH   1   3
ATOM      3  C   UNL d   1      25.385 -13.879  -3.148  0.00  0.00     0.244 C 
ATOM      4  N   UNL d   1      25.937 -14.482  -2.013  0.00  0.00    -0.325 N 
ATOM      5  H   UNL d   1      26.681 -14.006  -1.519  0.00  0.00     0.169 HD
ATOM      6  O   UNL d   1      24.431 -14.316  -3.798  0.00  0.00    -0.271 OA
BRANCH   4   7
ATOM      7  C   UNL d   1      25.490 -15.714  -1.460  0.00  0.00     0.036 A 
ATOM      8  C   UNL d   1      26.381 -16.560  -0.788  0.00  0.00     0.029 A 
ATOM      9  C   UNL d   1      25.909 -17.750  -0.205  0.00  0.00     0.004 A 
ATOM     10  C   UNL d   1      24.560 -18.108  -0.301  0.00  0.00     0.018 A 
ATOM     11  C   UNL d   1      23.661 -17.242  -0.907  0.00  0.00     0.002 A 
ATOM     12  C   UNL d   1      24.147 -16.095  -1.526  0.00  0.00     0.048 A 
BRANCH  11  13
ATOM     13  S   UNL d   1      21.901 -17.523  -0.869  0.00  0.00    -0.134 SA
ATOM     14  C   UNL d   1      21.883 -19.323  -0.553  0.00  0.00     0.095 C 
ENDBRANCH  11  13
ENDBRANCH   4   7
ENDBRANCH   1   3
BRANCH   1  15
ATOM     15  N   UNL d   1      25.614 -12.336  -5.020  0.00  0.00    -0.377 N 
ATOM     16  H   UNL d   1      24.678 -12.692  -5.237  0.00  0.00     0.160 HD
BRANCH  15  17
ATOM     17  C   UNL d   1      26.229 -11.540  -5.956  0.00  0.00     0.029 A 
ATOM     18  C   UNL d   1      25.679 -10.311  -6.306  0.00  0.00     0.029 A 
ATOM     19  C   UNL d   1      26.279  -9.516  -7.286  0.00  0.00     0.010 A 
ATOM     20  C   UNL d   1      27.507  -9.875  -7.871  0.00  0.00    -0.046 A 
ATOM     21  C   UNL d   1      28.145  -8.887  -8.789  0.00  0.00     0.049 C 
ATOM     22  C   UNL d   1      28.080 -11.112  -7.547  0.00  0.00     0.039 A 
ATOM     23  C   UNL d   1      27.409 -11.914  -6.606  0.00  0.00     0.046 A 
BRANCH  22  24
ATOM     24  C   UNL d   1      29.333 -11.717  -8.127  0.00  0.00     0.249 C 
ATOM     25  N   UNL d   1      29.322 -12.953  -8.701  0.00  0.00    -0.366 N 
ATOM     26  H   UNL d   1      28.525 -13.545  -8.836  0.00  0.00     0.159 HD
ATOM     27  H   UNL d   1      30.199 -13.317  -9.047  0.00  0.00     0.159 HD
ATOM     28  O   UNL d   1      30.411 -11.113  -8.091  0.00  0.00    -0.268 OA
ENDBRANCH  22  24
ENDBRANCH  15  17
ENDBRANCH   1  15
TORSDOF 6
ENDMDL
MODEL 7
REMARK VINA RESULT:    -7.050      1.745      2.043
REMARK INTER + INTRA:         -10.202
REMARK INTER:                  -8.840
REMARK INTRA:                  -1.362
REMARK CONF_INDEPENDENT:        1.790
REMARK UNBOUND:                -1.362
REMARK  6 active torsions:
REMARK  status: ('A' for Active; 'I' for Inactive)
REMARK    1  A    between atoms: S_2  and  C_3 
REMARK    2  A    between atoms: C_7  and  N_8 
REMARK       I    between atoms: N_8  and  C_9 
REMARK    3  A    between atoms: C_9  and  C_11 
REMARK    4  A    between atoms: C_11  and  N_13 
REMARK    5  A    between atoms: N_13  and  C_14 
REMARK    6  A    between atoms: C_19  and  C_20 
REMARK       I    between atoms: C_20  and  N_21 
ROOT
ATOM      1  C   UNL d   1      28.608 -14.363   2.697  0.00  0.00     0.170 C 
ATOM      2  C   UNL d   1      29.823 -13.772   2.012  0.00  0.00     0.042 C 
ENDROOT
BRANCH   1   3
ATOM      3  C   UNL d   1      27.505 -14.593   1.636  0.00  0.00     0.244 C 
ATOM      4  N   UNL d   1      27.503 -15.826   0.976  0.00  0.00    -0.325 N 
ATOM      5  H   UNL d   1      28.185 -16.526   1.243  0.00  0.00     0.169 HD
ATOM      6  O   UNL d   1      26.688 -13.685   1.457  0.00  0.00    -0.271 OA
BRANCH   4   7
ATOM      7  C   UNL d   1      26.567 -16.199  -0.028  0.00  0.00     0.036 A 
ATOM      8  C   UNL d   1      26.650 -15.663  -1.319  0.00  0.00     0.029 A 
ATOM      9  C   UNL d   1      25.746 -16.083  -2.310  0.00  0.00     0.004 A 
ATOM     10  C   UNL d   1      24.749 -17.021  -2.018  0.00  0.00     0.018 A 
ATOM     11  C   UNL d   1      24.703 -17.605  -0.761  0.00  0.00     0.002 A 
ATOM     12  C   UNL d   1      25.568 -17.144   0.225  0.00  0.00     0.048 A 
BRANCH  11  13
ATOM     13  S   UNL d   1      23.612 -18.964  -0.385  0.00  0.00    -0.134 SA
ATOM     14  C   UNL d   1      22.018 -18.228  -0.895  0.00  0.00     0.095 C 
ENDBRANCH  11  13
ENDBRANCH   4   7
ENDBRANCH   1   3
BRANCH   1  15
ATOM     15  N   UNL d   1      28.047 -13.448   3.717  0.00  0.00    -0.377 N 
ATOM     16  H   UNL d   1      27.195 -12.970   3.411  0.00  0.00     0.160 HD
BRANCH  15  17
ATOM     17  C   UNL d   1      28.384 -13.368   5.047  0.00  0.00     0.029 A 
ATOM     18  C   UNL d   1      28.606 -14.525   5.788  0.00  0.00     0.029 A 
ATOM     19  C   UNL d   1      28.909 -14.450   7.149  0.00  0.00     0.010 A 
ATOM     20  C   UNL d   1      29.105 -13.214   7.791  0.00  0.00    -0.046 A 
ATOM     21  C   UNL d   1      29.580 -13.242   9.205  0.00  0.00     0.049 C 
ATOM     22  C   UNL d   1      28.877 -12.031   7.075  0.00  0.00     0.039 A 
ATOM     23  C   UNL d   1      28.506 -12.150   5.723  0.00  0.00     0.046 A 
BRANCH  22  24
ATOM     24  C   UNL d   1      28.942 -10.619   7.599  0.00  0.00     0.249 C 
ATOM     25  N   UNL d   1      28.887 -10.357   8.935  0.00  0.00    -0.366 N 
ATOM     26  H   UNL d   1      28.843 -11.029   9.677  0.00  0.00     0.159 HD
ATOM     27  H   UNL d   1      28.907  -9.389   9.224  0.00  0.00     0.159 HD
ATOM     28  O   UNL d   1      29.041  -9.656   6.830  0.00  0.00    -0.268 OA
ENDBRANCH  22  24
ENDBRANCH  15  17
ENDBRANCH   1  15
TORSDOF 6
ENDMDL
MODEL 8
REMARK VINA RESULT:    -6.970      5.896      7.739
REMARK INTER + INTRA:         -10.201
REMARK INTER:                  -8.759
REMARK INTRA:                  -1.441
REMARK CONF_INDEPENDENT:        1.790
REMARK UNBOUND:                -1.441
REMARK  6 active torsions:
REMARK  status: ('A' for Active; 'I' for Inactive)
REMARK    1  A    between atoms: S_2  and  C_3 
REMARK    2  A    between atoms: C_7  and  N_8 
REMARK       I    between atoms: N_8  and  C_9 
REMARK    3  A    between atoms: C_9  and  C_11 
REMARK    4  A    between atoms: C_11  and  N_13 
REMARK    5  A    between atoms: N_13  and  C_14 
REMARK    6  A    between atoms: C_19  and  C_20 
REMARK       I    between atoms: C_20  and  N_21 
ROOT
ATOM      1  C   UNL d   1      26.900 -14.004  -4.806  0.00  0.00     0.170 C 
ATOM      2  C   UNL d   1      26.717 -12.721  -4.021  0.00  0.00     0.042 C 
ENDROOT
BRANCH   1   3
ATOM      3  C   UNL d   1      26.219 -15.158  -4.032  0.00  0.00     0.244 C 
ATOM      4  N   UNL d   1      26.417 -15.202  -2.649  0.00  0.00    -0.325 N 
ATOM      5  H   UNL d   1      26.954 -14.465  -2.207  0.00  0.00     0.169 HD
ATOM      6  O   UNL d   1      25.530 -15.950  -4.682  0.00  0.00    -0.271 OA
BRANCH   4   7
ATOM      7  C   UNL d   1      25.870 -16.195  -1.789  0.00  0.00     0.036 A 
ATOM      8  C   UNL d   1      26.706 -17.001  -1.006  0.00  0.00     0.029 A 
ATOM      9  C   UNL d   1      26.143 -17.942  -0.125  0.00  0.00     0.004 A 
ATOM     10  C   UNL d   1      24.755 -18.095  -0.032  0.00  0.00     0.018 A 
ATOM     11  C   UNL d   1      23.922 -17.254  -0.755  0.00  0.00     0.002 A 
ATOM     12  C   UNL d   1      24.489 -16.364  -1.662  0.00  0.00     0.048 A 
BRANCH  11  13
ATOM     13  S   UNL d   1      22.155 -17.237  -0.520  0.00  0.00    -0.134 SA
ATOM     14  C   UNL d   1      21.849 -19.033  -0.364  0.00  0.00     0.095 C 
ENDBRANCH  11  13
ENDBRANCH   4   7
ENDBRANCH   1   3
BRANCH   1  15
ATOM     15  N   UNL d   1      28.329 -14.362  -4.957  0.00  0.00    -0.377 N 
ATOM     16  H   UNL d   1      28.864 -13.679  -5.502  0.00  0.00     0.160 HD
BRANCH  15  17
ATOM     17  C   UNL d   1      29.028 -15.325  -4.270  0.00  0.00     0.029 A 
ATOM     18  C   UNL d   1      29.541 -16.432  -4.938  0.00  0.00     0.029 A 
ATOM     19  C   UNL d   1      30.218 -17.434  -4.238  0.00  0.00     0.010 A 
ATOM     20  C   UNL d   1      30.498 -17.309  -2.865  0.00  0.00    -0.046 A 
ATOM     21  C   UNL d   1      31.362 -18.354  -2.242  0.00  0.00     0.049 C 
ATOM     22  C   UNL d   1      29.983 -16.211  -2.162  0.00  0.00     0.039 A 
ATOM     23  C   UNL d   1      29.248 -15.258  -2.891  0.00  0.00     0.046 A 
BRANCH  22  24
ATOM     24  C   UNL d   1      30.091 -15.942  -0.683  0.00  0.00     0.249 C 
ATOM     25  N   UNL d   1      29.977 -16.948   0.229  0.00  0.00    -0.366 N 
ATOM     26  H   UNL d   1      29.861 -17.924   0.035  0.00  0.00     0.159 HD
ATOM     27  H   UNL d   1      30.030 -16.702   1.208  0.00  0.00     0.159 HD
ATOM     28  O   UNL d   1      30.277 -14.798  -0.253  0.00  0.00    -0.268 OA
ENDBRANCH  22  24
ENDBRANCH  15  17
ENDBRANCH   1  15
TORSDOF 6
ENDMDL
