MODEL 1
REMARK VINA RESULT:    -7.513      0.000      0.000
REMARK INTER + INTRA:         -12.415
REMARK INTER:                  -9.601
REMARK INTRA:                  -2.814
REMARK CONF_INDEPENDENT:        2.088
REMARK UNBOUND:                -2.814
REMARK  7 active torsions:
REMARK  status: ('A' for Active; 'I' for Inactive)
REMARK       I    between atoms: C_2  and  N_4 
REMARK    1  A    between atoms: C_5  and  N_4 
REMARK    2  A    between atoms: C_6  and  O_7 
REMARK    3  A    between atoms: O_7  and  C_8 
REMARK    4  A    between atoms: C_28  and  C_29 
REMARK    5  A    between atoms: C_29  and  O_30 
REMARK    6  A    between atoms: C_31  and  O_32 
REMARK    7  A    between atoms: C_33  and  O_34 
ROOT
ATOM      1  C   UNL d   1      27.700 -12.928   4.902  0.00  0.00     0.072 A 
ATOM      2  C   UNL d   1      28.011 -14.267   4.697  0.00  0.00     0.037 A 
ATOM      3  C   UNL d   1      28.155 -14.718   3.376  0.00  0.00     0.011 A 
ATOM      4  C   UNL d   1      27.921 -13.874   2.251  0.00  0.00    -0.047 A 
ATOM      5  C   UNL d   1      27.553 -12.541   2.483  0.00  0.00    -0.049 A 
ATOM      6  C   UNL d   1      27.405 -12.093   3.814  0.00  0.00     0.044 A 
ATOM      7  C   UNL d   1      27.433 -11.554   1.335  0.00  0.00     0.039 C 
ATOM      8  C   UNL d   1      27.839 -12.093  -0.078  0.00  0.00     0.010 C 
ATOM      9  C   UNL d   1      27.170 -13.523  -0.273  0.00  0.00    -0.000 C 
ATOM     10  C   UNL d   1      26.905 -14.182  -1.862  0.00  0.00     0.006 C 
ATOM     11  C   UNL d   1      25.554 -14.889  -2.876  0.00  0.00     0.013 C 
ATOM     12  C   UNL d   1      24.570 -15.575  -2.019  0.00  0.00     0.079 C 
ATOM     13  C   UNL d   1      25.662 -15.969  -1.087  0.00  0.00     0.135 C 
ATOM     14  O   UNL d   1      25.336 -16.325   0.013  0.00  0.00    -0.297 OA
ATOM     15  C   UNL d   1      27.221 -15.638  -1.664  0.00  0.00     0.021 C 
ATOM     16  C   UNL d   1      27.899 -15.950  -3.078  0.00  0.00     0.024 C 
ATOM     17  C   UNL d   1      28.121 -16.287  -0.668  0.00  0.00     0.018 C 
ATOM     18  C   UNL d   1      27.928 -15.821   0.735  0.00  0.00     0.011 C 
ATOM     19  C   UNL d   1      28.131 -14.340   0.789  0.00  0.00     0.024 C 
ENDROOT
BRANCH   1  20
ATOM     20  O   UNL d   1      27.859 -12.312   6.118  0.00  0.00    -0.318 OA
BRANCH  20  21
ATOM     21  C   UNL d   1      28.806 -12.992   6.983  0.00  0.00     0.292 C 
ATOM     22  C   UNL d   1      30.292 -12.487   6.933  0.00  0.00     0.171 C 
ATOM     23  C   UNL d   1      31.123 -13.367   7.867  0.00  0.00     0.177 C 
ATOM     24  C   UNL d   1      30.573 -13.410   9.280  0.00  0.00     0.180 C 
ATOM     25  C   UNL d   1      29.059 -13.672   9.284  0.00  0.00     0.179 C 
ATOM     26  O   UNL d   1      28.360 -12.827   8.355  0.00  0.00    -0.349 OA
BRANCH  22  27
ATOM     27  N   UNL d   1      30.958 -12.575   5.633  0.00  0.00    -0.349 N 
ATOM     28  C   UNL d   1      31.007 -11.642   4.642  0.00  0.00     0.214 C 
ATOM     29  C   UNL d   1      30.098 -10.447   4.736  0.00  0.00     0.117 C 
ATOM     30  O   UNL d   1      31.745 -11.818   3.675  0.00  0.00    -0.274 OA
ATOM     31  H   UNL d   1      31.523 -13.391   5.428  0.00  0.00     0.163 HD
ENDBRANCH  22  27
BRANCH  23  32
ATOM     32  O   UNL d   1      32.493 -12.943   7.893  0.00  0.00    -0.391 OA
ATOM     33  H   UNL d   1      32.943 -13.323   7.120  0.00  0.00     0.210 HD
ENDBRANCH  23  32
BRANCH  24  34
ATOM     34  O   UNL d   1      31.267 -14.438   9.995  0.00  0.00    -0.390 OA
ATOM     35  H   UNL d   1      32.158 -14.533   9.619  0.00  0.00     0.210 HD
ENDBRANCH  24  34
BRANCH  25  36
ATOM     36  C   UNL d   1      28.502 -13.456  10.705  0.00  0.00     0.198 C 
BRANCH  36  37
ATOM     37  O   UNL d   1      27.858 -12.200  10.883  0.00  0.00    -0.398 OA
ATOM     38  H   UNL d   1      28.078 -11.624  10.131  0.00  0.00     0.209 HD
ENDBRANCH  36  37
ENDBRANCH  25  36
ENDBRANCH  20  21
ENDBRANCH   1  20
TORSDOF 7
ENDMDL
MODEL 2
REMARK VINA RESULT:    -7.425      4.310     10.241
REMARK INTER + INTRA:         -12.463
REMARK INTER:                  -9.513
REMARK INTRA:                  -2.951
REMARK CONF_INDEPENDENT:        2.088
REMARK UNBOUND:                -2.951
REMARK  7 active torsions:
REMARK  status: ('A' for Active; 'I' for Inactive)
REMARK       I    between atoms: C_2  and  N_4 
REMARK    1  A    between atoms: C_5  and  N_4 
REMARK    2  A    between atoms: C_6  and  O_7 
REMARK    3  A    between atoms: O_7  and  C_8 
REMARK    4  A    between atoms: C_28  and  C_29 
REMARK    5  A    between atoms: C_29  and  O_30 
REMARK    6  A    between atoms: C_31  and  O_32 
REMARK    7  A    between atoms: C_33  and  O_34 
ROOT
ATOM      1  C   UNL d   1      26.030 -14.554  -2.701  0.00  0.00     0.072 A 
ATOM      2  C   UNL d   1      25.791 -13.332  -2.086  0.00  0.00     0.037 A 
ATOM      3  C   UNL d   1      26.608 -12.962  -1.007  0.00  0.00     0.011 A 
ATOM      4  C   UNL d   1      27.614 -13.826  -0.481  0.00  0.00    -0.047 A 
ATOM      5  C   UNL d   1      27.799 -15.078  -1.084  0.00  0.00    -0.049 A 
ATOM      6  C   UNL d   1      26.971 -15.446  -2.166  0.00  0.00     0.044 A 
ATOM      7  C   UNL d   1      28.947 -15.980  -0.668  0.00  0.00     0.039 C 
ATOM      8  C   UNL d   1      29.943 -15.385   0.383  0.00  0.00     0.010 C 
ATOM      9  C   UNL d   1      29.092 -14.706   1.543  0.00  0.00    -0.000 C 
ATOM     10  C   UNL d   1      29.773 -14.449   3.125  0.00  0.00     0.006 C 
ATOM     11  C   UNL d   1      29.404 -14.805   4.881  0.00  0.00     0.013 C 
ATOM     12  C   UNL d   1      27.947 -14.846   5.106  0.00  0.00     0.079 C 
ATOM     13  C   UNL d   1      27.761 -13.803   4.059  0.00  0.00     0.135 C 
ATOM     14  O   UNL d   1      26.654 -13.672   3.612  0.00  0.00    -0.297 OA
ATOM     15  C   UNL d   1      29.206 -13.110   3.505  0.00  0.00     0.021 C 
ATOM     16  C   UNL d   1      30.455 -12.519   4.308  0.00  0.00     0.024 C 
ATOM     17  C   UNL d   1      28.757 -11.987   2.633  0.00  0.00     0.018 C 
ATOM     18  C   UNL d   1      27.860 -12.393   1.514  0.00  0.00     0.011 C 
ATOM     19  C   UNL d   1      28.563 -13.411   0.672  0.00  0.00     0.024 C 
ENDROOT
BRANCH   1  20
ATOM     20  O   UNL d   1      25.531 -14.866  -3.941  0.00  0.00    -0.318 OA
BRANCH  20  21
ATOM     21  C   UNL d   1      26.345 -14.357  -5.030  0.00  0.00     0.292 C 
ATOM     22  C   UNL d   1      26.866 -12.882  -4.888  0.00  0.00     0.171 C 
ATOM     23  C   UNL d   1      27.646 -12.531  -6.155  0.00  0.00     0.177 C 
ATOM     24  C   UNL d   1      28.763 -13.515  -6.451  0.00  0.00     0.180 C 
ATOM     25  C   UNL d   1      28.272 -14.967  -6.347  0.00  0.00     0.179 C 
ATOM     26  O   UNL d   1      27.521 -15.201  -5.144  0.00  0.00    -0.349 OA
BRANCH  22  27
ATOM     27  N   UNL d   1      25.840 -11.845  -4.771  0.00  0.00    -0.349 N 
ATOM     28  C   UNL d   1      25.922 -10.642  -4.140  0.00  0.00     0.214 C 
ATOM     29  C   UNL d   1      27.099 -10.382  -3.240  0.00  0.00     0.117 C 
ATOM     30  O   UNL d   1      25.016  -9.821  -4.273  0.00  0.00    -0.274 OA
ATOM     31  H   UNL d   1      24.964 -11.968  -5.265  0.00  0.00     0.163 HD
ENDBRANCH  22  27
BRANCH  23  32
ATOM     32  O   UNL d   1      28.178 -11.201  -6.083  0.00  0.00    -0.391 OA
ATOM     33  H   UNL d   1      28.950 -11.152  -6.671  0.00  0.00     0.210 HD
ENDBRANCH  23  32
BRANCH  24  34
ATOM     34  O   UNL d   1      29.258 -13.240  -7.766  0.00  0.00    -0.390 OA
ATOM     35  H   UNL d   1      29.227 -14.058  -8.290  0.00  0.00     0.210 HD
ENDBRANCH  24  34
BRANCH  25  36
ATOM     36  C   UNL d   1      29.479 -15.924  -6.402  0.00  0.00     0.198 C 
BRANCH  36  37
ATOM     37  O   UNL d   1      30.517 -15.487  -7.270  0.00  0.00    -0.398 OA
ATOM     38  H   UNL d   1      30.123 -15.178  -8.104  0.00  0.00     0.209 HD
ENDBRANCH  36  37
ENDBRANCH  25  36
ENDBRANCH  20  21
ENDBRANCH   1  20
TORSDOF 7
ENDMDL
MODEL 3
REMARK VINA RESULT:    -7.265      1.822      2.744
REMARK INTER + INTRA:         -11.774
REMARK INTER:                  -9.353
REMARK INTRA:                  -2.421
REMARK CONF_INDEPENDENT:        2.088
REMARK UNBOUND:                -2.421
REMARK  7 active torsions:
REMARK  status: ('A' for Active; 'I' for Inactive)
REMARK       I    between atoms: C_2  and  N_4 
REMARK    1  A    between atoms: C_5  and  N_4 
REMARK    2  A    between atoms: C_6  and  O_7 
REMARK    3  A    between atoms: O_7  and  C_8 
REMARK    4  A    between atoms: C_28  and  C_29 
REMARK    5  A    between atoms: C_29  and  O_30 
REMARK    6  A    between atoms: C_31  and  O_32 
REMARK    7  A    between atoms: C_33  and  O_34 
ROOT
ATOM      1  C   UNL d   1      30.263 -13.229   3.635  0.00  0.00     0.072 A 
ATOM      2  C   UNL d   1      30.842 -14.228   2.862  0.00  0.00     0.037 A 
ATOM      3  C   UNL d   1      30.215 -14.580   1.657  0.00  0.00     0.011 A 
ATOM      4  C   UNL d   1      28.978 -14.004   1.243  0.00  0.00    -0.047 A 
ATOM      5  C   UNL d   1      28.385 -13.038   2.068  0.00  0.00    -0.049 A 
ATOM      6  C   UNL d   1      29.017 -12.691   3.282  0.00  0.00     0.044 A 
ATOM      7  C   UNL d   1      27.147 -12.282   1.616  0.00  0.00     0.039 C 
ATOM      8  C   UNL d   1      26.655 -12.578   0.160  0.00  0.00     0.010 C 
ATOM      9  C   UNL d   1      26.665 -14.154  -0.055  0.00  0.00    -0.000 C 
ATOM     10  C   UNL d   1      25.682 -14.901  -1.282  0.00  0.00     0.006 C 
ATOM     11  C   UNL d   1      24.429 -16.224  -1.458  0.00  0.00     0.013 C 
ATOM     12  C   UNL d   1      24.663 -17.292  -0.469  0.00  0.00     0.079 C 
ATOM     13  C   UNL d   1      26.128 -17.049  -0.558  0.00  0.00     0.135 C 
ATOM     14  O   UNL d   1      26.808 -17.490   0.328  0.00  0.00    -0.297 OA
ATOM     15  C   UNL d   1      26.583 -15.987  -1.799  0.00  0.00     0.021 C 
ATOM     16  C   UNL d   1      26.171 -15.950  -3.344  0.00  0.00     0.024 C 
ATOM     17  C   UNL d   1      28.072 -16.060  -1.812  0.00  0.00     0.018 C 
ATOM     18  C   UNL d   1      28.718 -15.719  -0.513  0.00  0.00     0.011 C 
ATOM     19  C   UNL d   1      28.302 -14.338  -0.110  0.00  0.00     0.024 C 
ENDROOT
BRANCH   1  20
ATOM     20  O   UNL d   1      30.944 -12.584   4.636  0.00  0.00    -0.318 OA
BRANCH  20  21
ATOM     21  C   UNL d   1      30.158 -12.413   5.845  0.00  0.00     0.292 C 
ATOM     22  C   UNL d   1      29.963 -13.687   6.742  0.00  0.00     0.171 C 
ATOM     23  C   UNL d   1      29.067 -13.304   7.919  0.00  0.00     0.177 C 
ATOM     24  C   UNL d   1      29.598 -12.119   8.703  0.00  0.00     0.180 C 
ATOM     25  C   UNL d   1      30.006 -10.969   7.770  0.00  0.00     0.179 C 
ATOM     26  O   UNL d   1      30.817 -11.421   6.674  0.00  0.00    -0.349 OA
BRANCH  22  27
ATOM     27  N   UNL d   1      29.295 -14.825   6.108  0.00  0.00    -0.349 N 
ATOM     28  C   UNL d   1      28.119 -14.840   5.422  0.00  0.00     0.214 C 
ATOM     29  C   UNL d   1      27.237 -13.624   5.480  0.00  0.00     0.117 C 
ATOM     30  O   UNL d   1      27.780 -15.857   4.818  0.00  0.00    -0.274 OA
ATOM     31  H   UNL d   1      29.764 -15.723   6.098  0.00  0.00     0.163 HD
ENDBRANCH  22  27
BRANCH  23  32
ATOM     32  O   UNL d   1      28.867 -14.418   8.802  0.00  0.00    -0.391 OA
ATOM     33  H   UNL d   1      29.021 -15.235   8.298  0.00  0.00     0.210 HD
ENDBRANCH  23  32
BRANCH  24  34
ATOM     34  O   UNL d   1      28.577 -11.696   9.613  0.00  0.00    -0.390 OA
ATOM     35  H   UNL d   1      28.922 -10.965  10.154  0.00  0.00     0.210 HD
ENDBRANCH  24  34
BRANCH  25  36
ATOM     36  C   UNL d   1      30.769  -9.898   8.575  0.00  0.00     0.198 C 
BRANCH  36  37
ATOM     37  O   UNL d   1      29.952  -9.184   9.495  0.00  0.00    -0.398 OA
ATOM     38  H   UNL d   1      29.108  -9.655   9.600  0.00  0.00     0.209 HD
ENDBRANCH  36  37
ENDBRANCH  25  36
ENDBRANCH  20  21
ENDBRANCH   1  20
TORSDOF 7
ENDMDL
MODEL 4
REMARK VINA RESULT:    -7.059      6.770     10.029
REMARK INTER + INTRA:         -11.711
REMARK INTER:                  -9.147
REMARK INTRA:                  -2.563
REMARK CONF_INDEPENDENT:        2.088
REMARK UNBOUND:                -2.563
REMARK  7 active torsions:
REMARK  status: ('A' for Active; 'I' for Inactive)
REMARK       I    between atoms: C_2  and  N_4 
REMARK    1  A    between atoms: C_5  and  N_4 
REMARK    2  A    between atoms: C_6  and  O_7 
REMARK    3  A    between atoms: O_7  and  C_8 
REMARK    4  A    between atoms: C_28  and  C_29 
REMARK    5  A    between atoms: C_29  and  O_30 
REMARK    6  A    between atoms: C_31  and  O_32 
REMARK    7  A    between atoms: C_33  and  O_34 
ROOT
ATOM      1  C   UNL d   1      25.839 -14.520  -4.106  0.00  0.00     0.072 A 
ATOM      2  C   UNL d   1      25.297 -13.242  -4.055  0.00  0.00     0.037 A 
ATOM      3  C   UNL d   1      25.809 -12.270  -4.929  0.00  0.00     0.011 A 
ATOM      4  C   UNL d   1      26.905 -12.532  -5.804  0.00  0.00    -0.047 A 
ATOM      5  C   UNL d   1      27.472 -13.814  -5.796  0.00  0.00    -0.049 A 
ATOM      6  C   UNL d   1      26.956 -14.786  -4.912  0.00  0.00     0.044 A 
ATOM      7  C   UNL d   1      28.540 -14.199  -6.804  0.00  0.00     0.039 C 
ATOM      8  C   UNL d   1      28.882 -13.123  -7.888  0.00  0.00     0.010 C 
ATOM      9  C   UNL d   1      29.041 -11.718  -7.158  0.00  0.00    -0.000 C 
ATOM     10  C   UNL d   1      29.949 -10.424  -7.886  0.00  0.00     0.006 C 
ATOM     11  C   UNL d   1      31.324  -9.284  -7.488  0.00  0.00     0.013 C 
ATOM     12  C   UNL d   1      31.349  -8.989  -6.043  0.00  0.00     0.079 C 
ATOM     13  C   UNL d   1      29.865  -9.091  -6.001  0.00  0.00     0.135 C 
ATOM     14  O   UNL d   1      29.359  -9.231  -4.921  0.00  0.00    -0.297 OA
ATOM     15  C   UNL d   1      29.133  -9.215  -7.526  0.00  0.00     0.021 C 
ATOM     16  C   UNL d   1      29.343  -8.355  -8.857  0.00  0.00     0.024 C 
ATOM     17  C   UNL d   1      27.674  -9.106  -7.237  0.00  0.00     0.018 C 
ATOM     18  C   UNL d   1      27.156 -10.123  -6.278  0.00  0.00     0.011 C 
ATOM     19  C   UNL d   1      27.444 -11.490  -6.815  0.00  0.00     0.024 C 
ENDROOT
BRANCH   1  20
ATOM     20  O   UNL d   1      25.213 -15.608  -3.553  0.00  0.00    -0.318 OA
BRANCH  20  21
ATOM     21  C   UNL d   1      25.641 -15.885  -2.194  0.00  0.00     0.292 C 
ATOM     22  C   UNL d   1      24.908 -17.059  -1.452  0.00  0.00     0.171 C 
ATOM     23  C   UNL d   1      25.466 -17.142  -0.031  0.00  0.00     0.177 C 
ATOM     24  C   UNL d   1      26.976 -17.287   0.002  0.00  0.00     0.180 C 
ATOM     25  C   UNL d   1      27.656 -16.270  -0.926  0.00  0.00     0.179 C 
ATOM     26  O   UNL d   1      27.050 -16.233  -2.228  0.00  0.00    -0.349 OA
BRANCH  22  27
ATOM     27  N   UNL d   1      23.462 -16.913  -1.286  0.00  0.00    -0.349 N 
ATOM     28  C   UNL d   1      22.541 -17.878  -1.013  0.00  0.00     0.214 C 
ATOM     29  C   UNL d   1      22.961 -19.319  -1.106  0.00  0.00     0.117 C 
ATOM     30  O   UNL d   1      21.383 -17.557  -0.750  0.00  0.00    -0.274 OA
ATOM     31  H   UNL d   1      23.059 -15.984  -1.304  0.00  0.00     0.163 HD
ENDBRANCH  22  27
BRANCH  23  32
ATOM     32  O   UNL d   1      24.860 -18.217   0.701  0.00  0.00    -0.391 OA
ATOM     33  H   UNL d   1      25.462 -18.472   1.419  0.00  0.00     0.210 HD
ENDBRANCH  23  32
BRANCH  24  34
ATOM     34  O   UNL d   1      27.408 -17.108   1.355  0.00  0.00    -0.390 OA
ATOM     35  H   UNL d   1      28.335 -16.816   1.352  0.00  0.00     0.210 HD
ENDBRANCH  24  34
BRANCH  25  36
ATOM     36  C   UNL d   1      29.153 -16.613  -1.058  0.00  0.00     0.198 C 
BRANCH  36  37
ATOM     37  O   UNL d   1      29.810 -16.800   0.189  0.00  0.00    -0.398 OA
ATOM     38  H   UNL d   1      29.420 -17.568   0.640  0.00  0.00     0.209 HD
ENDBRANCH  36  37
ENDBRANCH  25  36
ENDBRANCH  20  21
ENDBRANCH   1  20
TORSDOF 7
ENDMDL
MODEL 5
REMARK VINA RESULT:    -7.028      3.110      9.575
REMARK INTER + INTRA:         -11.977
REMARK INTER:                  -9.116
REMARK INTRA:                  -2.861
REMARK CONF_INDEPENDENT:        2.088
REMARK UNBOUND:                -2.861
REMARK  7 active torsions:
REMARK  status: ('A' for Active; 'I' for Inactive)
REMARK       I    between atoms: C_2  and  N_4 
REMARK    1  A    between atoms: C_5  and  N_4 
REMARK    2  A    between atoms: C_6  and  O_7 
REMARK    3  A    between atoms: O_7  and  C_8 
REMARK    4  A    between atoms: C_28  and  C_29 
REMARK    5  A    between atoms: C_29  and  O_30 
REMARK    6  A    between atoms: C_31  and  O_32 
REMARK    7  A    between atoms: C_33  and  O_34 
ROOT
ATOM      1  C   UNL d   1      27.868 -15.129  -0.193  0.00  0.00     0.072 A 
ATOM      2  C   UNL d   1      26.865 -14.250   0.199  0.00  0.00     0.037 A 
ATOM      3  C   UNL d   1      27.152 -13.334   1.224  0.00  0.00     0.011 A 
ATOM      4  C   UNL d   1      28.398 -13.330   1.917  0.00  0.00    -0.047 A 
ATOM      5  C   UNL d   1      29.373 -14.265   1.541  0.00  0.00    -0.049 A 
ATOM      6  C   UNL d   1      29.078 -15.186   0.513  0.00  0.00     0.044 A 
ATOM      7  C   UNL d   1      30.769 -14.217   2.136  0.00  0.00     0.039 C 
ATOM      8  C   UNL d   1      31.064 -13.019   3.100  0.00  0.00     0.010 C 
ATOM      9  C   UNL d   1      29.838 -12.876   4.103  0.00  0.00    -0.000 C 
ATOM     10  C   UNL d   1      30.020 -12.074   5.637  0.00  0.00     0.006 C 
ATOM     11  C   UNL d   1      29.720 -12.375   7.418  0.00  0.00     0.013 C 
ATOM     12  C   UNL d   1      28.567 -13.275   7.603  0.00  0.00     0.079 C 
ATOM     13  C   UNL d   1      27.926 -12.696   6.391  0.00  0.00     0.135 C 
ATOM     14  O   UNL d   1      27.030 -13.325   5.896  0.00  0.00    -0.297 OA
ATOM     15  C   UNL d   1      28.719 -11.333   5.769  0.00  0.00     0.021 C 
ATOM     16  C   UNL d   1      29.248 -10.011   6.496  0.00  0.00     0.024 C 
ATOM     17  C   UNL d   1      27.800 -10.832   4.707  0.00  0.00     0.018 C 
ATOM     18  C   UNL d   1      27.478 -11.829   3.647  0.00  0.00     0.011 C 
ATOM     19  C   UNL d   1      28.751 -12.291   3.010  0.00  0.00     0.024 C 
ENDROOT
BRANCH   1  20
ATOM     20  O   UNL d   1      27.817 -15.823  -1.376  0.00  0.00    -0.318 OA
BRANCH  20  21
ATOM     21  C   UNL d   1      27.245 -15.053  -2.466  0.00  0.00     0.292 C 
ATOM     22  C   UNL d   1      25.678 -14.997  -2.539  0.00  0.00     0.171 C 
ATOM     23  C   UNL d   1      25.289 -14.192  -3.779  0.00  0.00     0.177 C 
ATOM     24  C   UNL d   1      25.921 -12.813  -3.808  0.00  0.00     0.180 C 
ATOM     25  C   UNL d   1      27.423 -12.878  -3.495  0.00  0.00     0.179 C 
ATOM     26  O   UNL d   1      27.702 -13.681  -2.336  0.00  0.00    -0.349 OA
BRANCH  22  27
ATOM     27  N   UNL d   1      24.993 -16.282  -2.688  0.00  0.00    -0.349 N 
ATOM     28  C   UNL d   1      24.502 -17.097  -1.715  0.00  0.00     0.214 C 
ATOM     29  C   UNL d   1      24.875 -16.814  -0.286  0.00  0.00     0.117 C 
ATOM     30  O   UNL d   1      23.814 -18.069  -2.024  0.00  0.00    -0.274 OA
ATOM     31  H   UNL d   1      24.778 -16.615  -3.621  0.00  0.00     0.163 HD
ENDBRANCH  22  27
BRANCH  23  32
ATOM     32  O   UNL d   1      23.864 -14.075  -3.895  0.00  0.00    -0.391 OA
ATOM     33  H   UNL d   1      23.668 -13.490  -4.646  0.00  0.00     0.210 HD
ENDBRANCH  23  32
BRANCH  24  34
ATOM     34  O   UNL d   1      25.697 -12.250  -5.106  0.00  0.00    -0.390 OA
ATOM     35  H   UNL d   1      24.761 -12.367  -5.340  0.00  0.00     0.210 HD
ENDBRANCH  24  34
BRANCH  25  36
ATOM     36  C   UNL d   1      27.969 -11.452  -3.284  0.00  0.00     0.198 C 
BRANCH  36  37
ATOM     37  O   UNL d   1      28.250 -11.142  -1.925  0.00  0.00    -0.398 OA
ATOM     38  H   UNL d   1      28.409 -11.969  -1.439  0.00  0.00     0.209 HD
ENDBRANCH  36  37
ENDBRANCH  25  36
ENDBRANCH  20  21
ENDBRANCH   1  20
TORSDOF 7
ENDMDL
MODEL 6
REMARK VINA RESULT:    -6.804      1.205      3.114
REMARK INTER + INTRA:         -11.630
REMARK INTER:                  -8.892
REMARK INTRA:                  -2.738
REMARK CONF_INDEPENDENT:        2.088
REMARK UNBOUND:                -2.738
REMARK  7 active torsions:
REMARK  status: ('A' for Active; 'I' for Inactive)
REMARK       I    between atoms: C_2  and  N_4 
REMARK    1  A    between atoms: C_5  and  N_4 
REMARK    2  A    between atoms: C_6  and  O_7 
REMARK    3  A    between atoms: O_7  and  C_8 
REMARK    4  A    between atoms: C_28  and  C_29 
REMARK    5  A    between atoms: C_29  and  O_30 
REMARK    6  A    between atoms: C_31  and  O_32 
REMARK    7  A    between atoms: C_33  and  O_34 
ROOT
ATOM      1  C   UNL d   1      27.568 -13.126   5.291  0.00  0.00     0.072 A 
ATOM      2  C   UNL d   1      27.870 -14.457   5.028  0.00  0.00     0.037 A 
ATOM      3  C   UNL d   1      28.141 -14.825   3.701  0.00  0.00     0.011 A 
ATOM      4  C   UNL d   1      28.043 -13.902   2.618  0.00  0.00    -0.047 A 
ATOM      5  C   UNL d   1      27.681 -12.577   2.902  0.00  0.00    -0.049 A 
ATOM      6  C   UNL d   1      27.405 -12.214   4.238  0.00  0.00     0.044 A 
ATOM      7  C   UNL d   1      27.702 -11.514   1.818  0.00  0.00     0.039 C 
ATOM      8  C   UNL d   1      28.240 -11.970   0.420  0.00  0.00     0.010 C 
ATOM      9  C   UNL d   1      27.565 -13.365   0.061  0.00  0.00    -0.000 C 
ATOM     10  C   UNL d   1      27.452 -13.910  -1.589  0.00  0.00     0.006 C 
ATOM     11  C   UNL d   1      26.198 -14.510  -2.781  0.00  0.00     0.013 C 
ATOM     12  C   UNL d   1      25.116 -15.223  -2.078  0.00  0.00     0.079 C 
ATOM     13  C   UNL d   1      26.097 -15.708  -1.068  0.00  0.00     0.135 C 
ATOM     14  O   UNL d   1      25.651 -16.126  -0.034  0.00  0.00    -0.297 OA
ATOM     15  C   UNL d   1      27.715 -15.384  -1.459  0.00  0.00     0.021 C 
ATOM     16  C   UNL d   1      28.528 -15.621  -2.815  0.00  0.00     0.024 C 
ATOM     17  C   UNL d   1      28.493 -16.122  -0.423  0.00  0.00     0.018 C 
ATOM     18  C   UNL d   1      28.165 -15.745   0.981  0.00  0.00     0.011 C 
ATOM     19  C   UNL d   1      28.393 -14.276   1.157  0.00  0.00     0.024 C 
ENDROOT
BRANCH   1  20
ATOM     20  O   UNL d   1      27.614 -12.597   6.556  0.00  0.00    -0.318 OA
BRANCH  20  21
ATOM     21  C   UNL d   1      28.967 -12.411   7.050  0.00  0.00     0.292 C 
ATOM     22  C   UNL d   1      29.676 -13.677   7.647  0.00  0.00     0.171 C 
ATOM     23  C   UNL d   1      31.054 -13.252   8.155  0.00  0.00     0.177 C 
ATOM     24  C   UNL d   1      31.890 -12.568   7.089  0.00  0.00     0.180 C 
ATOM     25  C   UNL d   1      31.084 -11.486   6.355  0.00  0.00     0.179 C 
ATOM     26  O   UNL d   1      29.791 -11.959   5.943  0.00  0.00    -0.349 OA
BRANCH  22  27
ATOM     27  N   UNL d   1      29.021 -14.300   8.798  0.00  0.00    -0.349 N 
ATOM     28  C   UNL d   1      28.422 -13.694   9.860  0.00  0.00     0.214 C 
ATOM     29  C   UNL d   1      28.623 -12.216  10.051  0.00  0.00     0.117 C 
ATOM     30  O   UNL d   1      27.780 -14.369  10.664  0.00  0.00    -0.274 OA
ATOM     31  H   UNL d   1      28.919 -15.308   8.815  0.00  0.00     0.163 HD
ENDBRANCH  22  27
BRANCH  23  32
ATOM     32  O   UNL d   1      31.775 -14.370   8.692  0.00  0.00    -0.391 OA
ATOM     33  H   UNL d   1      32.718 -14.248   8.490  0.00  0.00     0.210 HD
ENDBRANCH  23  32
BRANCH  24  34
ATOM     34  O   UNL d   1      33.040 -12.000   7.725  0.00  0.00    -0.390 OA
ATOM     35  H   UNL d   1      33.539 -11.486   7.069  0.00  0.00     0.210 HD
ENDBRANCH  24  34
BRANCH  25  36
ATOM     36  C   UNL d   1      31.876 -10.998   5.126  0.00  0.00     0.198 C 
BRANCH  36  37
ATOM     37  O   UNL d   1      33.263 -11.308   5.179  0.00  0.00    -0.398 OA
ATOM     38  H   UNL d   1      33.372 -12.213   5.515  0.00  0.00     0.209 HD
ENDBRANCH  36  37
ENDBRANCH  25  36
ENDBRANCH  20  21
ENDBRANCH   1  20
TORSDOF 7
ENDMDL
MODEL 7
REMARK VINA RESULT:    -6.774      6.330      9.207
REMARK INTER + INTRA:         -12.135
REMARK INTER:                  -8.862
REMARK INTRA:                  -3.273
REMARK CONF_INDEPENDENT:        2.088
REMARK UNBOUND:                -3.273
REMARK  7 active torsions:
REMARK  status: ('A' for Active; 'I' for Inactive)
REMARK       I    between atoms: C_2  and  N_4 
REMARK    1  A    between atoms: C_5  and  N_4 
REMARK    2  A    between atoms: C_6  and  O_7 
REMARK    3  A    between atoms: O_7  and  C_8 
REMARK    4  A    between atoms: C_28  and  C_29 
REMARK    5  A    between atoms: C_29  and  O_30 
REMARK    6  A    between atoms: C_31  and  O_32 
REMARK    7  A    between atoms: C_33  and  O_34 
ROOT
ATOM      1  C   UNL d   1      25.158 -14.347  -3.791  0.00  0.00     0.072 A 
ATOM      2  C   UNL d   1      25.990 -15.076  -4.632  0.00  0.00     0.037 A 
ATOM      3  C   UNL d   1      26.937 -14.376  -5.396  0.00  0.00     0.011 A 
ATOM      4  C   UNL d   1      27.019 -12.952  -5.392  0.00  0.00    -0.047 A 
ATOM      5  C   UNL d   1      26.131 -12.236  -4.577  0.00  0.00    -0.049 A 
ATOM      6  C   UNL d   1      25.177 -12.945  -3.815  0.00  0.00     0.044 A 
ATOM      7  C   UNL d   1      26.262 -10.732  -4.415  0.00  0.00     0.039 C 
ATOM      8  C   UNL d   1      27.492 -10.070  -5.124  0.00  0.00     0.010 C 
ATOM      9  C   UNL d   1      27.586 -10.655  -6.600  0.00  0.00    -0.000 C 
ATOM     10  C   UNL d   1      28.424  -9.791  -7.858  0.00  0.00     0.006 C 
ATOM     11  C   UNL d   1      28.139  -9.166  -9.554  0.00  0.00     0.013 C 
ATOM     12  C   UNL d   1      27.183 -10.031 -10.270  0.00  0.00     0.079 C 
ATOM     13  C   UNL d   1      27.706 -11.212  -9.532  0.00  0.00     0.135 C 
ATOM     14  O   UNL d   1      27.022 -12.200  -9.531  0.00  0.00    -0.297 OA
ATOM     15  C   UNL d   1      29.098 -10.900  -8.616  0.00  0.00     0.021 C 
ATOM     16  C   UNL d   1      30.459 -10.157  -9.006  0.00  0.00     0.024 C 
ATOM     17  C   UNL d   1      29.531 -12.246  -8.144  0.00  0.00     0.018 C 
ATOM     18  C   UNL d   1      28.499 -12.990  -7.366  0.00  0.00     0.011 C 
ATOM     19  C   UNL d   1      28.094 -12.167  -6.183  0.00  0.00     0.024 C 
ENDROOT
BRANCH   1  20
ATOM     20  O   UNL d   1      24.442 -14.931  -2.776  0.00  0.00    -0.318 OA
BRANCH  20  21
ATOM     21  C   UNL d   1      25.194 -15.940  -2.054  0.00  0.00     0.292 C 
ATOM     22  C   UNL d   1      26.351 -15.425  -1.126  0.00  0.00     0.171 C 
ATOM     23  C   UNL d   1      27.043 -16.641  -0.511  0.00  0.00     0.177 C 
ATOM     24  C   UNL d   1      26.081 -17.560   0.218  0.00  0.00     0.180 C 
ATOM     25  C   UNL d   1      24.836 -17.856  -0.632  0.00  0.00     0.179 C 
ATOM     26  O   UNL d   1      24.270 -16.663  -1.199  0.00  0.00    -0.349 OA
BRANCH  22  27
ATOM     27  N   UNL d   1      27.418 -14.671  -1.785  0.00  0.00    -0.349 N 
ATOM     28  C   UNL d   1      27.851 -13.408  -1.518  0.00  0.00     0.214 C 
ATOM     29  C   UNL d   1      27.027 -12.545  -0.603  0.00  0.00     0.117 C 
ATOM     30  O   UNL d   1      28.868 -12.985  -2.066  0.00  0.00    -0.274 OA
ATOM     31  H   UNL d   1      27.977 -15.134  -2.492  0.00  0.00     0.163 HD
ENDBRANCH  22  27
BRANCH  23  32
ATOM     32  O   UNL d   1      28.098 -16.243   0.376  0.00  0.00    -0.391 OA
ATOM     33  H   UNL d   1      28.318 -17.000   0.944  0.00  0.00     0.210 HD
ENDBRANCH  23  32
BRANCH  24  34
ATOM     34  O   UNL d   1      26.778 -18.770   0.535  0.00  0.00    -0.390 OA
ATOM     35  H   UNL d   1      27.723 -18.568   0.642  0.00  0.00     0.210 HD
ENDBRANCH  24  34
BRANCH  25  36
ATOM     36  C   UNL d   1      23.781 -18.575   0.231  0.00  0.00     0.198 C 
BRANCH  36  37
ATOM     37  O   UNL d   1      22.441 -18.228  -0.098  0.00  0.00    -0.398 OA
ATOM     38  H   UNL d   1      22.445 -17.402  -0.610  0.00  0.00     0.209 HD
ENDBRANCH  36  37
ENDBRANCH  25  36
ENDBRANCH  20  21
ENDBRANCH   1  20
TORSDOF 7
ENDMDL
MODEL 8
REMARK VINA RESULT:    -6.708      2.889      4.840
REMARK INTER + INTRA:         -11.711
REMARK INTER:                  -8.796
REMARK INTRA:                  -2.915
REMARK CONF_INDEPENDENT:        2.088
REMARK UNBOUND:                -2.915
REMARK  7 active torsions:
REMARK  status: ('A' for Active; 'I' for Inactive)
REMARK       I    between atoms: C_2  and  N_4 
REMARK    1  A    between atoms: C_5  and  N_4 
REMARK    2  A    between atoms: C_6  and  O_7 
REMARK    3  A    between atoms: O_7  and  C_8 
REMARK    4  A    between atoms: C_28  and  C_29 
REMARK    5  A    between atoms: C_29  and  O_30 
REMARK    6  A    between atoms: C_31  and  O_32 
REMARK    7  A    between atoms: C_33  and  O_34 
ROOT
ATOM      1  C   UNL d   1      26.878 -13.313   1.135  0.00  0.00     0.072 A 
ATOM      2  C   UNL d   1      27.453 -12.195   0.541  0.00  0.00     0.037 A 
ATOM      3  C   UNL d   1      27.548 -12.164  -0.858  0.00  0.00     0.011 A 
ATOM      4  C   UNL d   1      27.147 -13.263  -1.676  0.00  0.00    -0.047 A 
ATOM      5  C   UNL d   1      26.622 -14.402  -1.049  0.00  0.00    -0.049 A 
ATOM      6  C   UNL d   1      26.533 -14.430   0.360  0.00  0.00     0.044 A 
ATOM      7  C   UNL d   1      26.042 -15.542  -1.867  0.00  0.00     0.039 C 
ATOM      8  C   UNL d   1      25.982 -15.316  -3.415  0.00  0.00     0.010 C 
ATOM      9  C   UNL d   1      27.381 -14.721  -3.883  0.00  0.00    -0.000 C 
ATOM     10  C   UNL d   1      27.911 -14.864  -5.535  0.00  0.00     0.006 C 
ATOM     11  C   UNL d   1      29.351 -15.459  -6.496  0.00  0.00     0.013 C 
ATOM     12  C   UNL d   1      30.593 -15.294  -5.719  0.00  0.00     0.079 C 
ATOM     13  C   UNL d   1      30.033 -14.067  -5.090  0.00  0.00     0.135 C 
ATOM     14  O   UNL d   1      30.568 -13.677  -4.088  0.00  0.00    -0.297 OA
ATOM     15  C   UNL d   1      28.576 -13.538  -5.776  0.00  0.00     0.021 C 
ATOM     16  C   UNL d   1      28.161 -13.315  -7.304  0.00  0.00     0.024 C 
ATOM     17  C   UNL d   1      28.327 -12.220  -5.125  0.00  0.00     0.018 C 
ATOM     18  C   UNL d   1      28.266 -12.266  -3.637  0.00  0.00     0.011 C 
ATOM     19  C   UNL d   1      27.192 -13.222  -3.223  0.00  0.00     0.024 C 
ENDROOT
BRANCH   1  20
ATOM     20  O   UNL d   1      26.438 -13.313   2.434  0.00  0.00    -0.318 OA
BRANCH  20  21
ATOM     21  C   UNL d   1      27.434 -13.794   3.375  0.00  0.00     0.292 C 
ATOM     22  C   UNL d   1      28.912 -13.874   2.854  0.00  0.00     0.171 C 
ATOM     23  C   UNL d   1      29.778 -14.453   3.972  0.00  0.00     0.177 C 
ATOM     24  C   UNL d   1      29.662 -13.676   5.270  0.00  0.00     0.180 C 
ATOM     25  C   UNL d   1      28.194 -13.406   5.631  0.00  0.00     0.179 C 
ATOM     26  O   UNL d   1      27.445 -12.896   4.516  0.00  0.00    -0.349 OA
BRANCH  22  27
ATOM     27  N   UNL d   1      29.143 -14.746   1.702  0.00  0.00    -0.349 N 
ATOM     28  C   UNL d   1      29.955 -14.534   0.629  0.00  0.00     0.214 C 
ATOM     29  C   UNL d   1      30.536 -13.162   0.429  0.00  0.00     0.117 C 
ATOM     30  O   UNL d   1      30.151 -15.444  -0.175  0.00  0.00    -0.274 OA
ATOM     31  H   UNL d   1      28.715 -15.665   1.692  0.00  0.00     0.163 HD
ENDBRANCH  22  27
BRANCH  23  32
ATOM     32  O   UNL d   1      31.155 -14.529   3.575  0.00  0.00    -0.391 OA
ATOM     33  H   UNL d   1      31.706 -14.356   4.356  0.00  0.00     0.210 HD
ENDBRANCH  23  32
BRANCH  24  34
ATOM     34  O   UNL d   1      30.307 -14.434   6.300  0.00  0.00    -0.390 OA
ATOM     35  H   UNL d   1      31.154 -14.767   5.960  0.00  0.00     0.210 HD
ENDBRANCH  24  34
BRANCH  25  36
ATOM     36  C   UNL d   1      28.126 -12.408   6.804  0.00  0.00     0.198 C 
BRANCH  36  37
ATOM     37  O   UNL d   1      27.777 -11.086   6.411  0.00  0.00    -0.398 OA
ATOM     38  H   UNL d   1      27.054 -11.130   5.762  0.00  0.00     0.209 HD
ENDBRANCH  36  37
ENDBRANCH  25  36
ENDBRANCH  20  21
ENDBRANCH   1  20
TORSDOF 7
ENDMDL
MODEL 9
REMARK VINA RESULT:    -6.478      1.616      2.109
REMARK INTER + INTRA:         -11.631
REMARK INTER:                  -8.566
REMARK INTRA:                  -3.065
REMARK CONF_INDEPENDENT:        2.088
REMARK UNBOUND:                -3.065
REMARK  7 active torsions:
REMARK  status: ('A' for Active; 'I' for Inactive)
REMARK       I    between atoms: C_2  and  N_4 
REMARK    1  A    between atoms: C_5  and  N_4 
REMARK    2  A    between atoms: C_6  and  O_7 
REMARK    3  A    between atoms: O_7  and  C_8 
REMARK    4  A    between atoms: C_28  and  C_29 
REMARK    5  A    between atoms: C_29  and  O_30 
REMARK    6  A    between atoms: C_31  and  O_32 
REMARK    7  A    between atoms: C_33  and  O_34 
ROOT
ATOM      1  C   UNL d   1      28.730 -13.840   6.148  0.00  0.00     0.072 A 
ATOM      2  C   UNL d   1      29.543 -14.762   5.499  0.00  0.00     0.037 A 
ATOM      3  C   UNL d   1      29.550 -14.767   4.096  0.00  0.00     0.011 A 
ATOM      4  C   UNL d   1      28.701 -13.918   3.325  0.00  0.00    -0.047 A 
ATOM      5  C   UNL d   1      27.848 -13.036   4.004  0.00  0.00    -0.049 A 
ATOM      6  C   UNL d   1      27.843 -13.038   5.416  0.00  0.00     0.044 A 
ATOM      7  C   UNL d   1      27.030 -12.005   3.246  0.00  0.00     0.039 C 
ATOM      8  C   UNL d   1      27.278 -11.933   1.702  0.00  0.00     0.010 C 
ATOM      9  C   UNL d   1      27.289 -13.418   1.132  0.00  0.00    -0.000 C 
ATOM     10  C   UNL d   1      26.968 -13.738  -0.549  0.00  0.00     0.006 C 
ATOM     11  C   UNL d   1      25.871 -14.767  -1.592  0.00  0.00     0.013 C 
ATOM     12  C   UNL d   1      25.533 -16.026  -0.903  0.00  0.00     0.079 C 
ATOM     13  C   UNL d   1      26.875 -16.028  -0.258  0.00  0.00     0.135 C 
ATOM     14  O   UNL d   1      27.017 -16.740   0.699  0.00  0.00    -0.297 OA
ATOM     15  C   UNL d   1      27.935 -14.847  -0.855  0.00  0.00     0.021 C 
ATOM     16  C   UNL d   1      28.317 -14.450  -2.356  0.00  0.00     0.024 C 
ATOM     17  C   UNL d   1      29.240 -15.173  -0.212  0.00  0.00     0.018 C 
ATOM     18  C   UNL d   1      29.206 -15.200   1.278  0.00  0.00     0.011 C 
ATOM     19  C   UNL d   1      28.737 -13.869   1.778  0.00  0.00     0.024 C 
ENDROOT
BRANCH   1  20
ATOM     20  O   UNL d   1      28.888 -13.524   7.473  0.00  0.00    -0.318 OA
BRANCH  20  21
ATOM     21  C   UNL d   1      30.124 -14.034   8.040  0.00  0.00     0.292 C 
ATOM     22  C   UNL d   1      31.266 -12.987   8.292  0.00  0.00     0.171 C 
ATOM     23  C   UNL d   1      32.484 -13.736   8.832  0.00  0.00     0.177 C 
ATOM     24  C   UNL d   1      32.169 -14.560  10.067  0.00  0.00     0.180 C 
ATOM     25  C   UNL d   1      30.899 -15.400   9.871  0.00  0.00     0.179 C 
ATOM     26  O   UNL d   1      29.815 -14.627   9.329  0.00  0.00    -0.349 OA
BRANCH  22  27
ATOM     27  N   UNL d   1      31.752 -12.268   7.113  0.00  0.00    -0.349 N 
ATOM     28  C   UNL d   1      31.244 -11.142   6.541  0.00  0.00     0.214 C 
ATOM     29  C   UNL d   1      29.891 -10.659   6.984  0.00  0.00     0.117 C 
ATOM     30  O   UNL d   1      31.871 -10.580   5.644  0.00  0.00    -0.274 OA
ATOM     31  H   UNL d   1      32.613 -12.575   6.675  0.00  0.00     0.163 HD
ENDBRANCH  22  27
BRANCH  23  32
ATOM     32  O   UNL d   1      33.564 -12.834   9.113  0.00  0.00    -0.391 OA
ATOM     33  H   UNL d   1      34.148 -13.255   9.765  0.00  0.00     0.210 HD
ENDBRANCH  23  32
BRANCH  24  34
ATOM     34  O   UNL d   1      33.297 -15.400  10.338  0.00  0.00    -0.390 OA
ATOM     35  H   UNL d   1      33.000 -16.325  10.360  0.00  0.00     0.210 HD
ENDBRANCH  24  34
BRANCH  25  36
ATOM     36  C   UNL d   1      30.475 -16.017  11.218  0.00  0.00     0.198 C 
BRANCH  36  37
ATOM     37  O   UNL d   1      31.560 -16.548  11.971  0.00  0.00    -0.398 OA
ATOM     38  H   UNL d   1      32.192 -16.965  11.362  0.00  0.00     0.209 HD
ENDBRANCH  36  37
ENDBRANCH  25  36
ENDBRANCH  20  21
ENDBRANCH   1  20
TORSDOF 7
ENDMDL
